@<TRIPOS>MOLECULE
tmp/6ho6A00.pdb
 204 201 0 0 0
SMALL
GASTEIGER

@<TRIPOS>ATOM
      1  N          6.7090   35.5180    3.1790 N.3    64  LEU64      -0.1245
      2  CA         6.4320   34.1960    3.8040 C.3    64  LEU64       0.1561
      3  C          5.4420   34.3870    4.9770 C.2    64  LEU64       0.2260
      4  O          4.5410   33.5760    5.0840 O.2    64  LEU64      -0.2867
      5  CB         7.7520   33.5620    4.2450 C.3    64  LEU64       0.0270
      6  CG         7.6340   32.1190    4.7190 C.3    64  LEU64       0.0019
      7  CD1        7.2810   31.1940    3.5680 C.3    64  LEU64       0.0001
      8  CD2        8.9330   31.6750    5.3640 C.3    64  LEU64       0.0001
      9  N          1.8780   34.5910    3.5760 N.3    67  LEU67      -0.1231
     10  CA         1.4160   33.2200    3.2790 C.3    67  LEU67       0.1693
     11  C          1.0120   32.4890    4.5600 C.2    67  LEU67       0.2591
     12  O          0.0400   31.7530    4.5190 O.2    67  LEU67      -0.2718
     13  CB         2.5390   32.4370    2.5920 C.3    67  LEU67       0.0284
     14  CG         2.6510   32.5920    1.0880 C.3    67  LEU67       0.0019
     15  CD1        3.7510   31.6670    0.5730 C.3    67  LEU67       0.0001
     16  CD2        1.3160   32.2970    0.4140 C.3    67  LEU67       0.0001
     17  N          1.8230   32.5660    5.6160 N.am   68  ALA68      -0.1980
     18  CA         1.6120   31.7920    6.8580 C.3    68  ALA68       0.1597
     19  C          0.2950   32.2070    7.5340 C.2    68  ALA68       0.2287
     20  O         -0.2430   31.3780    8.2710 O.2    68  ALA68      -0.2864
     21  CB         2.7720   32.0060    7.7990 C.3    68  ALA68       0.0319
     22  N          1.1890   23.5560   -1.0550 N.3    75  MET75      -0.1230
     23  CA         1.5120   24.3640    0.1490 C.3    75  MET75       0.1702
     24  C          3.0330   24.6150    0.2070 C.2    75  MET75       0.2592
     25  O          3.4700   25.7540    0.4410 O.2    75  MET75      -0.2718
     26  CB         1.0560   23.6080    1.4090 C.3    75  MET75       0.0401
     27  CG         1.1330   24.4200    2.6980 C.3    75  MET75       0.0596
     28  SD         2.4980   23.9370    3.8290 S.3    75  MET75      -0.1393
     29  CE         2.0030   22.2830    4.3480 C.3    75  MET75       0.0692
     30  N          3.8440   23.5690    0.0640 N.am   76  TRP76      -0.1976
     31  CA         5.3230   23.7140    0.1290 C.3    76  TRP76       0.1640
     32  C          5.8100   24.4830   -1.0900 C.2    76  TRP76       0.2290
     33  O          6.6810   25.3490   -0.9170 O.2    76  TRP76      -0.2864
     34  CB         5.9710   22.3340    0.2740 C.3    76  TRP76       0.0576
     35  CG         5.7320   21.7190    1.6150 C.ar   76  TRP76       0.0006
     36  CD1        4.9420   20.6470    1.8920 C.ar   76  TRP76       0.0946
     37  CD2        6.2800   22.1490    2.8770 C.ar   76  TRP76       0.0152
     38  NE1        4.9640   20.3670    3.2410 N.ar   76  TRP76      -0.2442
     39  CE2        5.7460   21.2960    3.8770 C.ar   76  TRP76       0.0810
     40  CE3        7.0830   23.2320    3.2780 C.ar   76  TRP76       0.0012
     41  CZ2        6.0890   21.4220    5.2270 C.ar   76  TRP76       0.0191
     42  CZ3        7.3700   23.3890    4.6240 C.ar   76  TRP76       0.0001
     43  CH2        6.9010   22.4760    5.5780 C.ar   76  TRP76       0.0015
     44  N          4.2990   26.7790   -2.8590 N.3    78  THR78      -0.1203
     45  CA         3.9470   28.2090   -2.7230 C.3    78  THR78       0.1994
     46  C          4.9740   28.8670   -1.8120 C.2    78  THR78       0.2618
     47  O          5.3930   29.9890   -2.0750 O.2    78  THR78      -0.2717
     48  CB         2.4820   28.3940   -2.2690 C.3    78  THR78       0.1784
     49  OG1        1.6110   27.7170   -3.1620 O.3    78  THR78      -0.2211
     50  CG2        2.0700   29.8510   -2.2340 C.3    78  THR78       0.0376
     51  N          5.3910   28.1810   -0.7510 N.am   79  GLY79      -0.1942
     52  CA         6.3440   28.7380    0.2140 C.3    79  GLY79       0.2014
     53  C          7.7440   28.8070   -0.3820 C.2    79  GLY79       0.2638
     54  O          8.3920   29.8510   -0.2860 O.2    79  GLY79      -0.2714
     55  N          8.2250   27.7250   -0.9780 N.am   80  ILE80      -0.1977
     56  CA         9.5440   27.7440   -1.6650 C.3    80  ILE80       0.1596
     57  C          9.5440   28.8770   -2.7180 C.2    80  ILE80       0.2287
     58  O         10.5770   29.5920   -2.8520 O.2    80  ILE80      -0.2864
     59  CB         9.8920   26.3640   -2.2360 C.3    80  ILE80       0.0276
     60  CG1        9.9990   25.3470   -1.0850 C.3    80  ILE80       0.0022
     61  CG2       11.1900   26.4660   -3.0270 C.3    80  ILE80       0.0022
     62  CD1       10.0460   23.9350   -1.5110 C.3    80  ILE80       0.0001
     63  N         10.8860   32.4240   -2.0600 N.3    83  PHE83      -0.1241
     64  CA        12.3590   32.5880   -2.0840 C.3    83  PHE83       0.1605
     65  C         12.8460   32.5950   -3.5320 C.2    83  PHE83       0.2264
     66  O         13.6800   33.4210   -3.8810 O.2    83  PHE83      -0.2867
     67  CB        12.9960   31.5160   -1.2060 C.3    83  PHE83       0.0534
     68  CG        12.6440   31.7370    0.2390 C.ar   83  PHE83      -0.0203
     69  CD1       13.3740   32.6190    1.0020 C.ar   83  PHE83      -0.0042
     70  CD2       11.5900   31.0700    0.8370 C.ar   83  PHE83      -0.0042
     71  CE1       13.0190   32.8700    2.3260 C.ar   83  PHE83      -0.0003
     72  CE2       11.2380   31.3150    2.1560 C.ar   83  PHE83      -0.0003
     73  CZ        11.9480   32.2340    2.8950 C.ar   83  PHE83      -0.0000
     74  N         14.4240   36.2270   -4.3380 N.3    87  PHE87      -0.1241
     75  CA        15.8900   36.2850   -4.5660 C.3    87  PHE87       0.1605
     76  C         16.1430   36.2700   -6.0650 C.2    87  PHE87       0.2264
     77  O         17.1260   36.8930   -6.5030 O.2    87  PHE87      -0.2867
     78  CB        16.6360   35.1540   -3.8350 C.3    87  PHE87       0.0534
     79  CG        16.6420   35.3460   -2.3420 C.ar   87  PHE87      -0.0203
     80  CD1       17.4970   36.2800   -1.7600 C.ar   87  PHE87      -0.0042
     81  CD2       15.8740   34.5700   -1.5100 C.ar   87  PHE87      -0.0042
     82  CE1       17.5060   36.4750   -0.3790 C.ar   87  PHE87      -0.0003
     83  CE2       15.8660   34.7920   -0.1310 C.ar   87  PHE87      -0.0003
     84  CZ        16.6530   35.7550    0.4250 C.ar   87  PHE87      -0.0000
     85  N         22.2930   36.8710    7.6090 N.3   111  TRP111     -0.1241
     86  CA        21.9030   35.6480    6.8900 C.3   111  TRP111      0.1605
     87  C         21.6060   34.5670    7.9390 C.2   111  TRP111      0.2264
     88  O         20.5360   33.9450    7.8880 O.2   111  TRP111     -0.2867
     89  CB        22.9570   35.2260    5.8630 C.3   111  TRP111      0.0550
     90  CG        22.3840   34.0910    5.0750 C.ar  111  TRP111      0.0003
     91  CD1       22.6750   32.7580    5.1660 C.ar  111  TRP111      0.0946
     92  CD2       21.3480   34.2080    4.0980 C.ar  111  TRP111      0.0152
     93  NE1       21.9100   32.0390    4.3010 N.ar  111  TRP111     -0.2442
     94  CE2       21.0710   32.8950    3.6360 C.ar  111  TRP111      0.0810
     95  CE3       20.6440   35.2890    3.5540 C.ar  111  TRP111      0.0012
     96  CZ2       20.0900   32.6470    2.6730 C.ar  111  TRP111      0.0191
     97  CZ3       19.6840   35.0400    2.6060 C.ar  111  TRP111      0.0001
     98  CH2       19.4060   33.7320    2.1810 C.ar  111  TRP111      0.0015
     99  N         18.0070   32.6010    8.4660 N.3   115  MET115     -0.1245
    100  CA        18.0110   31.1290    8.2530 C.3   115  MET115      0.1570
    101  C         17.4480   30.4610    9.5270 C.2   115  MET115      0.2261
    102  O         16.6090   29.5720    9.4390 O.2   115  MET115     -0.2867
    103  CB        19.4010   30.6110    7.8870 C.3   115  MET115      0.0387
    104  CG        19.8890   30.9890    6.5050 C.3   115  MET115      0.0595
    105  SD        18.8800   30.2110    5.1770 S.3   115  MET115     -0.1393
    106  CE        19.3960   28.4910    5.3100 C.3   115  MET115      0.0692
    107  N         13.6620   30.9000    9.4390 N.3   118  TRP118     -0.1241
    108  CA        13.0170   30.1320    8.3440 C.3   118  TRP118      0.1605
    109  C         13.0520   28.6440    8.6390 C.2   118  TRP118      0.2264
    110  O         12.0970   27.9450    8.3410 O.2   118  TRP118     -0.2867
    111  CB        13.7090   30.4560    7.0300 C.3   118  TRP118      0.0550
    112  CG        13.4990   31.8810    6.6160 C.ar  118  TRP118      0.0003
    113  CD1       12.3950   32.6440    6.9080 C.ar  118  TRP118      0.0946
    114  CD2       14.3570   32.6990    5.8080 C.ar  118  TRP118      0.0152
    115  NE1       12.5490   33.8990    6.3990 N.ar  118  TRP118     -0.2442
    116  CE2       13.7300   33.9630    5.7120 C.ar  118  TRP118      0.0810
    117  CE3       15.6290   32.5490    5.2430 C.ar  118  TRP118      0.0012
    118  CZ2       14.3060   35.0140    5.0060 C.ar  118  TRP118      0.0191
    119  CZ3       16.2040   33.5850    4.5420 C.ar  118  TRP118      0.0001
    120  CH2       15.5520   34.8080    4.4420 C.ar  118  TRP118      0.0015
    121  N         10.4540   28.0010   11.3960 N.3   121  TYR121     -0.1227
    122  CA         9.0880   27.9950   10.8040 C.3   121  TYR121      0.1736
    123  C          8.8430   26.7000   10.0000 C.2   121  TYR121      0.2596
    124  O          7.8180   26.0620   10.1670 O.2   121  TYR121     -0.2718
    125  CB         8.8960   29.2400    9.9400 C.3   121  TYR121      0.0548
    126  CG         7.6120   29.2140    9.1780 C.ar  121  TYR121     -0.0200
    127  CD1        6.4050   29.1650    9.8440 C.ar  121  TYR121     -0.0009
    128  CD2        7.6170   29.1230    7.8070 C.ar  121  TYR121     -0.0009
    129  CE1        5.2070   29.0960    9.1710 C.ar  121  TYR121      0.0417
    130  CE2        6.4230   29.0450    7.1060 C.ar  121  TYR121      0.0417
    131  CZ         5.2170   29.0470    7.7910 C.ar  121  TYR121      0.1957
    132  OH         4.0560   28.9300    7.0770 O.3   121  TYR121     -0.2866
    133  N          9.8340   26.2630    9.2180 N.am  122  THR122     -0.1953
    134  CA         9.7560   24.9700    8.4950 C.3   122  THR122      0.1897
    135  C          9.4850   23.8480    9.5000 C.2   122  THR122      0.2313
    136  O          8.6070   23.0250    9.2560 O.2   122  THR122     -0.2863
    137  CB        11.0330   24.7050    7.6810 C.3   122  THR122      0.1794
    138  OG1       11.3030   25.7760    6.7740 O.3   122  THR122     -0.2208
    139  CG2       10.9560   23.4000    6.9180 C.3   122  THR122      0.0378
    140  N          5.8960   23.8180   10.8430 N.3   125  VAL125     -0.1245
    141  CA         4.9180   23.2900    9.8480 C.3   125  VAL125      0.1561
    142  C          5.0480   21.7650    9.7370 C.2   125  VAL125      0.2260
    143  O          4.0550   21.1000    9.7850 O.2   125  VAL125     -0.2867
    144  CB         5.0270   23.9670    8.4660 C.3   125  VAL125      0.0252
    145  CG1        4.0230   23.3580    7.5060 C.3   125  VAL125      0.0019
    146  CG2        4.8310   25.4770    8.5480 C.3   125  VAL125      0.0019
    147  N         16.5240   23.5530    4.2560 N.3   149  ASN149     -0.1240
    148  CA        16.7780   24.9910    4.0950 C.3   149  ASN149      0.1653
    149  C         18.1610   25.2000    3.4840 C.2   149  ASN149      0.2266
    150  O         18.2690   26.0980    2.6530 O.2   149  ASN149     -0.2867
    151  CB        16.5940   25.7470    5.4230 C.3   149  ASN149      0.1155
    152  CG        15.1430   26.1230    5.6300 C.2   149  ASN149      0.2627
    153  OD1       14.8370   27.3070    5.5990 O.2   149  ASN149     -0.2716
    154  ND2       14.3070   25.1650    5.9800 N.am  149  ASN149     -0.0877
    155  N         18.0890   24.3420   -0.1570 N.3   152  ASN152     -0.1225
    156  CA        17.4640   25.4470   -0.9320 C.3   152  ASN152      0.1785
    157  C         18.4300   26.6200   -1.0920 C.2   152  ASN152      0.2597
    158  O         18.4850   27.2280   -2.2040 O.2   152  ASN152     -0.2718
    159  CB        16.1510   25.8560   -0.2900 C.3   152  ASN152      0.1169
    160  CG        15.0410   24.8830   -0.6350 C.2   152  ASN152      0.2627
    161  OD1       15.2960   23.7090   -0.9010 O.2   152  ASN152     -0.2716
    162  ND2       13.8060   25.3410   -0.5840 N.am  152  ASN152     -0.0877
    163  N         19.1010   27.0080   -0.0050 N.am  153  GLU153     -0.1979
    164  CA        20.0920   28.0940   -0.0580 C.3   153  GLU153      0.1602
    165  C         21.1040   27.7930   -1.1850 C.2   153  GLU153      0.2287
    166  O         21.3020   28.6300   -2.1350 O.2   153  GLU153     -0.2864
    167  CB        20.7900   28.2310    1.2840 C.3   153  GLU153      0.0415
    168  CG        21.8850   29.2670    1.2530 C.3   153  GLU153      0.1163
    169  CD        22.7820   29.2740    2.4770 C.2   153  GLU153      0.3649
    170  OE1       22.2450   29.3360    3.5670 O.co2 153  GLU153     -0.2457
    171  OE2       24.0290   29.2880    2.3170 O.co2 153  GLU153     -0.2457
    172  N         19.2930   27.2100   -4.8800 N.3   156  LEU156     -0.1231
    173  CA        18.7550   28.4680   -5.4730 C.3   156  LEU156      0.1693
    174  C         19.9110   29.3650   -5.9180 C.2   156  LEU156      0.2592
    175  O         19.8740   29.8800   -7.0580 O.2   156  LEU156     -0.2718
    176  CB        17.8350   29.2150   -4.4980 C.3   156  LEU156      0.0284
    177  CG        16.4670   28.5860   -4.2460 C.3   156  LEU156      0.0019
    178  CD1       15.7600   29.2910   -3.1160 C.3   156  LEU156      0.0001
    179  CD2       15.5900   28.5470   -5.4940 C.3   156  LEU156      0.0001
    180  N         20.8960   29.5820   -5.0630 N.am  157  PHE157     -0.1976
    181  CA        21.9890   30.5430   -5.3300 C.3   157  PHE157      0.1639
    182  C         22.8850   29.9840   -6.4480 C.2   157  PHE157      0.2290
    183  O         23.2440   30.7780   -7.3480 O.2   157  PHE157     -0.2864
    184  CB        22.6950   30.9510   -4.0340 C.3   157  PHE157      0.0560
    185  CG        21.7380   31.6340   -3.0870 C.ar  157  PHE157     -0.0200
    186  CD1       20.4970   32.0950   -3.5250 C.ar  157  PHE157     -0.0042
    187  CD2       22.0270   31.7780   -1.7560 C.ar  157  PHE157     -0.0042
    188  CE1       19.6010   32.7050   -2.6520 C.ar  157  PHE157     -0.0003
    189  CE2       21.1520   32.4250   -0.8970 C.ar  157  PHE157     -0.0003
    190  CZ        19.9450   32.8880   -1.3420 C.ar  157  PHE157     -0.0000
    191  N         11.4910   18.0430   -0.9560 N.3   180  TRP180     -0.1241
    192  CA        10.7670   18.4620    0.2780 C.3   180  TRP180      0.1605
    193  C          9.6130   17.5040    0.5610 C.2   180  TRP180      0.2264
    194  O          9.5570   16.9400    1.6730 O.2   180  TRP180     -0.2867
    195  CB        10.2900   19.9080    0.1980 C.3   180  TRP180      0.0550
    196  CG        11.3450   20.9140    0.4840 C.ar  180  TRP180      0.0003
    197  CD1       12.5500   21.0770   -0.1580 C.ar  180  TRP180      0.0946
    198  CD2       11.2760   21.9490    1.4770 C.ar  180  TRP180      0.0152
    199  NE1       13.2420   22.0960    0.4130 N.ar  180  TRP180     -0.2442
    200  CE2       12.4900   22.6600    1.4020 C.ar  180  TRP180      0.0810
    201  CE3       10.3480   22.2930    2.4640 C.ar  180  TRP180      0.0012
    202  CZ2       12.7810   23.7350    2.2370 C.ar  180  TRP180      0.0191
    203  CZ3       10.6340   23.3590    3.2900 C.ar  180  TRP180      0.0001
    204  CH2       11.8210   24.0770    3.1660 C.ar  180  TRP180      0.0015
@<TRIPOS>BOND
     1   183   182    2
     2   175   174    2
     3    77    76    2
     4   182   181    1
     5    76    75    1
     6   174   173    1
     7   174   180   am
     8   179   177    1
     9   173   172    1
    10   173   176    1
    11   181   180    1
    12   181   184    1
    13    75    74    1
    14    75    78    1
    15   176   177    1
    16   177   178    1
    17   184   185    1
    18    66    65    2
    19    78    79    1
    20    65    64    1
    21   186   185   ar
    22   186   188   ar
    23    49    48    1
    24   185   187   ar
    25    61    59    1
    26    44    45    1
    27    58    57    2
    28    45    48    1
    29    45    46    1
    30    57    56    1
    31   188   190   ar
    32    79    80   ar
    33    79    81   ar
    34    48    50    1
    35    59    56    1
    36    59    60    1
    37   158   157    2
    38   166   165    2
    39    64    63    1
    40    64    67    1
    41    47    46    2
    42    46    51   am
    43    80    82   ar
    44   187   189   ar
    45    56    55    1
    46    62    60    1
    47    81    83   ar
    48   190   189   ar
    49    67    68    1
    50   165   164    1
    51   157   156    1
    52   157   163   am
    53    32    33    2
    54    32    31    1
    55    22    23    1
    56    55    53   am
    57   191   192    1
    58   156   159    1
    59   156   155    1
    60   161   160    2
    61    51    52    1
    62   160   162   am
    63   160   159    1
    64    53    54    2
    65    53    52    1
    66    82    84   ar
    67   197   199   ar
    68   197   196   ar
    69    83    84   ar
    70   164   163    1
    71   164   167    1
    72    30    31    1
    73    30    24   am
    74    31    34    1
    75    23    24    1
    76    23    26    1
    77   195   192    1
    78   195   196    1
    79    24    25    2
    80    68    70   ar
    81    68    69   ar
    82    34    35    1
    83   192   193    1
    84   199   200   ar
    85    16    14    1
    86   196   198   ar
    87   193   194    2
    88    15    14    1
    89    70    72   ar
    90    69    71   ar
    91    14    13    1
    92   168   167    1
    93   168   169    1
    94   200   198   ar
    95   200   202   ar
    96    26    27    1
    97   198   201   ar
    98    35    36   ar
    99    35    37   ar
   100    36    38   ar
   101    72    73   ar
   102    98    97   ar
   103    98    96   ar
   104   202   204   ar
   105   171   169   ar
   106    71    73   ar
   107   201   203   ar
   108   169   170   ar
   109    13    10    1
   110    97    95   ar
   111   150   149    2
   112    96    94   ar
   113    27    28    1
   114    37    40   ar
   115    37    39   ar
   116   204   203   ar
   117     1     2    1
   118    38    39   ar
   119    40    42   ar
   120    10     9    1
   121    10    11    1
   122   149   148    1
   123    95    92   ar
   124     7     6    1
   125    94    92   ar
   126    94    93   ar
   127     2     5    1
   128     2     3    1
   129    28    29    1
   130    39    41   ar
   131   148   147    1
   132   148   151    1
   133    92    90   ar
   134     5     6    1
   135    93    91   ar
   136   120   119   ar
   137   120   118   ar
   138    12    11    2
   139   119   117   ar
   140    11    17   am
   141    42    43   ar
   142     6     8    1
   143     3     4    2
   144   118   116   ar
   145    90    91   ar
   146    90    89    1
   147   105   106    1
   148   105   104    1
   149    41    43   ar
   150   117   114   ar
   151   151   152    1
   152   153   152    2
   153    17    18    1
   154   152   154   am
   155   116   114   ar
   156   116   115   ar
   157   114   112   ar
   158    89    86    1
   159   115   113   ar
   160   104   103    1
   161   112   113   ar
   162   112   111    1
   163   138   137    1
   164    18    19    1
   165    18    21    1
   166    86    85    1
   167    86    87    1
   168   139   137    1
   169   111   108    1
   170   132   131    1
   171   130   131   ar
   172   130   128   ar
   173   145   144    1
   174    19    20    2
   175   137   134    1
   176   131   129   ar
   177   128   126   ar
   178   103   100    1
   179    88    87    2
   180   100    99    1
   181   100   101    1
   182   110   109    2
   183   108   109    1
   184   108   107    1
   185   144   146    1
   186   144   141    1
   187   134   133    1
   188   134   135    1
   189   129   127   ar
   190   126   127   ar
   191   126   125    1
   192   133   123   am
   193   136   135    2
   194   102   101    2
   195   142   143    2
   196   142   141    1
   197   141   140    1
   198   125   122    1
   199   123   124    2
   200   123   122    1
   201   122   121    1
