@<TRIPOS>MOLECULE
tmp/6ho7A00.pdb
 169 168 0 0 0
SMALL
GASTEIGER

@<TRIPOS>ATOM
      1  N        -35.1270    6.2960   -5.0350 N.3    64  LEU64      -0.1245
      2  CA       -33.8090    6.0360   -4.4090 C.3    64  LEU64       0.1561
      3  C        -33.9990    5.0870   -3.2150 C.2    64  LEU64       0.2260
      4  O        -33.1210    4.2440   -3.0130 O.2    64  LEU64      -0.2867
      5  CB       -33.2000    7.3930   -4.0310 C.3    64  LEU64       0.0270
      6  CG       -31.8240    7.3550   -3.3730 C.3    64  LEU64       0.0019
      7  CD1      -30.7570    6.8920   -4.3440 C.3    64  LEU64       0.0001
      8  CD2      -31.4790    8.7210   -2.8340 C.3    64  LEU64       0.0001
      9  N        -23.2600    3.4120   -8.4340 N.3    80  TRP80      -0.1241
     10  CA       -23.3180    4.8880   -8.2940 C.3    80  TRP80       0.1605
     11  C        -24.1140    5.4790   -9.4670 C.2    80  TRP80       0.2264
     12  O        -24.8850    6.4210   -9.2580 O.2    80  TRP80      -0.2867
     13  CB       -21.8980    5.4760   -8.1710 C.3    80  TRP80       0.0550
     14  CG       -21.3020    5.2520   -6.8120 C.ar   80  TRP80       0.0003
     15  CD1      -20.2090    4.4930   -6.5050 C.ar   80  TRP80       0.0946
     16  CD2      -21.7700    5.7920   -5.5580 C.ar   80  TRP80       0.0152
     17  NE1      -19.9670    4.5280   -5.1560 N.ar   80  TRP80      -0.2442
     18  CE2      -20.9180    5.3010   -4.5500 C.ar   80  TRP80       0.0810
     19  CE3      -22.8200    6.6450   -5.1930 C.ar   80  TRP80       0.0012
     20  CZ2      -21.0810    5.6360   -3.2110 C.ar   80  TRP80       0.0191
     21  CZ3      -22.9970    6.9630   -3.8680 C.ar   80  TRP80       0.0001
     22  CH2      -22.1340    6.4610   -2.8920 C.ar   80  TRP80       0.0015
     23  N        -27.8330    5.2080   -9.0670 N.3    83  GLY83      -0.1210
     24  CA       -28.2570    6.2150   -8.0790 C.3    83  GLY83       0.1956
     25  C        -28.3520    7.5980   -8.6960 C.2    83  GLY83       0.2611
     26  O        -29.4340    8.2470   -8.5750 O.2    83  GLY83      -0.2717
     27  N        -27.2800    8.0610   -9.3430 N.am   84  ILE84      -0.1979
     28  CA       -27.2820    9.4110   -9.9720 C.3    84  ILE84       0.1595
     29  C        -28.4350    9.4310  -10.9870 C.2    84  ILE84       0.2287
     30  O        -29.0760   10.5030  -11.1440 O.2    84  ILE84      -0.2864
     31  CB       -25.9240    9.7330  -10.6050 C.3    84  ILE84       0.0276
     32  CG1      -24.8100    9.7130   -9.5560 C.3    84  ILE84       0.0022
     33  CG2      -26.0100   11.0650  -11.2960 C.3    84  ILE84       0.0022
     34  CD1      -23.3900    9.7740  -10.0850 C.3    84  ILE84       0.0001
     35  N        -31.9420   10.7620  -10.2740 N.3    87  PHE87      -0.1241
     36  CA       -32.0350   12.2430  -10.3230 C.3    87  PHE87       0.1605
     37  C        -32.1060   12.6810  -11.7780 C.2    87  PHE87       0.2264
     38  O        -33.0070   13.4590  -12.0470 O.2    87  PHE87      -0.2867
     39  CB       -30.9430   12.9110   -9.4780 C.3    87  PHE87       0.0534
     40  CG       -31.1580   12.5900   -8.0290 C.ar   87  PHE87      -0.0203
     41  CD1      -32.1470   13.2240   -7.3200 C.ar   87  PHE87      -0.0042
     42  CD2      -30.4950   11.5430   -7.4270 C.ar   87  PHE87      -0.0042
     43  CE1      -32.4180   12.8730   -6.0120 C.ar   87  PHE87      -0.0003
     44  CE2      -30.7800   11.1790   -6.1240 C.ar   87  PHE87      -0.0003
     45  CZ       -31.7240   11.8640   -5.4090 C.ar   87  PHE87      -0.0000
     46  N        -35.9150   14.1960  -12.5340 N.3    91  PHE91      -0.1241
     47  CA       -35.9770   15.6640  -12.7700 C.3    91  PHE91       0.1605
     48  C        -36.0020   15.9320  -14.2790 C.2    91  PHE91       0.2264
     49  O        -36.6120   16.9440  -14.6900 O.2    91  PHE91      -0.2867
     50  CB       -34.7920   16.3680  -12.1030 C.3    91  PHE91       0.0534
     51  CG       -34.8710   16.3770  -10.6080 C.ar   91  PHE91      -0.0203
     52  CD1      -35.8870   17.0590   -9.9740 C.ar   91  PHE91      -0.0042
     53  CD2      -33.9380   15.7210   -9.8390 C.ar   91  PHE91      -0.0042
     54  CE1      -35.9810   17.0630   -8.5910 C.ar   91  PHE91      -0.0003
     55  CE2      -34.0390   15.7170   -8.4570 C.ar   91  PHE91      -0.0003
     56  CZ       -35.0720   16.3670   -7.8340 C.ar   91  PHE91      -0.0000
     57  N        -36.4160   21.9890   -0.6240 N.3   115  TRP115     -0.1241
     58  CA       -35.1990   21.5920   -1.3620 C.3   115  TRP115      0.1605
     59  C        -34.1380   21.2260   -0.3220 C.2   115  TRP115      0.2264
     60  O        -33.4550   20.1840   -0.4680 O.2   115  TRP115     -0.2867
     61  CB       -34.7410   22.6560   -2.3710 C.3   115  TRP115      0.0550
     62  CG       -33.6690   22.1100   -3.2580 C.ar  115  TRP115      0.0003
     63  CD1      -32.3240   22.3770   -3.2160 C.ar  115  TRP115      0.0946
     64  CD2      -33.8390   21.0870   -4.2580 C.ar  115  TRP115      0.0152
     65  NE1      -31.6550   21.6090   -4.1370 N.ar  115  TRP115     -0.2442
     66  CE2      -32.5590   20.8140   -4.7950 C.ar  115  TRP115      0.0810
     67  CE3      -34.9470   20.4030   -4.7630 C.ar  115  TRP115      0.0012
     68  CZ2      -32.3610   19.8690   -5.8010 C.ar  115  TRP115      0.0191
     69  CZ3      -34.7440   19.4720   -5.7550 C.ar  115  TRP115      0.0001
     70  CH2      -33.4700   19.1990   -6.2580 C.ar  115  TRP115      0.0015
     71  N        -32.2430   17.6070    0.0710 N.3   119  MET119     -0.1245
     72  CA       -30.7810   17.6450   -0.1810 C.3   119  MET119      0.1570
     73  C        -30.0710   17.1040    1.0660 C.2   119  MET119      0.2261
     74  O        -29.1210   16.3360    0.8950 O.2   119  MET119     -0.2867
     75  CB       -30.2730   19.0520   -0.5430 C.3   119  MET119      0.0387
     76  CG       -30.6070   19.4370   -1.9710 C.3   119  MET119      0.0595
     77  SD       -29.8230   18.3440   -3.2240 S.3   119  MET119     -0.1393
     78  CE       -28.1510   18.9930   -3.2800 C.3   119  MET119      0.0692
     79  N        -30.3670   13.2040    1.0000 N.3   122  TRP122     -0.1241
     80  CA       -29.6280   12.5670   -0.1270 C.3   122  TRP122      0.1605
     81  C        -28.1170   12.6040    0.1500 C.2   122  TRP122      0.2264
     82  O        -27.4420   11.5970   -0.0860 O.2   122  TRP122     -0.2867
     83  CB       -29.9980   13.2430   -1.4530 C.3   122  TRP122      0.0550
     84  CG       -31.4490   13.1060   -1.7980 C.ar  122  TRP122      0.0003
     85  CD1      -32.2810   12.0970   -1.4160 C.ar  122  TRP122      0.0946
     86  CD2      -32.2460   13.9860   -2.6200 C.ar  122  TRP122      0.0152
     87  NE1      -33.5410   12.3190   -1.8910 N.ar  122  TRP122     -0.2442
     88  CE2      -33.5510   13.4660   -2.6360 C.ar  122  TRP122      0.0810
     89  CE3      -32.0020   15.1800   -3.3100 C.ar  122  TRP122      0.0012
     90  CZ2      -34.5920   14.0770   -3.3310 C.ar  122  TRP122      0.0191
     91  CZ3      -33.0410   15.8000   -3.9870 C.ar  122  TRP122      0.0001
     92  CH2      -34.3200   15.2530   -3.9860 C.ar  122  TRP122      0.0015
     93  N        -27.5570    9.9790    2.9080 N.3   125  TYR125     -0.1227
     94  CA       -27.6010    8.6240    2.3120 C.3   125  TYR125      0.1736
     95  C        -26.2600    8.3980    1.6030 C.2   125  TYR125      0.2596
     96  O        -25.6580    7.3470    1.8360 O.2   125  TYR125     -0.2718
     97  CB       -28.8220    8.4070    1.4040 C.3   125  TYR125      0.0548
     98  CG       -28.7850    7.0450    0.7520 C.ar  125  TYR125     -0.0200
     99  CD1      -28.8240    5.8880    1.5140 C.ar  125  TYR125     -0.0009
    100  CD2      -28.5990    6.8980   -0.6030 C.ar  125  TYR125     -0.0009
    101  CE1      -28.7290    4.6260    0.9540 C.ar  125  TYR125      0.0417
    102  CE2      -28.5270    5.6410   -1.1870 C.ar  125  TYR125      0.0417
    103  CZ       -28.5920    4.4990   -0.4100 C.ar  125  TYR125      0.1957
    104  OH       -28.5000    3.2720   -0.9950 O.3   125  TYR125     -0.2866
    105  N        -25.8000    9.3690    0.8000 N.am  126  THR126     -0.1953
    106  CA       -24.5070    9.3240    0.0550 C.3   126  THR126      0.1897
    107  C        -23.3550    9.0690    1.0290 C.2   126  THR126      0.2313
    108  O        -22.4860    8.2240    0.7210 O.2   126  THR126     -0.2863
    109  CB       -24.2160   10.6150   -0.7240 C.3   126  THR126      0.1794
    110  OG1      -25.2630   10.8790   -1.6580 O.3   126  THR126     -0.2208
    111  CG2      -22.8880   10.5390   -1.4470 C.3   126  THR126      0.0378
    112  N        -23.0550   16.0670   -4.2380 N.3   153  ASN153     -0.1240
    113  CA       -24.5110   16.3160   -4.4020 C.3   153  ASN153      0.1653
    114  C        -24.7260   17.7250   -4.9660 C.2   153  ASN153      0.2266
    115  O        -25.5960   17.8680   -5.8340 O.2   153  ASN153     -0.2867
    116  CB       -25.2890   16.0970   -3.1060 C.3   153  ASN153      0.1155
    117  CG       -25.6240   14.6360   -2.8600 C.2   153  ASN153      0.2627
    118  OD1      -26.7680   14.2520   -3.0280 O.2   153  ASN153     -0.2716
    119  ND2      -24.6700   13.8310   -2.4150 N.am  153  ASN153     -0.0877
    120  N        -23.9800   17.6470   -8.5960 N.3   156  ASN156     -0.1225
    121  CA       -25.0740   17.0270   -9.4020 C.3   156  ASN156      0.1785
    122  C        -26.2570   18.0240   -9.5500 C.2   156  ASN156      0.2597
    123  O        -26.7620   18.1760  -10.6480 O.2   156  ASN156     -0.2718
    124  CB       -25.5120   15.6730   -8.8420 C.3   156  ASN156      0.1169
    125  CG       -24.4610   14.6020   -9.0030 C.2   156  ASN156      0.2627
    126  OD1      -23.2940   14.9290   -9.2390 O.2   156  ASN156     -0.2716
    127  ND2      -24.8720   13.3410   -8.9020 N.am  156  ASN156     -0.0877
    128  N        -26.6520   18.7370   -8.4970 N.am  157  GLU157     -0.1979
    129  CA       -27.7340   19.7480   -8.5750 C.3   157  GLU157      0.1602
    130  C        -27.4190   20.7710   -9.6780 C.2   157  GLU157      0.2287
    131  O        -28.1730   20.8490  -10.6800 O.2   157  GLU157     -0.2864
    132  CB       -27.8540   20.4760   -7.2450 C.3   157  GLU157      0.0415
    133  CG       -29.0230   21.4270   -7.1930 C.3   157  GLU157      0.1163
    134  CD       -28.8830   22.3760   -6.0300 C.2   157  GLU157      0.3649
    135  OE1      -28.8370   21.8830   -4.8920 O.co2 157  GLU157     -0.2457
    136  OE2      -28.7520   23.5910   -6.2670 O.co2 157  GLU157     -0.2457
    137  N        -26.7840   18.9900  -13.4100 N.3   160  LEU160     -0.1231
    138  CA       -28.0380   18.4460  -14.0090 C.3   160  LEU160      0.1693
    139  C        -28.9120   19.6050  -14.4770 C.2   160  LEU160      0.2592
    140  O        -29.3290   19.5780  -15.6440 O.2   160  LEU160     -0.2718
    141  CB       -28.7720   17.5460  -13.0110 C.3   160  LEU160      0.0284
    142  CG       -28.1550   16.1610  -12.7960 C.3   160  LEU160      0.0019
    143  CD1      -28.9500   15.4010  -11.7520 C.3   160  LEU160      0.0001
    144  CD2      -28.1000   15.3350  -14.0760 C.3   160  LEU160      0.0001
    145  N        -29.1230   20.5990  -13.6250 N.am  161  PHE161     -0.1976
    146  CA       -30.0890   21.7000  -13.8760 C.3   161  PHE161      0.1639
    147  C        -29.5570   22.6330  -14.9830 C.2   161  PHE161      0.2290
    148  O        -30.3460   23.0660  -15.8500 O.2   161  PHE161     -0.2864
    149  CB       -30.4630   22.3730  -12.5490 C.3   161  PHE161      0.0560
    150  CG       -31.1380   21.4520  -11.5560 C.ar  161  PHE161     -0.0200
    151  CD1      -31.5990   20.1920  -11.9240 C.ar  161  PHE161     -0.0042
    152  CD2      -31.2950   21.8240  -10.2320 C.ar  161  PHE161     -0.0042
    153  CE1      -32.1860   19.3380  -10.9930 C.ar  161  PHE161     -0.0003
    154  CE2      -31.9000   20.9810   -9.3110 C.ar  161  PHE161     -0.0003
    155  CZ       -32.3490   19.7400   -9.6940 C.ar  161  PHE161     -0.0000
    156  N        -17.7750   11.1930   -9.2850 N.3   184  TRP184     -0.1241
    157  CA       -18.1220   10.4280   -8.0460 C.3   184  TRP184      0.1605
    158  C        -17.1120    9.2800   -7.8480 C.2   184  TRP184      0.2264
    159  O        -16.4400    9.2260   -6.8060 O.2   184  TRP184     -0.2867
    160  CB       -19.5750    9.9120   -8.0900 C.3   184  TRP184      0.0550
    161  CG       -20.5890   10.9950   -7.8660 C.ar  184  TRP184      0.0003
    162  CD1      -20.6860   12.1910   -8.5180 C.ar  184  TRP184      0.0946
    163  CD2      -21.6260   11.0110   -6.8730 C.ar  184  TRP184      0.0152
    164  NE1      -21.7290   12.9300   -8.0310 N.ar  184  TRP184     -0.2442
    165  CE2      -22.3070   12.2410   -7.0040 C.ar  184  TRP184      0.0810
    166  CE3      -22.0730   10.0910   -5.9180 C.ar  184  TRP184      0.0012
    167  CZ2      -23.3880   12.5750   -6.1930 C.ar  184  TRP184      0.0191
    168  CZ3      -23.1470   10.4200   -5.1240 C.ar  184  TRP184      0.0001
    169  CH2      -23.8120   11.6350   -5.2760 C.ar  184  TRP184      0.0015
@<TRIPOS>BOND
     1   148   147    2
     2   140   139    2
     3   147   146    1
     4    49    48    2
     5   139   138    1
     6   139   145   am
     7    48    47    1
     8   144   142    1
     9   138   137    1
    10   138   141    1
    11   146   145    1
    12   146   149    1
    13   141   142    1
    14   142   143    1
    15    47    46    1
    16    47    50    1
    17   149   150    1
    18    50    51    1
    19    38    37    2
    20   151   150   ar
    21   151   153   ar
    22    37    36    1
    23   150   152   ar
    24    33    31    1
    25    30    29    2
    26   153   155   ar
    27    29    28    1
    28   131   130    2
    29   123   122    2
    30    51    52   ar
    31    51    53   ar
    32    31    28    1
    33    31    32    1
    34    36    35    1
    35    36    39    1
    36   152   154   ar
    37    34    32    1
    38    52    54   ar
    39    28    27    1
    40    53    55   ar
    41   155   154   ar
    42   130   129    1
    43   122   121    1
    44   122   128   am
    45    39    40    1
    46    11    12    2
    47    11    10    1
    48   121   124    1
    49   121   120    1
    50    27    25   am
    51   156   157    1
    52   126   125    2
    53    23    24    1
    54   125   127   am
    55   125   124    1
    56    25    26    2
    57    25    24    1
    58    54    56   ar
    59   129   128    1
    60   129   132    1
    61   162   164   ar
    62   162   161   ar
    63    55    56   ar
    64     9    10    1
    65    10    13    1
    66    13    14    1
    67   160   157    1
    68   160   161    1
    69   157   158    1
    70   164   165   ar
    71    40    42   ar
    72    40    41   ar
    73   161   163   ar
    74   158   159    2
    75    42    44   ar
    76    41    43   ar
    77   132   133    1
    78   133   134    1
    79   165   163   ar
    80   165   167   ar
    81   163   166   ar
    82    14    15   ar
    83    14    16   ar
    84    15    17   ar
    85   136   134   ar
    86    70    68   ar
    87    70    69   ar
    88   167   169   ar
    89    44    45   ar
    90   134   135   ar
    91    43    45   ar
    92   166   168   ar
    93   115   114    2
    94    68    66   ar
    95    69    67   ar
    96    16    19   ar
    97    16    18   ar
    98   169   168   ar
    99    19    21   ar
   100    17    18   ar
   101     1     2    1
   102   114   113    1
   103    66    64   ar
   104    66    65   ar
   105    67    64   ar
   106    18    20   ar
   107     2     5    1
   108     2     3    1
   109   113   112    1
   110   113   116    1
   111     7     6    1
   112    64    62   ar
   113    65    63   ar
   114     5     6    1
   115    91    92   ar
   116    91    89   ar
   117    92    90   ar
   118    21    22   ar
   119     6     8    1
   120    90    88   ar
   121    89    86   ar
   122    78    77    1
   123    62    63   ar
   124    62    61    1
   125    77    76    1
   126     3     4    2
   127    20    22   ar
   128   116   117    1
   129   118   117    2
   130   117   119   am
   131    88    86   ar
   132    88    87   ar
   133    86    84   ar
   134    61    58    1
   135    76    75    1
   136    87    85   ar
   137    84    83    1
   138    84    85   ar
   139   110   109    1
   140    83    80    1
   141   111   109    1
   142    58    57    1
   143    58    59    1
   144   102   100   ar
   145   102   103   ar
   146   104   103    1
   147   109   106    1
   148   100    98   ar
   149    75    72    1
   150    60    59    2
   151   103   101   ar
   152    72    71    1
   153    72    73    1
   154    80    81    1
   155    80    79    1
   156    82    81    2
   157   106   105    1
   158   106   107    1
   159   108   107    2
   160    98    97    1
   161    98    99   ar
   162   105    95   am
   163    74    73    2
   164   101    99   ar
   165    97    94    1
   166    95    96    2
   167    95    94    1
   168    94    93    1
