@<TRIPOS>MOLECULE
tmp/6ho8A00.pdb
 169 168 0 0 0
SMALL
GASTEIGER

@<TRIPOS>ATOM
      1  N        -35.7060    6.8600   -5.1300 N.3    64  LEU64      -0.1245
      2  CA       -34.4140    6.6070   -4.4270 C.3    64  LEU64       0.1561
      3  C        -34.5910    5.5700   -3.2980 C.2    64  LEU64       0.2260
      4  O        -33.7580    4.6480   -3.2060 O.2    64  LEU64      -0.2867
      5  CB       -33.8500    7.9330   -3.9170 C.3    64  LEU64       0.0270
      6  CG       -32.4620    7.8150   -3.3000 C.3    64  LEU64       0.0019
      7  CD1      -31.4350    7.3480   -4.3290 C.3    64  LEU64       0.0001
      8  CD2      -32.0800    9.1630   -2.7230 C.3    64  LEU64       0.0001
      9  N        -23.7230    4.0700   -8.4200 N.3    77  TRP77      -0.1241
     10  CA       -23.8880    5.5480   -8.3320 C.3    77  TRP77       0.1605
     11  C        -24.6750    6.0580   -9.5370 C.2    77  TRP77       0.2264
     12  O        -25.5220    6.9520   -9.3350 O.2    77  TRP77      -0.2867
     13  CB       -22.5300    6.2330   -8.1740 C.3    77  TRP77       0.0550
     14  CG       -21.9390    5.9950   -6.8210 C.ar   77  TRP77       0.0003
     15  CD1      -20.8340    5.2540   -6.5300 C.ar   77  TRP77       0.0946
     16  CD2      -22.4140    6.5000   -5.5570 C.ar   77  TRP77       0.0152
     17  NE1      -20.5960    5.2440   -5.1810 N.ar   77  TRP77      -0.2442
     18  CE2      -21.5320    6.0170   -4.5590 C.ar   77  TRP77       0.0810
     19  CE3      -23.4800    7.3150   -5.1630 C.ar   77  TRP77       0.0012
     20  CZ2      -21.6800    6.3190   -3.2070 C.ar   77  TRP77       0.0191
     21  CZ3      -23.6430    7.5890   -3.8170 C.ar   77  TRP77       0.0001
     22  CH2      -22.7490    7.1100   -2.8610 C.ar   77  TRP77       0.0015
     23  N        -28.3620    5.6020   -9.0720 N.3    80  GLY80      -0.1210
     24  CA       -28.8790    6.5770   -8.1010 C.3    80  GLY80       0.1956
     25  C        -28.9600    7.9910   -8.6780 C.2    80  GLY80       0.2611
     26  O        -30.0460    8.6180   -8.5960 O.2    80  GLY80      -0.2717
     27  N        -27.8830    8.5100   -9.2740 N.am   81  ILE81      -0.1979
     28  CA       -27.9670    9.8340   -9.9820 C.3    81  ILE81       0.1595
     29  C        -29.0810    9.8180  -11.0390 C.2    81  ILE81       0.2287
     30  O        -29.8010   10.8200  -11.2120 O.2    81  ILE81      -0.2864
     31  CB       -26.6080   10.2080  -10.5900 C.3    81  ILE81       0.0276
     32  CG1      -25.5380   10.2700   -9.4830 C.3    81  ILE81       0.0022
     33  CG2      -26.7830   11.4890  -11.3770 C.3    81  ILE81       0.0022
     34  CD1      -24.1180   10.4610   -9.9710 C.3    81  ILE81       0.0001
     35  N        -32.6130   11.0760  -10.4280 N.3    84  PHE84      -0.1241
     36  CA       -32.7860   12.5540  -10.3890 C.3    84  PHE84       0.1605
     37  C        -32.8250   13.1030  -11.8110 C.2    84  PHE84       0.2264
     38  O        -33.6920   13.9580  -12.1330 O.2    84  PHE84      -0.2867
     39  CB       -31.6760   13.1710   -9.5180 C.3    84  PHE84       0.0534
     40  CG       -31.8870   12.8540   -8.0640 C.ar   84  PHE84      -0.0203
     41  CD1      -32.7500   13.6140   -7.2930 C.ar   84  PHE84      -0.0042
     42  CD2      -31.2930   11.7350   -7.4890 C.ar   84  PHE84      -0.0042
     43  CE1      -33.0350   13.2570   -5.9750 C.ar   84  PHE84      -0.0003
     44  CE2      -31.5650   11.3860   -6.1710 C.ar   84  PHE84      -0.0003
     45  CZ       -32.4170   12.1710   -5.4000 C.ar   84  PHE84      -0.0000
     46  N        -36.4230   14.5780  -12.6860 N.3    88  PHE88      -0.1241
     47  CA       -36.4740   16.0550  -12.8880 C.3    88  PHE88       0.1605
     48  C        -36.5060   16.3550  -14.3900 C.2    88  PHE88       0.2264
     49  O        -37.1970   17.3350  -14.8500 O.2    88  PHE88      -0.2867
     50  CB       -35.3370   16.7110  -12.1020 C.3    88  PHE88       0.0534
     51  CG       -35.6330   16.7800  -10.6310 C.ar   88  PHE88      -0.0203
     52  CD1      -36.5530   17.7090  -10.1580 C.ar   88  PHE88      -0.0042
     53  CD2      -34.9670   16.0030   -9.7170 C.ar   88  PHE88      -0.0042
     54  CE1      -36.8320   17.8040   -8.8010 C.ar   88  PHE88      -0.0003
     55  CE2      -35.2680   16.0790   -8.3560 C.ar   88  PHE88      -0.0003
     56  CZ       -36.1950   16.9710   -7.9000 C.ar   88  PHE88      -0.0000
     57  N        -37.1470   22.4470   -0.7320 N.3   112  TRP112     -0.1241
     58  CA       -35.9100   22.0830   -1.4650 C.3   112  TRP112      0.1605
     59  C        -34.8310   21.7580   -0.4330 C.2   112  TRP112      0.2264
     60  O        -34.2310   20.6780   -0.4800 O.2   112  TRP112     -0.2867
     61  CB       -35.4650   23.1750   -2.4480 C.3   112  TRP112      0.0550
     62  CG       -34.3590   22.6270   -3.2880 C.ar  112  TRP112      0.0003
     63  CD1      -33.0190   22.8540   -3.1530 C.ar  112  TRP112      0.0946
     64  CD2      -34.4960   21.5940   -4.2760 C.ar  112  TRP112      0.0152
     65  NE1      -32.3300   22.1460   -4.1080 N.ar  112  TRP112     -0.2442
     66  CE2      -33.2010   21.3290   -4.7790 C.ar  112  TRP112      0.0810
     67  CE3      -35.5880   20.9200   -4.8270 C.ar  112  TRP112      0.0012
     68  CZ2      -32.9720   20.3640   -5.7640 C.ar  112  TRP112      0.0191
     69  CZ3      -35.3730   19.9940   -5.8250 C.ar  112  TRP112      0.0001
     70  CH2      -34.0770   19.7230   -6.2880 C.ar  112  TRP112      0.0015
     71  N        -32.8570   18.1690    0.0730 N.3   116  MET116     -0.1245
     72  CA       -31.3790   18.2090   -0.1600 C.3   116  MET116      0.1570
     73  C        -30.6590   17.6350    1.0790 C.2   116  MET116      0.2261
     74  O        -29.7020   16.8010    0.9190 O.2   116  MET116     -0.2867
     75  CB       -30.9360   19.6460   -0.4610 C.3   116  MET116      0.0387
     76  CG       -31.2170   20.0960   -1.8940 C.3   116  MET116      0.0595
     77  SD       -30.4530   19.0650   -3.2350 S.3   116  MET116     -0.1393
     78  CE       -28.7520   19.6330   -3.0690 C.3   116  MET116      0.0692
     79  N        -31.0540   13.8800    1.0160 N.3   119  TRP119     -0.1241
     80  CA       -30.3190   13.1930   -0.0940 C.3   119  TRP119      0.1605
     81  C        -28.8150   13.2190    0.1970 C.2   119  TRP119      0.2264
     82  O        -28.1040   12.2460   -0.1110 O.2   119  TRP119     -0.2867
     83  CB       -30.6730   13.8460   -1.4260 C.3   119  TRP119      0.0550
     84  CG       -32.1210   13.6560   -1.7610 C.ar  119  TRP119      0.0003
     85  CD1      -32.9030   12.5670   -1.4530 C.ar  119  TRP119      0.0946
     86  CD2      -32.9330   14.5270   -2.5550 C.ar  119  TRP119      0.0152
     87  NE1      -34.1630   12.7440   -1.9610 N.ar  119  TRP119     -0.2442
     88  CE2      -34.2190   13.9340   -2.6260 C.ar  119  TRP119      0.0810
     89  CE3      -32.7490   15.7900   -3.1320 C.ar  119  TRP119      0.0012
     90  CZ2      -35.2710   14.5340   -3.3150 C.ar  119  TRP119      0.0191
     91  CZ3      -33.7970   16.3820   -3.7990 C.ar  119  TRP119      0.0001
     92  CH2      -35.0260   15.7470   -3.9210 C.ar  119  TRP119      0.0015
     93  N        -28.1840   10.6830    2.9700 N.3   122  TYR122     -0.1227
     94  CA       -28.1630    9.3280    2.3390 C.3   122  TYR122      0.1736
     95  C        -26.8450    9.0900    1.5730 C.2   122  TYR122      0.2596
     96  O        -26.1710    8.0650    1.7220 O.2   122  TYR122     -0.2718
     97  CB       -29.3960    9.1330    1.4590 C.3   122  TYR122      0.0548
     98  CG       -29.3670    7.8140    0.7560 C.ar  122  TYR122     -0.0200
     99  CD1      -29.5890    6.6390    1.4560 C.ar  122  TYR122     -0.0009
    100  CD2      -29.0010    7.7250   -0.5680 C.ar  122  TYR122     -0.0009
    101  CE1      -29.5040    5.4070    0.8380 C.ar  122  TYR122      0.0417
    102  CE2      -28.9190    6.4970   -1.2060 C.ar  122  TYR122      0.0417
    103  CZ       -29.1790    5.3360   -0.5000 C.ar  122  TYR122      0.1957
    104  OH       -29.0770    4.1320   -1.1410 O.3   122  TYR122     -0.2866
    105  N        -26.4000   10.0560    0.7880 N.am  123  THR123     -0.1953
    106  CA       -25.1200    9.9410    0.0330 C.3   123  THR123      0.1897
    107  C        -23.9710    9.6950    1.0200 C.2   123  THR123      0.2313
    108  O        -23.0990    8.8160    0.7500 O.2   123  THR123     -0.2863
    109  CB       -24.8290   11.2320   -0.7620 C.3   123  THR123      0.1794
    110  OG1      -25.9210   11.5390   -1.6410 O.3   123  THR123     -0.2208
    111  CG2      -23.5310   11.1170   -1.5120 C.3   123  THR123      0.0378
    112  N        -23.7460   16.7210   -4.1680 N.3   150  ASN150     -0.1240
    113  CA       -25.2020   16.9290   -4.3450 C.3   150  ASN150      0.1653
    114  C        -25.4370   18.3300   -4.9150 C.2   150  ASN150      0.2266
    115  O        -26.3550   18.5200   -5.7030 O.2   150  ASN150     -0.2867
    116  CB       -25.9810   16.7580   -3.0460 C.3   150  ASN150      0.1155
    117  CG       -26.3950   15.3230   -2.7930 C.2   150  ASN150      0.2627
    118  OD1      -27.5850   15.0360   -2.7730 O.2   150  ASN150     -0.2716
    119  ND2      -25.4610   14.4480   -2.5120 N.am  150  ASN150     -0.0877
    120  N        -24.5710   18.3580   -8.5610 N.3   153  ASN153     -0.1225
    121  CA       -25.6290   17.6790   -9.3400 C.3   153  ASN153      0.1785
    122  C        -26.8090   18.6300   -9.4980 C.2   153  ASN153      0.2597
    123  O        -27.4180   18.6580  -10.5990 O.2   153  ASN153     -0.2718
    124  CB       -26.0250   16.3600   -8.7030 C.3   153  ASN153      0.1169
    125  CG       -25.0130   15.2810   -9.0480 C.2   153  ASN153      0.2627
    126  OD1      -23.8570   15.5820   -9.4060 O.2   153  ASN153     -0.2716
    127  ND2      -25.4310   14.0280   -8.9340 N.am  153  ASN153     -0.0877
    128  N        -27.1890   19.3280   -8.4190 N.am  154  GLU154     -0.1979
    129  CA       -28.3200   20.2930   -8.4870 C.3   154  GLU154      0.1602
    130  C        -28.0150   21.2810   -9.6450 C.2   154  GLU154      0.2287
    131  O        -28.8350   21.4550  -10.6000 O.2   154  GLU154     -0.2864
    132  CB       -28.4950   20.9680   -7.1320 C.3   154  GLU154      0.0415
    133  CG       -29.5080   22.0820   -7.1390 C.3   154  GLU154      0.1163
    134  CD       -29.4940   22.9730   -5.8990 C.2   154  GLU154      0.3649
    135  OE1      -29.5810   22.4500   -4.7880 O.co2 154  GLU154     -0.2457
    136  OE2      -29.4270   24.1850   -6.0550 O.co2 154  GLU154     -0.2457
    137  N        -27.3540   19.4790  -13.3690 N.3   157  LEU157     -0.1231
    138  CA       -28.6010   18.9100  -13.9670 C.3   157  LEU157      0.1693
    139  C        -29.4710   20.0620  -14.4590 C.2   157  LEU157      0.2592
    140  O        -29.9590   20.0370  -15.6030 O.2   157  LEU157     -0.2718
    141  CB       -29.3580   18.0690  -12.9440 C.3   157  LEU157      0.0284
    142  CG       -28.7530   16.6880  -12.6880 C.3   157  LEU157      0.0019
    143  CD1      -29.5170   15.9270  -11.6200 C.3   157  LEU157      0.0001
    144  CD2      -28.6680   15.8700  -13.9650 C.3   157  LEU157      0.0001
    145  N        -29.7340   21.0060  -13.5770 N.am  158  PHE158     -0.1976
    146  CA       -30.7210   22.0800  -13.8310 C.3   158  PHE158      0.1639
    147  C        -30.1940   23.0050  -14.9340 C.2   158  PHE158      0.2290
    148  O        -30.9750   23.4270  -15.7990 O.2   158  PHE158     -0.2864
    149  CB       -31.1020   22.7380  -12.4990 C.3   158  PHE158      0.0560
    150  CG       -31.7950   21.7830  -11.5530 C.ar  158  PHE158     -0.0200
    151  CD1      -32.2640   20.5410  -11.9820 C.ar  158  PHE158     -0.0042
    152  CD2      -31.9520   22.0950  -10.2190 C.ar  158  PHE158     -0.0042
    153  CE1      -32.8720   19.6560  -11.0990 C.ar  158  PHE158     -0.0003
    154  CE2      -32.6260   21.2470   -9.3470 C.ar  158  PHE158     -0.0003
    155  CZ       -33.0660   20.0190   -9.7820 C.ar  158  PHE158     -0.0000
    156  N        -18.2850   11.6950   -9.3190 N.3   181  TRP181     -0.1241
    157  CA       -18.7000   11.0160   -8.0710 C.3   181  TRP181      0.1605
    158  C        -17.7230    9.8670   -7.7850 C.2   181  TRP181      0.2264
    159  O        -17.1120    9.8570   -6.6900 O.2   181  TRP181     -0.2867
    160  CB       -20.1550   10.5560   -8.1620 C.3   181  TRP181      0.0550
    161  CG       -21.1620   11.6260   -7.8610 C.ar  181  TRP181      0.0003
    162  CD1      -21.3240   12.8310   -8.5010 C.ar  181  TRP181      0.0946
    163  CD2      -22.2100   11.5460   -6.8870 C.ar  181  TRP181      0.0152
    164  NE1      -22.3830   13.5050   -7.9530 N.ar  181  TRP181     -0.2442
    165  CE2      -22.9320   12.7590   -6.9550 C.ar  181  TRP181      0.0810
    166  CE3      -22.5620   10.5970   -5.9100 C.ar  181  TRP181      0.0012
    167  CZ2      -24.0000   13.0380   -6.0980 C.ar  181  TRP181      0.0191
    168  CZ3      -23.6440   10.8480   -5.1000 C.ar  181  TRP181      0.0001
    169  CH2      -24.3410   12.0590   -5.1850 C.ar  181  TRP181      0.0015
@<TRIPOS>BOND
     1   148   147    2
     2   140   139    2
     3   147   146    1
     4    49    48    2
     5   139   138    1
     6   139   145   am
     7    48    47    1
     8   138   137    1
     9   138   141    1
    10   144   142    1
    11   146   145    1
    12   146   149    1
    13   141   142    1
    14    47    46    1
    15    47    50    1
    16   142   143    1
    17   149   150    1
    18    38    37    2
    19    50    51    1
    20   151   150   ar
    21   151   153   ar
    22    37    36    1
    23   150   152   ar
    24    33    31    1
    25    30    29    2
    26   153   155   ar
    27    29    28    1
    28    51    52   ar
    29    51    53   ar
    30   131   130    2
    31   123   122    2
    32    31    28    1
    33    31    32    1
    34    35    36    1
    35    36    39    1
    36   152   154   ar
    37    52    54   ar
    38    28    27    1
    39    34    32    1
    40   155   154   ar
    41    53    55   ar
    42   130   129    1
    43    11    12    2
    44    11    10    1
    45    39    40    1
    46   122   121    1
    47   122   128   am
    48   126   125    2
    49   121   124    1
    50   121   120    1
    51   156   157    1
    52    27    25   am
    53    23    24    1
    54   125   127   am
    55   125   124    1
    56    54    56   ar
    57    25    26    2
    58    25    24    1
    59   162   164   ar
    60   162   161   ar
    61   129   128    1
    62   129   132    1
    63     9    10    1
    64    55    56   ar
    65    10    13    1
    66    13    14    1
    67   160   157    1
    68   160   161    1
    69   157   158    1
    70    40    42   ar
    71    40    41   ar
    72   164   165   ar
    73   161   163   ar
    74   158   159    2
    75    42    44   ar
    76    41    43   ar
    77   133   132    1
    78   133   134    1
    79   165   163   ar
    80   165   167   ar
    81   163   166   ar
    82    14    15   ar
    83    14    16   ar
    84    15    17   ar
    85    70    69   ar
    86    70    68   ar
    87    44    45   ar
    88   167   169   ar
    89   136   134   ar
    90    43    45   ar
    91   166   168   ar
    92   134   135   ar
    93    69    67   ar
    94    68    66   ar
    95   115   114    2
    96    16    19   ar
    97    16    18   ar
    98   169   168   ar
    99    17    18   ar
   100    19    21   ar
   101     1     2    1
   102   114   113    1
   103    67    64   ar
   104    66    64   ar
   105    66    65   ar
   106    18    20   ar
   107     2     5    1
   108     2     3    1
   109   113   112    1
   110   113   116    1
   111     7     6    1
   112    64    62   ar
   113    65    63   ar
   114    92    91   ar
   115    92    90   ar
   116     5     6    1
   117    21    22   ar
   118    91    89   ar
   119    90    88   ar
   120     6     8    1
   121     3     4    2
   122    62    63   ar
   123    62    61    1
   124    77    78    1
   125    77    76    1
   126    20    22   ar
   127    89    86   ar
   128   116   117    1
   129   117   118    2
   130   117   119   am
   131    88    86   ar
   132    88    87   ar
   133    86    84   ar
   134    61    58    1
   135    87    85   ar
   136    76    75    1
   137    84    85   ar
   138    84    83    1
   139   110   109    1
   140   111   109    1
   141    58    57    1
   142    58    59    1
   143    83    80    1
   144   102   100   ar
   145   102   103   ar
   146   104   103    1
   147   109   106    1
   148   100    98   ar
   149   103   101   ar
   150    60    59    2
   151    75    72    1
   152    72    71    1
   153    72    73    1
   154    82    81    2
   155    80    81    1
   156    80    79    1
   157   106   105    1
   158   106   107    1
   159   108   107    2
   160    98    99   ar
   161    98    97    1
   162   105    95   am
   163   101    99   ar
   164    74    73    2
   165    97    94    1
   166    95    96    2
   167    95    94    1
   168    94    93    1
