@<TRIPOS>MOLECULE
tmp/6ho9A00.pdb
 197 194 0 0 0
SMALL
GASTEIGER

@<TRIPOS>ATOM
      1  N          6.9550   35.6500    3.3390 N.3    63  LEU63      -0.1245
      2  CA         6.6960   34.3280    3.9580 C.3    63  LEU63       0.1561
      3  C          5.7020   34.4850    5.1180 C.2    63  LEU63       0.2260
      4  O          4.7800   33.6600    5.2230 O.2    63  LEU63      -0.2867
      5  CB         8.0380   33.7420    4.4050 C.3    63  LEU63       0.0270
      6  CG         7.9950   32.3290    4.9430 C.3    63  LEU63       0.0019
      7  CD1        7.5860   31.3510    3.8370 C.3    63  LEU63       0.0001
      8  CD2        9.3500   31.9450    5.5340 C.3    63  LEU63       0.0001
      9  N          2.1390   34.6960    3.6270 N.3    66  LEU66      -0.1231
     10  CA         1.6860   33.3240    3.3060 C.3    66  LEU66       0.1693
     11  C          1.2070   32.5890    4.5510 C.2    66  LEU66       0.2591
     12  O          0.2000   31.8780    4.4590 O.2    66  LEU66      -0.2718
     13  CB         2.8600   32.5390    2.7170 C.3    66  LEU66       0.0284
     14  CG         2.7900   32.2630    1.2340 C.3    66  LEU66       0.0019
     15  CD1        3.9610   31.3610    0.8520 C.3    66  LEU66       0.0001
     16  CD2        1.4390   31.6270    0.8670 C.3    66  LEU66       0.0001
     17  N          1.9840   32.6510    5.6290 N.am   67  ALA67      -0.1980
     18  CA         1.7600   31.9250    6.8980 C.3    67  ALA67       0.1597
     19  C          0.4450   32.3900    7.5300 C.2    67  ALA67       0.2287
     20  O         -0.1380   31.5970    8.2540 O.2    67  ALA67      -0.2864
     21  CB         2.9010   32.1580    7.8570 C.3    67  ALA67       0.0319
     22  N          1.4530   23.7640   -1.0530 N.3    74  MET74      -0.1230
     23  CA         1.7290   24.5510    0.1690 C.3    74  MET74       0.1702
     24  C          3.2640   24.7760    0.2460 C.2    74  MET74       0.2592
     25  O          3.7350   25.9360    0.4270 O.2    74  MET74      -0.2718
     26  CB         1.2430   23.8040    1.4220 C.3    74  MET74       0.0401
     27  CG         1.6660   24.4670    2.7380 C.3    74  MET74       0.0596
     28  SD         1.1330   23.6050    4.3040 S.3    74  MET74      -0.1393
     29  CE         2.0340   22.0500    4.2680 C.3    74  MET74       0.0692
     30  N          4.0520   23.7280    0.0300 N.am   75  TRP75      -0.1976
     31  CA         5.5330   23.8690    0.1230 C.3    75  TRP75       0.1640
     32  C          6.0140   24.6720   -1.0870 C.2    75  TRP75       0.2290
     33  O          6.8910   25.5040   -0.9380 O.2    75  TRP75      -0.2864
     34  CB         6.2340   22.5120    0.2720 C.3    75  TRP75       0.0576
     35  CG         5.9840   21.9100    1.6200 C.ar   75  TRP75       0.0006
     36  CD1        5.1640   20.8630    1.9000 C.ar   75  TRP75       0.0946
     37  CD2        6.5130   22.3380    2.8800 C.ar   75  TRP75       0.0152
     38  NE1        5.1660   20.5960    3.2440 N.ar   75  TRP75      -0.2442
     39  CE2        5.9550   21.4990    3.8780 C.ar   75  TRP75       0.0810
     40  CE3        7.3570   23.3570    3.2780 C.ar   75  TRP75       0.0012
     41  CZ2        6.2810   21.6020    5.2270 C.ar   75  TRP75       0.0191
     42  CZ3        7.6310   23.4930    4.6250 C.ar   75  TRP75       0.0001
     43  CH2        7.1180   22.6190    5.5780 C.ar   75  TRP75       0.0015
     44  N          5.6040   28.4010   -0.6560 N.3    78  GLY78      -0.1210
     45  CA         6.6350   28.8810    0.2880 C.3    78  GLY78       0.1956
     46  C          8.0410   28.9530   -0.3030 C.2    78  GLY78       0.2611
     47  O          8.7060   30.0100   -0.2000 O.2    78  GLY78      -0.2717
     48  N          8.5200   27.8960   -0.9460 N.am   79  ILE79      -0.1979
     49  CA         9.8740   27.9360   -1.5780 C.3    79  ILE79       0.1595
     50  C          9.8830   29.0630   -2.6200 C.2    79  ILE79       0.2287
     51  O         10.9130   29.7320   -2.8050 O.2    79  ILE79      -0.2864
     52  CB        10.2440   26.5620   -2.1830 C.3    79  ILE79       0.0276
     53  CG1       10.3200   25.4900   -1.0830 C.3    79  ILE79       0.0022
     54  CG2       11.5070   26.7020   -2.9900 C.3    79  ILE79       0.0022
     55  CD1       10.4240   24.0770   -1.6190 C.3    79  ILE79       0.0001
     56  N         11.2590   32.5620   -1.9470 N.3    82  PHE82      -0.1241
     57  CA        12.7210   32.7590   -1.9940 C.3    82  PHE82       0.1605
     58  C         13.2030   32.7990   -3.4460 C.2    82  PHE82       0.2264
     59  O         14.0560   33.6350   -3.8020 O.2    82  PHE82      -0.2867
     60  CB        13.3920   31.6760   -1.1450 C.3    82  PHE82       0.0534
     61  CG        13.0420   31.8680    0.3020 C.ar   82  PHE82      -0.0203
     62  CD1       13.6930   32.8040    1.0730 C.ar   82  PHE82      -0.0042
     63  CD2       11.9850   31.1640    0.8660 C.ar   82  PHE82      -0.0042
     64  CE1       13.3180   33.0040    2.4030 C.ar   82  PHE82      -0.0003
     65  CE2       11.6060   31.3730    2.1720 C.ar   82  PHE82      -0.0003
     66  CZ        12.2510   32.3330    2.9330 C.ar   82  PHE82      -0.0000
     67  N         14.7170   36.4990   -4.1850 N.3    86  PHE86      -0.1241
     68  CA        16.1840   36.5720   -4.4240 C.3    86  PHE86       0.1605
     69  C         16.4050   36.5430   -5.9280 C.2    86  PHE86       0.2264
     70  O         17.3570   37.1520   -6.4040 O.2    86  PHE86      -0.2867
     71  CB        16.9400   35.4890   -3.6450 C.3    86  PHE86       0.0534
     72  CG        16.9860   35.7830   -2.1650 C.ar   86  PHE86      -0.0203
     73  CD1       17.9560   36.6390   -1.6470 C.ar   86  PHE86      -0.0042
     74  CD2       16.1450   35.1400   -1.2950 C.ar   86  PHE86      -0.0042
     75  CE1       18.0140   36.9140   -0.2830 C.ar   86  PHE86      -0.0003
     76  CE2       16.1630   35.4540    0.0720 C.ar   86  PHE86      -0.0003
     77  CZ        17.0790   36.3400    0.5720 C.ar   86  PHE86      -0.0000
     78  N         22.5580   37.2310    7.7070 N.3   110  TRP110     -0.1241
     79  CA        22.2370   35.9780    6.9850 C.3   110  TRP110      0.1605
     80  C         21.9210   34.8840    8.0120 C.2   110  TRP110      0.2264
     81  O         20.8520   34.2270    7.9580 O.2   110  TRP110     -0.2867
     82  CB        23.3590   35.5670    6.0170 C.3   110  TRP110      0.0550
     83  CG        22.8190   34.4900    5.1340 C.ar  110  TRP110      0.0003
     84  CD1       23.0460   33.1460    5.2250 C.ar  110  TRP110      0.0946
     85  CD2       21.7780   34.6620    4.1500 C.ar  110  TRP110      0.0152
     86  NE1       22.3080   32.4890    4.2710 N.ar  110  TRP110     -0.2442
     87  CE2       21.5100   33.3860    3.6180 C.ar  110  TRP110      0.0810
     88  CE3       21.1210   35.7710    3.6200 C.ar  110  TRP110      0.0012
     89  CZ2       20.5530   33.1990    2.6140 C.ar  110  TRP110      0.0191
     90  CZ3       20.2000   35.6050    2.6070 C.ar  110  TRP110      0.0001
     91  CH2       19.9100   34.3270    2.1330 C.ar  110  TRP110      0.0015
     92  N         18.3030   32.9800    8.4630 N.3   114  MET114     -0.1245
     93  CA        18.3090   31.5020    8.1940 C.3   114  MET114      0.1570
     94  C         17.7580   30.7860    9.4390 C.2   114  MET114      0.2261
     95  O         16.9510   29.8400    9.3260 O.2   114  MET114     -0.2867
     96  CB        19.6900   30.9720    7.8110 C.3   114  MET114      0.0387
     97  CG        20.1440   31.3370    6.4270 C.3   114  MET114      0.0595
     98  SD        19.1140   30.6080    5.0980 S.3   114  MET114     -0.1393
     99  CE        19.7930   28.9320    5.1540 C.3   114  MET114      0.0692
    100  N         13.9320   31.2030    9.3750 N.3   117  TRP117     -0.1241
    101  CA        13.2800   30.4150    8.2970 C.3   117  TRP117      0.1605
    102  C         13.3190   28.9080    8.5960 C.2   117  TRP117      0.2264
    103  O         12.3250   28.2050    8.3370 O.2   117  TRP117     -0.2867
    104  CB        13.9080   30.7460    6.9600 C.3   117  TRP117      0.0550
    105  CG        13.7690   32.1980    6.6450 C.ar  117  TRP117      0.0003
    106  CD1       12.7330   33.0190    7.0190 C.ar  117  TRP117      0.0946
    107  CD2       14.6150   32.9790    5.7810 C.ar  117  TRP117      0.0152
    108  NE1       12.9310   34.2720    6.4830 N.ar  117  TRP117     -0.2442
    109  CE2       14.0770   34.2900    5.7590 C.ar  117  TRP117      0.0810
    110  CE3       15.8220   32.7650    5.1230 C.ar  117  TRP117      0.0012
    111  CZ2       14.6320   35.3180    4.9910 C.ar  117  TRP117      0.0191
    112  CZ3       16.4130   33.8000    4.4400 C.ar  117  TRP117      0.0001
    113  CH2       15.8280   35.0590    4.3890 C.ar  117  TRP117      0.0015
    114  N         10.6870   28.3240   11.3220 N.3   120  TYR120     -0.1227
    115  CA         9.3540   28.3210   10.6830 C.3   120  TYR120      0.1736
    116  C          9.1210   26.9720    9.9810 C.2   120  TYR120      0.2596
    117  O          8.0550   26.3470   10.0750 O.2   120  TYR120     -0.2718
    118  CB         9.1850   29.5360    9.7730 C.3   120  TYR120      0.0548
    119  CG         7.8040   29.5410    9.2140 C.ar  120  TYR120     -0.0200
    120  CD1        6.6970   29.5990   10.0540 C.ar  120  TYR120     -0.0009
    121  CD2        7.5990   29.3650    7.8600 C.ar  120  TYR120     -0.0009
    122  CE1        5.4130   29.5210    9.5500 C.ar  120  TYR120      0.0417
    123  CE2        6.3160   29.2880    7.3460 C.ar  120  TYR120      0.0417
    124  CZ         5.2280   29.3450    8.1910 C.ar  120  TYR120      0.1957
    125  OH         3.9750   29.2690    7.6450 O.3   120  TYR120     -0.2866
    126  N         10.0990   26.4970    9.2290 N.am  121  THR121     -0.1953
    127  CA         9.9950   25.2140    8.5010 C.3   121  THR121      0.1897
    128  C          9.7420   24.0790    9.5050 C.2   121  THR121      0.2313
    129  O          8.8670   23.2250    9.2920 O.2   121  THR121     -0.2863
    130  CB        11.2870   24.9290    7.6930 C.3   121  THR121      0.1794
    131  OG1       11.5420   25.9760    6.7380 O.3   121  THR121     -0.2208
    132  CG2       11.2040   23.6260    6.9490 C.3   121  THR121      0.0378
    133  N          6.2120   24.0180   10.8990 N.3   124  VAL124     -0.1245
    134  CA         5.2120   23.4770    9.9410 C.3   124  VAL124      0.1561
    135  C          5.3480   21.9580    9.8760 C.2   124  VAL124      0.2260
    136  O          4.3340   21.2480    9.8890 O.2   124  VAL124     -0.2867
    137  CB         5.3520   24.1540    8.5650 C.3   124  VAL124      0.0252
    138  CG1        4.3830   23.5350    7.5630 C.3   124  VAL124      0.0019
    139  CG2        5.0980   25.6410    8.7150 C.3   124  VAL124      0.0019
    140  N         16.7910   23.8910    4.2530 N.3   148  ASN148     -0.1240
    141  CA        17.0640   25.3350    4.1070 C.3   148  ASN148      0.1653
    142  C         18.4560   25.5780    3.5140 C.2   148  ASN148      0.2266
    143  O         18.5780   26.4360    2.6240 O.2   148  ASN148     -0.2867
    144  CB        16.8840   26.0730    5.4280 C.3   148  ASN148      0.1155
    145  CG        15.4300   26.4670    5.6370 C.2   148  ASN148      0.2627
    146  OD1       15.1330   27.6540    5.5140 O.2   148  ASN148     -0.2716
    147  ND2       14.5490   25.5630    6.0360 N.am  148  ASN148     -0.0877
    148  N         18.4560   24.7470   -0.1240 N.3   151  ASN151     -0.1225
    149  CA        17.8340   25.8050   -0.9480 C.3   151  ASN151      0.1785
    150  C         18.7860   26.9580   -1.1160 C.2   151  ASN151      0.2597
    151  O         18.8750   27.5160   -2.2420 O.2   151  ASN151     -0.2718
    152  CB        16.5150   26.2650   -0.3380 C.3   151  ASN151      0.1169
    153  CG        15.4170   25.2750   -0.5820 C.2   151  ASN151      0.2627
    154  OD1       15.6290   24.0730   -0.8800 O.2   151  ASN151     -0.2716
    155  ND2       14.1920   25.7760   -0.4080 N.am  151  ASN151     -0.0877
    156  N         19.4830   27.3600   -0.0320 N.am  152  GLU152     -0.1979
    157  CA        20.4440   28.4660   -0.1040 C.3   152  GLU152      0.1602
    158  C         21.4890   28.1710   -1.2010 C.2   152  GLU152      0.2287
    159  O         21.6680   28.9930   -2.1680 O.2   152  GLU152     -0.2864
    160  CB        21.1160   28.6310    1.2660 C.3   152  GLU152      0.0415
    161  CG        22.2200   29.6340    1.2360 C.3   152  GLU152      0.1163
    162  CD        23.1320   29.6410    2.4660 C.2   152  GLU152      0.3649
    163  OE1       22.6610   29.7540    3.5640 O.co2 152  GLU152     -0.2457
    164  OE2       24.3560   29.5680    2.2700 O.co2 152  GLU152     -0.2457
    165  N         19.5510   27.3860   -4.9660 N.3   155  LEU155     -0.1231
    166  CA        18.9760   28.6150   -5.5880 C.3   155  LEU155      0.1693
    167  C         20.1080   29.5190   -6.0440 C.2   155  LEU155      0.2592
    168  O         20.1030   30.0220   -7.2260 O.2   155  LEU155     -0.2718
    169  CB        18.0560   29.3610   -4.6370 C.3   155  LEU155      0.0284
    170  CG        16.7360   28.6870   -4.3070 C.3   155  LEU155      0.0019
    171  CD1       16.0100   29.5150   -3.2610 C.3   155  LEU155      0.0001
    172  CD2       15.8470   28.5010   -5.5610 C.3   155  LEU155      0.0001
    173  N         21.0800   29.8010   -5.1750 N.am  156  PHE156     -0.1976
    174  CA        22.1120   30.8250   -5.4770 C.3   156  PHE156      0.1639
    175  C         23.0540   30.2960   -6.5750 C.2   156  PHE156      0.2290
    176  O         23.4770   31.0600   -7.4700 O.2   156  PHE156     -0.2864
    177  CB        22.8000   31.2460   -4.1850 C.3   156  PHE156      0.0560
    178  CG        21.8360   31.8850   -3.1980 C.ar  156  PHE156     -0.0200
    179  CD1       20.5400   32.2490   -3.5710 C.ar  156  PHE156     -0.0042
    180  CD2       22.2180   32.1430   -1.8970 C.ar  156  PHE156     -0.0042
    181  CE1       19.6490   32.8530   -2.6790 C.ar  156  PHE156     -0.0003
    182  CE2       21.3400   32.7610   -1.0060 C.ar  156  PHE156     -0.0003
    183  CZ        20.0620   33.1080   -1.3900 C.ar  156  PHE156     -0.0000
    184  N         11.8910   18.4660   -0.9140 N.3   179  TRP179     -0.1241
    185  CA        11.1960   18.8480    0.3620 C.3   179  TRP179      0.1605
    186  C         10.0250   17.8970    0.6210 C.2   179  TRP179      0.2264
    187  O          9.9470   17.2940    1.7010 O.2   179  TRP179     -0.2867
    188  CB        10.7160   20.2870    0.3390 C.3   179  TRP179      0.0550
    189  CG        11.7890   21.2980    0.6080 C.ar  179  TRP179      0.0003
    190  CD1       12.9650   21.4690   -0.0820 C.ar  179  TRP179      0.0946
    191  CD2       11.7130   22.3620    1.5720 C.ar  179  TRP179      0.0152
    192  NE1       13.6410   22.5340    0.4370 N.ar  179  TRP179     -0.2442
    193  CE2       12.9090   23.0870    1.4630 C.ar  179  TRP179      0.0810
    194  CE3       10.7970   22.7110    2.5850 C.ar  179  TRP179      0.0012
    195  CZ2       13.2070   24.1720    2.2860 C.ar  179  TRP179      0.0191
    196  CZ3       11.0640   23.8190    3.3490 C.ar  179  TRP179      0.0001
    197  CH2       12.2840   24.4770    3.2590 C.ar  179  TRP179      0.0015
@<TRIPOS>BOND
     1   176   175    2
     2   168   167    2
     3   175   174    1
     4    70    69    2
     5   167   166    1
     6   167   173   am
     7    69    68    1
     8   166   165    1
     9   166   169    1
    10   172   170    1
    11   174   173    1
    12   174   177    1
    13   169   170    1
    14    68    67    1
    15    68    71    1
    16   170   171    1
    17   177   178    1
    18    59    58    2
    19    71    72    1
    20   179   178   ar
    21   179   181   ar
    22    58    57    1
    23   178   180   ar
    24    54    52    1
    25    51    50    2
    26   181   183   ar
    27    50    49    1
    28   151   150    2
    29    52    49    1
    30    52    53    1
    31   159   158    2
    32    72    73   ar
    33    72    74   ar
    34    57    56    1
    35    57    60    1
    36   180   182   ar
    37    73    75   ar
    38    55    53    1
    39    49    48    1
    40   183   182   ar
    41    74    76   ar
    42   158   157    1
    43    60    61    1
    44   150   149    1
    45   150   156   am
    46    32    33    2
    47    32    31    1
    48    22    23    1
    49   149   152    1
    50   149   148    1
    51    48    46   am
    52   184   185    1
    53   154   153    2
    54    44    45    1
    55   153   155   am
    56   153   152    1
    57    46    47    2
    58    46    45    1
    59    75    77   ar
    60   157   156    1
    61   157   160    1
    62   190   192   ar
    63   190   189   ar
    64    30    31    1
    65    30    24   am
    66    76    77   ar
    67    31    34    1
    68    23    24    1
    69    23    26    1
    70    24    25    2
    71    34    35    1
    72    61    63   ar
    73    61    62   ar
    74   188   185    1
    75   188   189    1
    76   185   186    1
    77   192   193   ar
    78   189   191   ar
    79   186   187    2
    80    15    14    1
    81    63    65   ar
    82    16    14    1
    83    62    64   ar
    84    14    13    1
    85   161   160    1
    86   161   162    1
    87    26    27    1
    88   193   191   ar
    89   193   195   ar
    90   191   194   ar
    91    35    36   ar
    92    35    37   ar
    93    36    38   ar
    94    91    90   ar
    95    91    89   ar
    96    65    66   ar
    97   164   162   ar
    98   195   197   ar
    99    64    66   ar
   100   162   163   ar
   101   194   196   ar
   102    90    88   ar
   103    89    87   ar
   104   143   142    2
   105    13    10    1
   106    27    28    1
   107    37    40   ar
   108    37    39   ar
   109    38    39   ar
   110   197   196   ar
   111    40    42   ar
   112    10     9    1
   113    10    11    1
   114     1     2    1
   115   142   141    1
   116    87    85   ar
   117    87    86   ar
   118    88    85   ar
   119     7     6    1
   120    39    41   ar
   121     2     5    1
   122     2     3    1
   123   141   140    1
   124   141   144    1
   125    85    83   ar
   126    29    28    1
   127    86    84   ar
   128   113   112   ar
   129   113   111   ar
   130     5     6    1
   131   112   110   ar
   132    12    11    2
   133    11    17   am
   134    42    43   ar
   135     6     8    1
   136   111   109   ar
   137    98    99    1
   138    98    97    1
   139     3     4    2
   140   110   107   ar
   141    83    84   ar
   142    83    82    1
   143    41    43   ar
   144   144   145    1
   145   146   145    2
   146    17    18    1
   147   145   147   am
   148   109   107   ar
   149   109   108   ar
   150   107   105   ar
   151    82    79    1
   152    97    96    1
   153   108   106   ar
   154   105   104    1
   155   105   106   ar
   156   131   130    1
   157    18    19    1
   158    18    21    1
   159   132   130    1
   160   104   101    1
   161    79    78    1
   162    79    80    1
   163   123   121   ar
   164   123   124   ar
   165    19    20    2
   166   138   137    1
   167   125   124    1
   168   130   127    1
   169    96    93    1
   170   121   119   ar
   171    81    80    2
   172   124   122   ar
   173    93    92    1
   174    93    94    1
   175   101   102    1
   176   101   100    1
   177   103   102    2
   178   127   126    1
   179   127   128    1
   180   137   139    1
   181   137   134    1
   182   119   118    1
   183   119   120   ar
   184   126   116   am
   185   129   128    2
   186    95    94    2
   187   122   120   ar
   188   118   115    1
   189   135   136    2
   190   135   134    1
   191   134   133    1
   192   116   117    2
   193   116   115    1
   194   115   114    1
