@<TRIPOS>MOLECULE
tmp/6hoaA00.pdb
 216 213 0 0 0
SMALL
GASTEIGER

@<TRIPOS>ATOM
      1  N        -35.6280    7.0200   -5.0530 N.3    64  LEU64      -0.1245
      2  CA       -34.3530    6.7550   -4.3620 C.3    64  LEU64       0.1561
      3  C        -34.5820    5.7450   -3.2280 C.2    64  LEU64       0.2260
      4  O        -33.7370    4.8610   -3.0360 O.2    64  LEU64      -0.2867
      5  CB       -33.7940    8.0940   -3.8700 C.3    64  LEU64       0.0270
      6  CG       -32.4370    8.0400   -3.1940 C.3    64  LEU64       0.0019
      7  CD1      -31.3770    7.4990   -4.1610 C.3    64  LEU64       0.0001
      8  CD2      -32.0400    9.4290   -2.7090 C.3    64  LEU64       0.0001
      9  N        -34.6030    2.2210   -4.7930 N.3    67  LEU67      -0.1231
     10  CA       -33.2330    1.7310   -5.0300 C.3    67  LEU67       0.1693
     11  C        -32.6580    1.1780   -3.7400 C.2    67  LEU67       0.2591
     12  O        -32.0520    0.0970   -3.7650 O.2    67  LEU67      -0.2718
     13  CB       -32.3620    2.9190   -5.4440 C.3    67  LEU67       0.0284
     14  CG       -32.4750    3.3680   -6.8740 C.3    67  LEU67       0.0019
     15  CD1      -31.2410    4.2230   -7.1800 C.3    67  LEU67       0.0001
     16  CD2      -32.5730    2.1850   -7.8170 C.3    67  LEU67       0.0001
     17  N        -32.7840    1.9640   -2.6730 N.am   68  ALA68      -0.1980
     18  CA       -32.1910    1.6560   -1.3580 C.3    68  ALA68       0.1597
     19  C        -32.6830    0.2600   -0.9580 C.2    68  ALA68       0.2287
     20  O        -31.8770   -0.5440   -0.5050 O.2    68  ALA68      -0.2864
     21  CB       -32.5690    2.7290   -0.3670 C.3    68  ALA68       0.0319
     22  N        -31.4190   -2.8180   -4.2240 N.3    71  PRO71      -0.2102
     23  CA       -30.1420   -2.4240   -4.8190 C.3    71  PRO71       0.1504
     24  C        -29.8280   -3.2880   -6.0470 C.2    71  PRO71       0.2575
     25  O        -30.0930   -4.4520   -6.0210 O.2    71  PRO71      -0.2718
     26  CB       -29.1360   -2.6710   -3.6760 C.3    71  PRO71       0.0282
     27  CG       -29.7950   -3.7680   -2.8510 C.3    71  PRO71       0.0208
     28  CD       -31.2630   -3.3850   -2.8690 C.3    71  PRO71       0.0893
     29  N        -29.2720   -2.6970   -7.0950 N.am   72  ALA72      -0.1980
     30  CA       -28.8870   -3.4300   -8.3200 C.3    72  ALA72       0.1597
     31  C        -27.6040   -4.2050   -8.0550 C.2    72  ALA72       0.2287
     32  O        -26.8450   -3.8450   -7.1300 O.2    72  ALA72      -0.2864
     33  CB       -28.7290   -2.4860   -9.4750 C.3    72  ALA72       0.0319
     34  N        -23.7500    1.6270   -9.9490 N.3    79  MET79      -0.1230
     35  CA       -24.5440    1.8920   -8.7340 C.3    79  MET79       0.1702
     36  C        -24.7690    3.4120   -8.6300 C.2    79  MET79       0.2592
     37  O        -25.9310    3.8260   -8.5090 O.2    79  MET79      -0.2718
     38  CB       -23.8250    1.3980   -7.4770 C.3    79  MET79       0.0401
     39  CG       -24.6460    1.5470   -6.2290 C.3    79  MET79       0.0596
     40  SD       -24.0810    2.8080   -5.0610 S.3    79  MET79      -0.1393
     41  CE       -22.6750    2.0140   -4.2870 C.3    79  MET79       0.0692
     42  N        -23.7100    4.2170   -8.6550 N.am   80  TRP80      -0.1976
     43  CA       -23.9110    5.6840   -8.4920 C.3    80  TRP80       0.1640
     44  C        -24.6960    6.2270   -9.6900 C.2    80  TRP80       0.2290
     45  O        -25.5780    7.1170   -9.4900 O.2    80  TRP80      -0.2864
     46  CB       -22.5720    6.4150   -8.2830 C.3    80  TRP80       0.0576
     47  CG       -22.0070    6.1430   -6.9150 C.ar   80  TRP80       0.0006
     48  CD1      -20.9190    5.3750   -6.6240 C.ar   80  TRP80       0.0946
     49  CD2      -22.5140    6.5820   -5.6460 C.ar   80  TRP80       0.0152
     50  NE1      -20.7110    5.2990   -5.2760 N.ar   80  TRP80      -0.2442
     51  CE2      -21.6610    6.0440   -4.6430 C.ar   80  TRP80       0.0810
     52  CE3      -23.6020    7.3460   -5.2360 C.ar   80  TRP80       0.0012
     53  CZ2      -21.8390    6.2960   -3.2840 C.ar   80  TRP80       0.0191
     54  CZ3      -23.7990    7.5600   -3.8850 C.ar   80  TRP80       0.0001
     55  CH2      -22.9260    7.0590   -2.9290 C.ar   80  TRP80       0.0015
     56  N        -27.1320    4.7450  -11.2370 N.3    82  THR82      -0.1203
     57  CA       -28.5460    4.4820  -10.9750 C.3    82  THR82       0.1994
     58  C        -29.1360    5.5270  -10.0480 C.2    82  THR82       0.2618
     59  O        -30.2670    5.9620  -10.2660 O.2    82  THR82      -0.2717
     60  CB       -28.7220    3.0340  -10.4860 C.3    82  THR82       0.1784
     61  OG1      -28.0490    2.1680  -11.4070 O.3    82  THR82      -0.2211
     62  CG2      -30.1820    2.6690  -10.3850 C.3    82  THR82       0.0376
     63  N        -28.3920    5.9750   -9.0350 N.am   83  GLY83      -0.1942
     64  CA       -28.8850    6.9930   -8.1030 C.3    83  GLY83       0.2014
     65  C        -28.9810    8.3400   -8.7630 C.2    83  GLY83       0.2638
     66  O        -30.0120    9.0190   -8.6390 O.2    83  GLY83      -0.2714
     67  N        -27.9290    8.7770   -9.4430 N.am   84  ILE84      -0.1977
     68  CA       -28.0020   10.1220  -10.1060 C.3    84  ILE84       0.1596
     69  C        -29.1520   10.0780  -11.1150 C.2    84  ILE84       0.2287
     70  O        -29.8320   11.0670  -11.3430 O.2    84  ILE84      -0.2864
     71  CB       -26.6430   10.4550  -10.7400 C.3    84  ILE84       0.0276
     72  CG1      -25.5280   10.5290   -9.6870 C.3    84  ILE84       0.0022
     73  CG2      -26.7460   11.6980  -11.5800 C.3    84  ILE84       0.0022
     74  CD1      -24.1670   10.6680  -10.2480 C.3    84  ILE84       0.0001
     75  N        -32.5990   11.4060  -10.2890 N.3    87  PHE87      -0.1241
     76  CA       -32.7970   12.8540  -10.3500 C.3    87  PHE87       0.1605
     77  C        -32.8490   13.3320  -11.7930 C.2    87  PHE87       0.2264
     78  O        -33.7220   14.1580  -12.1480 O.2    87  PHE87      -0.2867
     79  CB       -31.7150   13.5150   -9.4930 C.3    87  PHE87       0.0534
     80  CG       -31.9030   13.1440   -8.0510 C.ar   87  PHE87      -0.0203
     81  CD1      -32.8920   13.7490   -7.2810 C.ar   87  PHE87      -0.0042
     82  CD2      -31.1890   12.0810   -7.5000 C.ar   87  PHE87      -0.0042
     83  CE1      -33.1020   13.3750   -5.9620 C.ar   87  PHE87      -0.0003
     84  CE2      -31.4010   11.7310   -6.1870 C.ar   87  PHE87      -0.0003
     85  CZ       -32.3680   12.3510   -5.4320 C.ar   87  PHE87      -0.0000
     86  N        -36.6140   14.8760  -12.4960 N.3    91  PHE91      -0.1241
     87  CA       -36.6640   16.3370  -12.7300 C.3    91  PHE91       0.1605
     88  C        -36.6640   16.5610  -14.2510 C.2    91  PHE91       0.2264
     89  O        -37.2710   17.5300  -14.7350 O.2    91  PHE91      -0.2867
     90  CB       -35.5430   17.0150  -11.9440 C.3    91  PHE91       0.0534
     91  CG       -35.8490   17.0750  -10.4740 C.ar   91  PHE91      -0.0203
     92  CD1      -36.6790   18.0940  -10.0080 C.ar   91  PHE91      -0.0042
     93  CD2      -35.2540   16.2340   -9.5670 C.ar   91  PHE91      -0.0042
     94  CE1      -37.0040   18.1640   -8.6550 C.ar   91  PHE91      -0.0003
     95  CE2      -35.5670   16.3040   -8.2030 C.ar   91  PHE91      -0.0003
     96  CZ       -36.4300   17.2740   -7.7600 C.ar   91  PHE91      -0.0000
     97  N        -37.2510   22.6310   -0.5790 N.3   115  TRP115     -0.1241
     98  CA       -36.0050   22.2720   -1.3030 C.3   115  TRP115      0.1605
     99  C        -34.9190   21.9280   -0.2950 C.2   115  TRP115      0.2264
    100  O        -34.2630   20.8870   -0.4020 O.2   115  TRP115     -0.2867
    101  CB       -35.5780   23.3630   -2.2880 C.3   115  TRP115      0.0550
    102  CG       -34.5220   22.8170   -3.1880 C.ar  115  TRP115      0.0003
    103  CD1      -33.1790   23.0380   -3.1170 C.ar  115  TRP115      0.0946
    104  CD2      -34.7240   21.8170   -4.2040 C.ar  115  TRP115      0.0152
    105  NE1      -32.5330   22.2870   -4.0700 N.ar  115  TRP115     -0.2442
    106  CE2      -33.4540   21.5380   -4.7540 C.ar  115  TRP115      0.0810
    107  CE3      -35.8500   21.1840   -4.7300 C.ar  115  TRP115      0.0012
    108  CZ2      -33.2940   20.5620   -5.7450 C.ar  115  TRP115      0.0191
    109  CZ3      -35.6940   20.2700   -5.7540 C.ar  115  TRP115      0.0001
    110  CH2      -34.4290   19.9760   -6.2590 C.ar  115  TRP115      0.0015
    111  N        -32.9860   18.3180    0.0950 N.3   119  MET119     -0.1245
    112  CA       -31.5200   18.2660   -0.1610 C.3   119  MET119      0.1570
    113  C        -30.7990   17.7410    1.0840 C.2   119  MET119      0.2261
    114  O        -29.8700   16.9760    0.9330 O.2   119  MET119     -0.2867
    115  CB       -30.9890   19.6500   -0.5470 C.3   119  MET119      0.0387
    116  CG       -31.3880   20.1080   -1.9210 C.3   119  MET119      0.0595
    117  SD       -30.7170   19.0920   -3.2920 S.3   119  MET119     -0.1393
    118  CE       -28.9880   19.6190   -3.2720 C.3   119  MET119      0.0692
    119  N        -31.2400   13.9240    1.0260 N.3   122  TRP122     -0.1241
    120  CA       -30.4550   13.2670   -0.0360 C.3   122  TRP122      0.1605
    121  C        -28.9470   13.2800    0.2790 C.2   122  TRP122      0.2264
    122  O        -28.2460   12.3180    0.0210 O.2   122  TRP122     -0.2867
    123  CB       -30.8080   13.9370   -1.3690 C.3   122  TRP122      0.0550
    124  CG       -32.2670   13.7920   -1.7060 C.ar  122  TRP122      0.0003
    125  CD1      -33.0910   12.7810   -1.3210 C.ar  122  TRP122      0.0946
    126  CD2      -33.0390   14.6380   -2.5650 C.ar  122  TRP122      0.0152
    127  NE1      -34.3430   12.9630   -1.8560 N.ar  122  TRP122     -0.2442
    128  CE2      -34.3620   14.1010   -2.5950 C.ar  122  TRP122      0.0810
    129  CE3      -32.8080   15.8480   -3.2320 C.ar  122  TRP122      0.0012
    130  CZ2      -35.3850   14.6850   -3.3250 C.ar  122  TRP122      0.0191
    131  CZ3      -33.8420   16.4250   -3.9340 C.ar  122  TRP122      0.0001
    132  CH2      -35.1140   15.8680   -3.9590 C.ar  122  TRP122      0.0015
    133  N        -28.2300   10.7040    2.9840 N.3   125  TYR125     -0.1227
    134  CA       -28.2130    9.3330    2.4420 C.3   125  TYR125      0.1736
    135  C        -26.9250    9.1060    1.6490 C.2   125  TYR125      0.2596
    136  O        -26.2610    8.0670    1.7790 O.2   125  TYR125     -0.2718
    137  CB       -29.4680    9.0190    1.6250 C.3   125  TYR125      0.0548
    138  CG       -29.5320    7.6060    1.1450 C.ar  125  TYR125     -0.0200
    139  CD1      -29.2170    6.5390    1.9560 C.ar  125  TYR125     -0.0009
    140  CD2      -29.9470    7.3200   -0.1370 C.ar  125  TYR125     -0.0009
    141  CE1      -29.2940    5.2300    1.5100 C.ar  125  TYR125      0.0417
    142  CE2      -30.0000    6.0130   -0.6020 C.ar  125  TYR125      0.0417
    143  CZ       -29.6720    4.9630    0.2210 C.ar  125  TYR125      0.1957
    144  OH       -29.7280    3.6550   -0.2320 O.3   125  TYR125     -0.2866
    145  N        -26.5360   10.0880    0.8360 N.am  126  THR126     -0.1953
    146  CA       -25.2690   10.0230    0.1100 C.3   126  THR126      0.1897
    147  C        -24.1340    9.7570    1.1140 C.2   126  THR126      0.2313
    148  O        -23.2900    8.9010    0.8510 O.2   126  THR126     -0.2863
    149  CB       -25.0150   11.3260   -0.6810 C.3   126  THR126      0.1794
    150  OG1      -26.1140   11.5710   -1.5800 O.3   126  THR126     -0.2208
    151  CG2      -23.7260   11.2410   -1.4460 C.3   126  THR126      0.0378
    152  N        -24.0840    6.1820    2.5130 N.3   129  VAL129     -0.1245
    153  CA       -23.5450    5.1930    1.5620 C.3   129  VAL129      0.1561
    154  C        -22.0340    5.3630    1.4350 C.2   129  VAL129      0.2260
    155  O        -21.3360    4.3680    1.4380 O.2   129  VAL129     -0.2867
    156  CB       -24.2960    5.2240    0.2190 C.3   129  VAL129      0.0252
    157  CG1      -23.7240    4.2580   -0.7990 C.3   129  VAL129      0.0019
    158  CG2      -25.7660    4.9460    0.4590 C.3   129  VAL129      0.0019
    159  N        -23.9250   16.8160   -4.2230 N.3   153  ASN153     -0.1240
    160  CA       -25.3680   17.0560   -4.3630 C.3   153  ASN153      0.1653
    161  C        -25.5840   18.4530   -4.9390 C.2   153  ASN153      0.2266
    162  O        -26.4520   18.6410   -5.8160 O.2   153  ASN153     -0.2867
    163  CB       -26.1290   16.8510   -3.0470 C.3   153  ASN153      0.1155
    164  CG       -26.5660   15.4210   -2.8210 C.2   153  ASN153      0.2627
    165  OD1      -27.7680   15.1440   -3.0340 O.2   153  ASN153     -0.2716
    166  ND2      -25.6670   14.5710   -2.4170 N.am  153  ASN153     -0.0877
    167  N        -24.7350   18.4990   -8.5590 N.3   156  ASN156     -0.1225
    168  CA       -25.7870   17.8830   -9.3900 C.3   156  ASN156      0.1785
    169  C        -26.9650   18.8240   -9.5460 C.2   156  ASN156      0.2597
    170  O        -27.5460   18.9370  -10.6710 O.2   156  ASN156     -0.2718
    171  CB       -26.2560   16.5770   -8.7890 C.3   156  ASN156      0.1169
    172  CG       -25.2500   15.4660   -9.0330 C.2   156  ASN156      0.2627
    173  OD1      -24.0620   15.6920   -9.3650 O.2   156  ASN156     -0.2716
    174  ND2      -25.7080   14.2290   -8.9140 N.am  156  ASN156     -0.0877
    175  N        -27.3600   19.4980   -8.4700 N.am  157  GLU157     -0.1979
    176  CA       -28.4830   20.4570   -8.5540 C.3   157  GLU157      0.1602
    177  C        -28.1800   21.5070   -9.6370 C.2   157  GLU157      0.2287
    178  O        -28.9770   21.6960  -10.6040 O.2   157  GLU157     -0.2864
    179  CB       -28.6210   21.1720   -7.1930 C.3   157  GLU157      0.0415
    180  CG       -29.6880   22.2520   -7.1980 C.3   157  GLU157      0.1163
    181  CD       -29.6800   23.1410   -5.9630 C.2   157  GLU157      0.3649
    182  OE1      -29.7760   22.6280   -4.8740 O.co2 157  GLU157     -0.2457
    183  OE2      -29.5090   24.3750   -6.1330 O.co2 157  GLU157     -0.2457
    184  N        -27.4110   19.5880  -13.3850 N.3   160  LEU160     -0.1231
    185  CA       -28.6440   19.0250  -14.0020 C.3   160  LEU160      0.1693
    186  C        -29.5620   20.1520  -14.4370 C.2   160  LEU160      0.2592
    187  O        -30.0780   20.1310  -15.5820 O.2   160  LEU160     -0.2718
    188  CB       -29.3580   18.1100  -13.0070 C.3   160  LEU160      0.0284
    189  CG       -28.7120   16.7490  -12.7510 C.3   160  LEU160      0.0019
    190  CD1      -29.4980   16.0350  -11.6780 C.3   160  LEU160      0.0001
    191  CD2      -28.6330   15.9190  -14.0310 C.3   160  LEU160      0.0001
    192  N        -29.8270   21.1300  -13.5850 N.am  161  PHE161     -0.1976
    193  CA       -30.8450   22.1590  -13.8700 C.3   161  PHE161      0.1639
    194  C        -30.3230   23.1070  -14.9450 C.2   161  PHE161      0.2290
    195  O        -31.1430   23.5130  -15.7800 O.2   161  PHE161     -0.2864
    196  CB       -31.3180   22.8320  -12.5680 C.3   161  PHE161      0.0560
    197  CG       -31.9370   21.8560  -11.5880 C.ar  161  PHE161     -0.0200
    198  CD1      -32.2580   20.5400  -11.9130 C.ar  161  PHE161     -0.0042
    199  CD2      -32.2220   22.2530  -10.2950 C.ar  161  PHE161     -0.0042
    200  CE1      -32.8300   19.6470  -11.0000 C.ar  161  PHE161     -0.0003
    201  CE2      -32.7880   21.3620   -9.3760 C.ar  161  PHE161     -0.0003
    202  CZ       -33.0730   20.0700   -9.7100 C.ar  161  PHE161     -0.0000
    203  N        -18.5260   11.9340   -9.3970 N.3   184  TRP184     -0.1241
    204  CA       -18.8890   11.2080   -8.1420 C.3   184  TRP184      0.1605
    205  C        -17.9230   10.0420   -7.9130 C.2   184  TRP184      0.2264
    206  O        -17.3430    9.9130   -6.7990 O.2   184  TRP184     -0.2867
    207  CB       -20.3360   10.7250   -8.2000 C.3   184  TRP184      0.0550
    208  CG       -21.3170   11.8000   -7.8760 C.ar  184  TRP184      0.0003
    209  CD1      -21.5130   12.9880   -8.5370 C.ar  184  TRP184      0.0946
    210  CD2      -22.3870   11.7040   -6.9210 C.ar  184  TRP184      0.0152
    211  NE1      -22.5710   13.6550   -7.9880 N.ar  184  TRP184     -0.2442
    212  CE2      -23.1130   12.9030   -6.9800 C.ar  184  TRP184      0.0810
    213  CE3      -22.7510   10.7430   -5.9680 C.ar  184  TRP184      0.0012
    214  CZ2      -24.2030   13.1650   -6.1310 C.ar  184  TRP184      0.0191
    215  CZ3      -23.8070   11.0070   -5.1490 C.ar  184  TRP184      0.0001
    216  CH2      -24.4780   12.2040   -5.1820 C.ar  184  TRP184      0.0015
@<TRIPOS>BOND
     1   195   194    2
     2   187   186    2
     3   194   193    1
     4    89    88    2
     5   186   185    1
     6   186   192   am
     7    88    87    1
     8   191   189    1
     9   185   184    1
    10   185   188    1
    11   193   192    1
    12   193   196    1
    13   188   189    1
    14   189   190    1
    15    87    86    1
    16    87    90    1
    17   196   197    1
    18    78    77    2
    19    90    91    1
    20   198   197   ar
    21   198   200   ar
    22    77    76    1
    23   197   199   ar
    24    73    71    1
    25    61    60    1
    26    70    69    2
    27    56    57    1
    28    69    68    1
    29   200   202   ar
    30    57    60    1
    31    57    58    1
    32    71    68    1
    33    71    72    1
    34   170   169    2
    35   178   177    2
    36    60    62    1
    37    91    92   ar
    38    91    93   ar
    39    76    75    1
    40    76    79    1
    41   199   201   ar
    42    59    58    2
    43    74    72    1
    44    68    67    1
    45    58    63   am
    46    92    94   ar
    47    34    35    1
    48   202   201   ar
    49    44    45    2
    50    44    43    1
    51   177   176    1
    52    93    95   ar
    53   169   168    1
    54   169   175   am
    55    79    80    1
    56    33    30    1
    57    67    65   am
    58   203   204    1
    59   168   171    1
    60   168   167    1
    61   173   172    2
    62    63    64    1
    63   172   174   am
    64   172   171    1
    65    65    66    2
    66    65    64    1
    67    35    36    1
    68    35    38    1
    69    94    96   ar
    70    42    36   am
    71    42    43    1
    72    36    37    2
    73   176   175    1
    74   176   179    1
    75   209   211   ar
    76   209   208   ar
    77    43    46    1
    78    30    31    1
    79    30    29    1
    80    46    47    1
    81    95    96   ar
    82   207   204    1
    83   207   208    1
    84   204   205    1
    85    31    32    2
    86    80    82   ar
    87    80    81   ar
    88   211   212   ar
    89   205   206    2
    90   208   210   ar
    91    16    14    1
    92    82    84   ar
    93    38    39    1
    94    81    83   ar
    95   180   179    1
    96   180   181    1
    97    15    14    1
    98    29    24   am
    99   212   210   ar
   100   212   214   ar
   101   210   213   ar
   102    47    48   ar
   103    47    49   ar
   104    14    13    1
   105    48    50   ar
   106   110   109   ar
   107   110   108   ar
   108    39    40    1
   109    84    85   ar
   110   183   181   ar
   111   214   216   ar
   112    24    25    2
   113    24    23    1
   114   213   215   ar
   115   181   182   ar
   116    83    85   ar
   117   162   161    2
   118   109   107   ar
   119   108   106   ar
   120    49    52   ar
   121    49    51   ar
   122    13    10    1
   123    50    51   ar
   124    52    54   ar
   125   216   215   ar
   126    40    41    1
   127     1     2    1
   128    10     9    1
   129    10    11    1
   130   161   160    1
   131    23    22    1
   132    23    26    1
   133   106   104   ar
   134   106   105   ar
   135   107   104   ar
   136    51    53   ar
   137   160   159    1
   138   160   163    1
   139     2     5    1
   140     2     3    1
   141    22    28    1
   142   104   102   ar
   143     7     6    1
   144   105   103   ar
   145   132   131   ar
   146   132   130   ar
   147   131   129   ar
   148    54    55   ar
   149     5     6    1
   150    12    11    2
   151    11    17   am
   152    26    27    1
   153   130   128   ar
   154   117   118    1
   155   117   116    1
   156    53    55   ar
   157   129   126   ar
   158     3     4    2
   159     6     8    1
   160   102   103   ar
   161   102   101    1
   162   163   164    1
   163   165   164    2
   164    28    27    1
   165   164   166   am
   166    17    18    1
   167   128   126   ar
   168   128   127   ar
   169   126   124   ar
   170   101    98    1
   171   116   115    1
   172   127   125   ar
   173   124   123    1
   174   124   125   ar
   175   150   149    1
   176   151   149    1
   177   123   120    1
   178    18    19    1
   179    18    21    1
   180    98    97    1
   181    98    99    1
   182    19    20    2
   183   157   156    1
   184   149   146    1
   185   142   140   ar
   186   142   143   ar
   187   115   112    1
   188   100    99    2
   189   144   143    1
   190   112   111    1
   191   112   113    1
   192   140   138   ar
   193   120   121    1
   194   120   119    1
   195   122   121    2
   196   146   145    1
   197   146   147    1
   198   156   158    1
   199   156   153    1
   200   143   141   ar
   201   145   135   am
   202   148   147    2
   203   114   113    2
   204   138   137    1
   205   138   139   ar
   206   154   155    2
   207   154   153    1
   208   141   139   ar
   209   153   152    1
   210   137   134    1
   211   135   136    2
   212   135   134    1
   213   134   133    1
