@<TRIPOS>MOLECULE
tmp/6hobA00.pdb
 216 213 0 0 0
SMALL
GASTEIGER

@<TRIPOS>ATOM
      1  N          6.9570   35.5610    3.2670 N.3    64  LEU64      -0.1245
      2  CA         6.7020   34.2610    3.9260 C.3    64  LEU64       0.1561
      3  C          5.6780   34.4600    5.0550 C.2    64  LEU64       0.2260
      4  O          4.8270   33.5670    5.2360 O.2    64  LEU64      -0.2867
      5  CB         8.0380   33.6810    4.4230 C.3    64  LEU64       0.0270
      6  CG         8.0300   32.2490    4.9620 C.3    64  LEU64       0.0019
      7  CD1        7.7200   31.2210    3.8790 C.3    64  LEU64       0.0001
      8  CD2        9.3990   31.9480    5.5800 C.3    64  LEU64       0.0001
      9  N          2.1890   34.5710    3.4800 N.3    67  LEU67      -0.1231
     10  CA         1.7080   33.1990    3.1890 C.3    67  LEU67       0.1693
     11  C          1.2640   32.4900    4.4690 C.2    67  LEU67       0.2591
     12  O          0.2080   31.8290    4.4320 O.2    67  LEU67      -0.2718
     13  CB         2.8250   32.3710    2.5580 C.3    67  LEU67       0.0284
     14  CG         3.1150   32.6010    1.0890 C.3    67  LEU67       0.0019
     15  CD1        4.2280   31.6630    0.6720 C.3    67  LEU67       0.0001
     16  CD2        1.8680   32.3480    0.2470 C.3    67  LEU67       0.0001
     17  N          2.0870   32.5250    5.5170 N.am   68  ALA68      -0.1980
     18  CA         1.7850   31.9260    6.8430 C.3    68  ALA68       0.1597
     19  C          0.4020   32.3970    7.3330 C.2    68  ALA68       0.2287
     20  O         -0.3230   31.5870    7.9090 O.2    68  ALA68      -0.2864
     21  CB         2.8570   32.3020    7.8350 C.3    68  ALA68       0.0319
     22  N         -3.1940   31.0730    4.4820 N.3    71  PRO71      -0.2102
     23  CA        -3.0640   29.7290    3.9050 C.3    71  PRO71       0.1504
     24  C         -3.7110   29.6050    2.5080 C.2    71  PRO71       0.2575
     25  O         -4.8880   29.8980    2.3940 O.2    71  PRO71      -0.2718
     26  CB        -3.7950   28.8420    4.9370 C.3    71  PRO71       0.0282
     27  CG        -4.6070   29.8140    5.7820 C.3    71  PRO71       0.0208
     28  CD        -3.7310   31.0510    5.8540 C.3    71  PRO71       0.0893
     29  N         -2.9610   29.1780    1.4790 N.am   72  ALA72      -0.1980
     30  CA        -3.5150   28.8280    0.1480 C.3    72  ALA72       0.1597
     31  C         -4.3150   27.5290    0.2740 C.2    72  ALA72       0.2287
     32  O         -3.9670   26.6630    1.1120 O.2    72  ALA72      -0.2864
     33  CB        -2.4440   28.7240   -0.9140 C.3    72  ALA72       0.0319
     34  N          1.5320   23.7280   -1.2450 N.3    79  MET79      -0.1230
     35  CA         1.7700   24.5240   -0.0170 C.3    79  MET79       0.1702
     36  C          3.2980   24.7350    0.1010 C.2    79  MET79       0.2592
     37  O          3.7570   25.8970    0.2660 O.2    79  MET79      -0.2718
     38  CB         1.2300   23.8140    1.2380 C.3    79  MET79       0.0401
     39  CG         1.7810   24.3910    2.5500 C.3    79  MET79       0.0596
     40  SD         1.2230   23.6050    4.1320 S.3    79  MET79      -0.1393
     41  CE         2.2400   22.1240    4.1860 C.3    79  MET79       0.0692
     42  N          4.0770   23.6610   -0.0020 N.am   80  TRP80      -0.1976
     43  CA         5.5570   23.7850    0.1180 C.3    80  TRP80       0.1640
     44  C          6.1000   24.5960   -1.0690 C.2    80  TRP80       0.2290
     45  O          6.9420   25.4530   -0.8660 O.2    80  TRP80      -0.2864
     46  CB         6.2270   22.4150    0.2780 C.3    80  TRP80       0.0576
     47  CG         5.9690   21.8130    1.6250 C.ar   80  TRP80       0.0006
     48  CD1        5.1340   20.7670    1.8950 C.ar   80  TRP80       0.0946
     49  CD2        6.4700   22.2590    2.8980 C.ar   80  TRP80       0.0152
     50  NE1        5.1140   20.5080    3.2430 N.ar   80  TRP80      -0.2442
     51  CE2        5.9160   21.4040    3.8860 C.ar   80  TRP80       0.0810
     52  CE3        7.3030   23.2990    3.3220 C.ar   80  TRP80       0.0012
     53  CZ2        6.2140   21.5460    5.2430 C.ar   80  TRP80       0.0191
     54  CZ3        7.5730   23.4500    4.6650 C.ar   80  TRP80       0.0001
     55  CH2        7.0220   22.5870    5.6080 C.ar   80  TRP80       0.0015
     56  N          4.6910   27.1020   -2.6350 N.3    82  THR82      -0.1203
     57  CA         4.4620   28.5400   -2.4210 C.3    82  THR82       0.1994
     58  C          5.5290   29.1070   -1.5270 C.2    82  THR82       0.2618
     59  O          5.9610   30.2610   -1.7570 O.2    82  THR82      -0.2717
     60  CB         3.0400   28.8170   -1.8970 C.3    82  THR82       0.1784
     61  OG1        2.8900   28.3340   -0.5540 O.3    82  THR82      -0.2211
     62  CG2        2.0440   28.2310   -2.8500 C.3    82  THR82       0.0376
     63  N          5.9480   28.3370   -0.5080 N.am   83  GLY83      -0.1942
     64  CA         6.9980   28.8060    0.4030 C.3    83  GLY83       0.2014
     65  C          8.3460   28.8960   -0.2720 C.2    83  GLY83       0.2638
     66  O          9.0400   29.9320   -0.1510 O.2    83  GLY83      -0.2714
     67  N          8.7850   27.8450   -0.9360 N.am   84  ILE84      -0.1977
     68  CA        10.0850   27.9040   -1.6460 C.3    84  ILE84       0.1596
     69  C         10.0340   29.0480   -2.6510 C.2    84  ILE84       0.2287
     70  O         11.0430   29.7220   -2.8630 O.2    84  ILE84      -0.2864
     71  CB        10.3960   26.5500   -2.2880 C.3    84  ILE84       0.0276
     72  CG1       10.4210   25.4600   -1.1990 C.3    84  ILE84       0.0022
     73  CG2       11.6820   26.6190   -3.0650 C.3    84  ILE84       0.0022
     74  CD1       10.6900   24.1010   -1.7430 C.3    84  ILE84       0.0001
     75  N         11.4210   32.5420   -1.9240 N.3    87  PHE87      -0.1241
     76  CA        12.8790   32.7270   -1.9990 C.3    87  PHE87       0.1605
     77  C         13.3230   32.7650   -3.4600 C.2    87  PHE87       0.2264
     78  O         14.1650   33.5990   -3.8280 O.2    87  PHE87      -0.2867
     79  CB        13.5360   31.6650   -1.1160 C.3    87  PHE87       0.0534
     80  CG        13.1530   31.8540    0.3270 C.ar   87  PHE87      -0.0203
     81  CD1       13.7520   32.8410    1.0940 C.ar   87  PHE87      -0.0042
     82  CD2       12.1310   31.0990    0.8870 C.ar   87  PHE87      -0.0042
     83  CE1       13.3420   33.0520    2.4050 C.ar   87  PHE87      -0.0003
     84  CE2       11.7380   31.2970    2.1970 C.ar   87  PHE87      -0.0003
     85  CZ        12.3360   32.2960    2.9620 C.ar   87  PHE87      -0.0000
     86  N         14.8260   36.4940   -4.1460 N.3    91  PHE91      -0.1241
     87  CA        16.2800   36.5470   -4.3650 C.3    91  PHE91       0.1605
     88  C         16.5230   36.5020   -5.8690 C.2    91  PHE91       0.2264
     89  O         17.4600   37.1490   -6.3550 O.2    91  PHE91      -0.2867
     90  CB        17.0110   35.4540   -3.5790 C.3    91  PHE91       0.0534
     91  CG        17.0550   35.7700   -2.1140 C.ar   91  PHE91      -0.0203
     92  CD1       18.0230   36.6570   -1.6380 C.ar   91  PHE91      -0.0042
     93  CD2       16.2340   35.1340   -1.2170 C.ar   91  PHE91      -0.0042
     94  CE1       18.0930   36.9640   -0.2840 C.ar   91  PHE91      -0.0003
     95  CE2       16.2670   35.4860    0.1350 C.ar   91  PHE91      -0.0003
     96  CZ        17.1600   36.4200    0.5810 C.ar   91  PHE91      -0.0000
     97  N         22.4910   37.2240    7.7960 N.3   115  TRP115     -0.1241
     98  CA        22.1830   35.9580    7.0800 C.3   115  TRP115      0.1605
     99  C         21.8510   34.8740    8.1090 C.2   115  TRP115      0.2264
    100  O         20.7960   34.2570    8.0540 O.2   115  TRP115     -0.2867
    101  CB        23.3080   35.5610    6.1100 C.3   115  TRP115      0.0550
    102  CG        22.7720   34.4870    5.2180 C.ar  115  TRP115      0.0003
    103  CD1       23.0090   33.1460    5.2720 C.ar  115  TRP115      0.0946
    104  CD2       21.7750   34.6770    4.2060 C.ar  115  TRP115      0.0152
    105  NE1       22.2740   32.4950    4.3190 N.ar  115  TRP115     -0.2442
    106  CE2       21.4820   33.4050    3.6740 C.ar  115  TRP115      0.0810
    107  CE3       21.0940   35.7870    3.7140 C.ar  115  TRP115      0.0012
    108  CZ2       20.5320   33.2450    2.6710 C.ar  115  TRP115      0.0191
    109  CZ3       20.1830   35.6330    2.6970 C.ar  115  TRP115      0.0001
    110  CH2       19.9020   34.3680    2.1890 C.ar  115  TRP115      0.0015
    111  N         18.2310   32.9630    8.5070 N.3   119  MET119     -0.1245
    112  CA        18.2390   31.4870    8.2370 C.3   119  MET119      0.1570
    113  C         17.6860   30.7670    9.4790 C.2   119  MET119      0.2261
    114  O         16.8780   29.8280    9.3680 O.2   119  MET119     -0.2867
    115  CB        19.6310   31.0000    7.8520 C.3   119  MET119      0.0387
    116  CG        20.0720   31.3980    6.4710 C.3   119  MET119      0.0595
    117  SD        19.0540   30.6080    5.1650 S.3   119  MET119     -0.1393
    118  CE        19.7280   28.9210    5.1700 C.3   119  MET119      0.0692
    119  N         13.8540   31.2090    9.4000 N.3   122  TRP122     -0.1241
    120  CA        13.1920   30.4080    8.3310 C.3   122  TRP122      0.1605
    121  C         13.2380   28.9050    8.6450 C.2   122  TRP122      0.2264
    122  O         12.2270   28.1950    8.3880 O.2   122  TRP122     -0.2867
    123  CB        13.8460   30.7190    7.0010 C.3   122  TRP122      0.0550
    124  CG        13.7210   32.1740    6.6650 C.ar  122  TRP122      0.0003
    125  CD1       12.7040   33.0130    7.0380 C.ar  122  TRP122      0.0946
    126  CD2       14.5830   32.9330    5.8130 C.ar  122  TRP122      0.0152
    127  NE1       12.9350   34.2710    6.5300 N.ar  122  TRP122     -0.2442
    128  CE2       14.0550   34.2470    5.7590 C.ar  122  TRP122      0.0810
    129  CE3       15.7870   32.6870    5.1570 C.ar  122  TRP122      0.0012
    130  CZ2       14.6820   35.2760    5.0530 C.ar  122  TRP122      0.0191
    131  CZ3       16.3880   33.6940    4.4350 C.ar  122  TRP122      0.0001
    132  CH2       15.8610   34.9830    4.4180 C.ar  122  TRP122      0.0015
    133  N         10.6320   28.2540   11.4300 N.3   125  TYR125     -0.1227
    134  CA         9.2840   28.2170   10.8220 C.3   125  TYR125      0.1736
    135  C          9.0770   26.9280   10.0190 C.2   125  TYR125      0.2596
    136  O          8.0540   26.2580   10.1290 O.2   125  TYR125     -0.2718
    137  CB         9.0220   29.4960   10.0340 C.3   125  TYR125      0.0548
    138  CG         7.6650   29.4750    9.4260 C.ar  125  TYR125     -0.0200
    139  CD1        6.5280   29.3470   10.2120 C.ar  125  TYR125     -0.0009
    140  CD2        7.5250   29.5480    8.0580 C.ar  125  TYR125     -0.0009
    141  CE1        5.2700   29.3040    9.6400 C.ar  125  TYR125      0.0417
    142  CE2        6.2780   29.5100    7.4820 C.ar  125  TYR125      0.0417
    143  CZ         5.1580   29.3530    8.2640 C.ar  125  TYR125      0.1957
    144  OH         3.9600   29.3190    7.6100 O.3   125  TYR125     -0.2866
    145  N         10.0700   26.5010    9.2540 N.am  126  THR126     -0.1953
    146  CA         9.9840   25.2210    8.5360 C.3   126  THR126      0.1897
    147  C          9.7190   24.0830    9.5310 C.2   126  THR126      0.2313
    148  O          8.8330   23.2520    9.2890 O.2   126  THR126     -0.2863
    149  CB        11.2760   24.9500    7.7470 C.3   126  THR126      0.1794
    150  OG1       11.5550   26.0360    6.8440 O.3   126  THR126     -0.2208
    151  CG2       11.1950   23.6470    7.0120 C.3   126  THR126      0.0378
    152  N          6.1750   23.9950   10.9260 N.3   129  VAL129     -0.1245
    153  CA         5.1770   23.4710    9.9590 C.3   129  VAL129      0.1561
    154  C          5.3460   21.9570    9.8390 C.2   129  VAL129      0.2260
    155  O          4.3260   21.2630    9.8280 O.2   129  VAL129     -0.2867
    156  CB         5.2390   24.2220    8.6140 C.3   129  VAL129      0.0252
    157  CG1        4.2960   23.6210    7.5830 C.3   129  VAL129      0.0019
    158  CG2        4.9350   25.6970    8.8500 C.3   129  VAL129      0.0019
    159  N         16.7590   23.8700    4.2670 N.3   153  ASN153     -0.1240
    160  CA        17.0530   25.3140    4.1120 C.3   153  ASN153      0.1653
    161  C         18.4430   25.5110    3.5090 C.2   153  ASN153      0.2266
    162  O         18.5790   26.3890    2.6340 O.2   153  ASN153     -0.2867
    163  CB        16.8610   26.0780    5.4170 C.3   153  ASN153      0.1155
    164  CG        15.4110   26.4820    5.6390 C.2   153  ASN153      0.2627
    165  OD1       15.0980   27.6600    5.4790 O.2   153  ASN153     -0.2716
    166  ND2       14.5370   25.5600    6.0100 N.am  153  ASN153     -0.0877
    167  N         18.4960   24.7300   -0.1310 N.3   156  ASN156     -0.1225
    168  CA        17.8430   25.7750   -0.9600 C.3   156  ASN156      0.1785
    169  C         18.7760   26.9410   -1.1020 C.2   156  ASN156      0.2597
    170  O         18.9140   27.4990   -2.2250 O.2   156  ASN156     -0.2718
    171  CB        16.5150   26.2570   -0.3570 C.3   156  ASN156      0.1169
    172  CG        15.4090   25.2430   -0.5960 C.2   156  ASN156      0.2627
    173  OD1       15.6570   24.0540   -0.9380 O.2   156  ASN156     -0.2716
    174  ND2       14.1870   25.7170   -0.3880 N.am  156  ASN156     -0.0877
    175  N         19.4610   27.3140   -0.0250 N.am  157  GLU157     -0.1979
    176  CA        20.4400   28.4150   -0.1030 C.3   157  GLU157      0.1602
    177  C         21.4710   28.1150   -1.2030 C.2   157  GLU157      0.2287
    178  O         21.6690   28.9290   -2.1640 O.2   157  GLU157     -0.2864
    179  CB        21.1310   28.5680    1.2620 C.3   157  GLU157      0.0415
    180  CG        22.1800   29.6290    1.2310 C.3   157  GLU157      0.1163
    181  CD        23.0940   29.6260    2.4580 C.2   157  GLU157      0.3649
    182  OE1       22.6070   29.7350    3.5630 O.co2 157  GLU157     -0.2457
    183  OE2       24.3220   29.5750    2.2770 O.co2 157  GLU157     -0.2457
    184  N         19.5630   27.3810   -4.9450 N.3   160  LEU160     -0.1231
    185  CA        18.9760   28.5920   -5.5730 C.3   160  LEU160      0.1693
    186  C         20.1050   29.4870   -6.0410 C.2   160  LEU160      0.2592
    187  O         20.0950   29.9960   -7.2070 O.2   160  LEU160     -0.2718
    188  CB        18.0610   29.3420   -4.6170 C.3   160  LEU160      0.0284
    189  CG        16.7180   28.6850   -4.3110 C.3   160  LEU160      0.0019
    190  CD1       15.9880   29.4700   -3.2350 C.3   160  LEU160      0.0001
    191  CD2       15.8760   28.5530   -5.5590 C.3   160  LEU160      0.0001
    192  N         21.0570   29.7830   -5.1680 N.am  161  PHE161     -0.1976
    193  CA        22.0840   30.8050   -5.4770 C.3   161  PHE161      0.1639
    194  C         23.0410   30.2840   -6.5610 C.2   161  PHE161      0.2290
    195  O         23.4640   31.0880   -7.4270 O.2   161  PHE161     -0.2864
    196  CB        22.7630   31.2690   -4.1850 C.3   161  PHE161      0.0560
    197  CG        21.8080   31.8990   -3.2010 C.ar  161  PHE161     -0.0200
    198  CD1       20.5070   32.2580   -3.5440 C.ar  161  PHE161     -0.0042
    199  CD2       22.2240   32.1790   -1.9130 C.ar  161  PHE161     -0.0042
    200  CE1       19.6330   32.8190   -2.6080 C.ar  161  PHE161     -0.0003
    201  CE2       21.3680   32.7800   -0.9930 C.ar  161  PHE161     -0.0003
    202  CZ        20.0710   33.0820   -1.3320 C.ar  161  PHE161     -0.0000
    203  N         11.8480   18.4210   -0.9260 N.3   184  TRP184     -0.1241
    204  CA        11.1710   18.8610    0.3250 C.3   184  TRP184      0.1605
    205  C         10.0170   17.8940    0.5700 C.2   184  TRP184      0.2264
    206  O          9.9280   17.2870    1.6540 O.2   184  TRP184     -0.2867
    207  CB        10.6990   20.3050    0.2540 C.3   184  TRP184      0.0550
    208  CG        11.7700   21.3030    0.5670 C.ar  184  TRP184      0.0003
    209  CD1       12.9790   21.4660   -0.0640 C.ar  184  TRP184      0.0946
    210  CD2       11.6850   22.3470    1.5380 C.ar  184  TRP184      0.0152
    211  NE1       13.6530   22.5160    0.4890 N.ar  184  TRP184     -0.2442
    212  CE2       12.8830   23.0660    1.4770 C.ar  184  TRP184      0.0810
    213  CE3       10.7260   22.7110    2.4990 C.ar  184  TRP184      0.0012
    214  CZ2       13.1530   24.1540    2.3090 C.ar  184  TRP184      0.0191
    215  CZ3       10.9950   23.7740    3.3190 C.ar  184  TRP184      0.0001
    216  CH2       12.2040   24.4590    3.2600 C.ar  184  TRP184      0.0015
@<TRIPOS>BOND
     1   195   194    2
     2   187   186    2
     3   194   193    1
     4    89    88    2
     5   186   185    1
     6   186   192   am
     7    88    87    1
     8   185   184    1
     9   185   188    1
    10   191   189    1
    11   193   192    1
    12   193   196    1
    13   188   189    1
    14    87    86    1
    15    87    90    1
    16   189   190    1
    17   196   197    1
    18    78    77    2
    19    90    91    1
    20   198   197   ar
    21   198   200   ar
    22    77    76    1
    23   197   199   ar
    24    73    71    1
    25    70    69    2
    26    62    60    1
    27    69    68    1
    28    56    57    1
    29   200   202   ar
    30    57    60    1
    31    57    58    1
    32    71    68    1
    33    71    72    1
    34   170   169    2
    35   178   177    2
    36    91    92   ar
    37    91    93   ar
    38    76    75    1
    39    76    79    1
    40   199   201   ar
    41    60    61    1
    42    59    58    2
    43    74    72    1
    44    68    67    1
    45    92    94   ar
    46    58    63   am
    47   202   201   ar
    48    34    35    1
    49    93    95   ar
    50   177   176    1
    51    79    80    1
    52   169   168    1
    53   169   175   am
    54    44    45    2
    55    44    43    1
    56   168   171    1
    57   168   167    1
    58   173   172    2
    59    67    65   am
    60   203   204    1
    61    33    30    1
    62   172   174   am
    63   172   171    1
    64    63    64    1
    65    94    96   ar
    66    65    66    2
    67    65    64    1
    68   176   175    1
    69   176   179    1
    70   209   211   ar
    71   209   208   ar
    72    35    36    1
    73    35    38    1
    74    42    36   am
    75    42    43    1
    76    36    37    2
    77    43    46    1
    78    95    96   ar
    79    30    31    1
    80    30    29    1
    81    16    14    1
    82   207   204    1
    83   207   208    1
    84    31    32    2
    85    46    47    1
    86   204   205    1
    87    80    82   ar
    88    80    81   ar
    89   211   212   ar
    90   208   210   ar
    91   205   206    2
    92    15    14    1
    93    82    84   ar
    94    14    13    1
    95    81    83   ar
    96   180   179    1
    97   180   181    1
    98    38    39    1
    99   212   210   ar
   100   212   214   ar
   101    29    24   am
   102   210   213   ar
   103    47    48   ar
   104    47    49   ar
   105    48    50   ar
   106   110   108   ar
   107   110   109   ar
   108    84    85   ar
   109   183   181   ar
   110   214   216   ar
   111    25    24    2
   112    83    85   ar
   113   181   182   ar
   114   213   215   ar
   115    24    23    1
   116    39    40    1
   117    13    10    1
   118   162   161    2
   119   108   106   ar
   120   109   107   ar
   121    49    52   ar
   122    49    51   ar
   123    10     9    1
   124    10    11    1
   125    50    51   ar
   126   216   215   ar
   127     1     2    1
   128    52    54   ar
   129   161   160    1
   130   106   104   ar
   131   106   105   ar
   132   107   104   ar
   133     7     6    1
   134    51    53   ar
   135    23    22    1
   136    23    26    1
   137     2     5    1
   138     2     3    1
   139   160   159    1
   140   160   163    1
   141    40    41    1
   142   104   102   ar
   143   105   103   ar
   144   132   131   ar
   145   132   130   ar
   146     5     6    1
   147    12    11    2
   148   131   129   ar
   149    11    17   am
   150    22    28    1
   151    54    55   ar
   152    26    27    1
   153     6     8    1
   154   130   128   ar
   155     3     4    2
   156   129   126   ar
   157   117   118    1
   158   117   116    1
   159   102   103   ar
   160   102   101    1
   161    53    55   ar
   162   163   164    1
   163   165   164    2
   164    17    18    1
   165   164   166   am
   166   128   126   ar
   167   128   127   ar
   168    27    28    1
   169   126   124   ar
   170   101    98    1
   171   116   115    1
   172   127   125   ar
   173   124   123    1
   174   124   125   ar
   175    18    19    1
   176    18    21    1
   177   150   149    1
   178   123   120    1
   179   151   149    1
   180    98    97    1
   181    98    99    1
   182    19    20    2
   183   142   140   ar
   184   142   143   ar
   185   157   156    1
   186   144   143    1
   187   149   146    1
   188   115   112    1
   189   100    99    2
   190   140   138   ar
   191   112   111    1
   192   112   113    1
   193   143   141   ar
   194   120   121    1
   195   120   119    1
   196   122   121    2
   197   146   145    1
   198   146   147    1
   199   156   158    1
   200   156   153    1
   201   145   135   am
   202   148   147    2
   203   114   113    2
   204   138   137    1
   205   138   139   ar
   206   141   139   ar
   207   155   154    2
   208   154   153    1
   209   153   152    1
   210   135   136    2
   211   135   134    1
   212   137   134    1
   213   134   133    1
