@<TRIPOS>MOLECULE
tmp/6hocA00.pdb
 192 189 0 0 0
SMALL
GASTEIGER

@<TRIPOS>ATOM
      1  N        -35.4460    6.7980   -5.1080 N.3    63  LEU63      -0.1245
      2  CA       -34.1290    6.5380   -4.4540 C.3    63  LEU63       0.1561
      3  C        -34.2890    5.5490   -3.2730 C.2    63  LEU63       0.2260
      4  O        -33.4050    4.7180   -3.0830 O.2    63  LEU63      -0.2867
      5  CB       -33.4940    7.8680   -4.0300 C.3    63  LEU63       0.0270
      6  CG       -32.1200    7.7430   -3.3730 C.3    63  LEU63       0.0019
      7  CD1      -31.0470    7.3390   -4.3720 C.3    63  LEU63       0.0001
      8  CD2      -31.7490    9.0240   -2.6680 C.3    63  LEU63       0.0001
      9  N        -34.3610    1.9430   -4.8150 N.3    66  LEU66      -0.1245
     10  CA       -32.9680    1.4610   -5.0340 C.3    66  LEU66       0.1561
     11  C        -32.3170    0.9920   -3.7220 C.2    66  LEU66       0.2260
     12  O        -31.5730    0.0000   -3.7650 O.2    66  LEU66      -0.2867
     13  CB       -32.1240    2.5900   -5.6240 C.3    66  LEU66       0.0270
     14  CG       -32.3690    2.8880   -7.0900 C.3    66  LEU66       0.0019
     15  CD1      -31.4240    3.9860   -7.5550 C.3    66  LEU66       0.0001
     16  CD2      -32.1850    1.6280   -7.9180 C.3    66  LEU66       0.0001
     17  N        -23.6770    1.3860   -9.4480 N.3    74  MET74      -0.1230
     18  CA       -24.5240    1.6740   -8.2610 C.3    74  MET74       0.1702
     19  C        -24.7100    3.2010   -8.2170 C.2    74  MET74       0.2592
     20  O        -25.8250    3.6400   -8.0430 O.2    74  MET74      -0.2718
     21  CB       -23.8800    1.1350   -6.9670 C.3    74  MET74       0.0401
     22  CG       -24.4280    1.7410   -5.6570 C.3    74  MET74       0.0596
     23  SD       -23.4830    1.2300   -4.1800 S.3    74  MET74      -0.1393
     24  CE       -22.0830    2.3490   -4.1550 C.3    74  MET74       0.0692
     25  N        -23.6340    3.9800   -8.3960 N.am   75  TRP75      -0.1976
     26  CA       -23.7100    5.4600   -8.3410 C.3    75  TRP75       0.1640
     27  C        -24.5060    5.9530   -9.5670 C.2    75  TRP75       0.2290
     28  O        -25.4030    6.7770   -9.3730 O.2    75  TRP75      -0.2864
     29  CB       -22.3160    6.0790   -8.2060 C.3    75  TRP75       0.0576
     30  CG       -21.6790    5.8050   -6.8780 C.ar   75  TRP75       0.0006
     31  CD1      -20.5840    5.0320   -6.6140 C.ar   75  TRP75       0.0946
     32  CD2      -22.1090    6.3160   -5.6080 C.ar   75  TRP75       0.0152
     33  NE1      -20.3380    4.9980   -5.2660 N.ar   75  TRP75      -0.2442
     34  CE2      -21.2400    5.7940   -4.6320 C.ar   75  TRP75       0.0810
     35  CE3      -23.1370    7.1700   -5.2120 C.ar   75  TRP75       0.0012
     36  CZ2      -21.3670    6.0990   -3.2850 C.ar   75  TRP75       0.0191
     37  CZ3      -23.2430    7.5060   -3.8860 C.ar   75  TRP75       0.0001
     38  CH2      -22.3860    6.9520   -2.9360 C.ar   75  TRP75       0.0015
     39  N        -28.2400    5.6560   -9.0040 N.3    78  GLY78      -0.1210
     40  CA       -28.7120    6.6750   -8.0390 C.3    78  GLY78       0.1956
     41  C        -28.7540    8.0650   -8.6670 C.2    78  GLY78       0.2611
     42  O        -29.8300    8.7010   -8.6480 O.2    78  GLY78      -0.2717
     43  N        -27.6580    8.5010   -9.2910 N.am   79  ILE79      -0.1979
     44  CA       -27.6570    9.7860  -10.0430 C.3    79  ILE79       0.1595
     45  C        -28.8050    9.7500  -11.0620 C.2    79  ILE79       0.2287
     46  O        -29.4340   10.7980  -11.2620 O.2    79  ILE79      -0.2864
     47  CB       -26.2860   10.0900  -10.6740 C.3    79  ILE79       0.0276
     48  CG1      -25.1830   10.1510   -9.6170 C.3    79  ILE79       0.0022
     49  CG2      -26.3650   11.3830  -11.4470 C.3    79  ILE79       0.0022
     50  CD1      -23.7690   10.4220  -10.1430 C.3    79  ILE79       0.0001
     51  N        -32.4240   11.2180  -10.2880 N.3    82  PHE82      -0.1241
     52  CA       -32.5330   12.7020  -10.3560 C.3    82  PHE82       0.1605
     53  C        -32.5650   13.1340  -11.8330 C.2    82  PHE82       0.2264
     54  O        -33.4770   13.8750  -12.1770 O.2    82  PHE82      -0.2867
     55  CB       -31.4700   13.3620   -9.4580 C.3    82  PHE82       0.0534
     56  CG       -31.6420   12.9930   -8.0050 C.ar   82  PHE82      -0.0203
     57  CD1      -32.6390   13.5790   -7.2330 C.ar   82  PHE82      -0.0042
     58  CD2      -30.9060   11.9650   -7.4400 C.ar   82  PHE82      -0.0042
     59  CE1      -32.8430   13.1950   -5.9110 C.ar   82  PHE82      -0.0003
     60  CE2      -31.1130   11.5720   -6.1180 C.ar   82  PHE82      -0.0003
     61  CZ       -32.0810   12.1900   -5.3490 C.ar   82  PHE82      -0.0000
     62  N        -36.2890   14.4780  -12.6880 N.3    86  PHE86      -0.1241
     63  CA       -36.3630   15.9510  -12.9020 C.3    86  PHE86       0.1605
     64  C        -36.3780   16.2580  -14.4140 C.2    86  PHE86       0.2264
     65  O        -37.0100   17.2490  -14.8230 O.2    86  PHE86      -0.2867
     66  CB       -35.2600   16.6540  -12.1090 C.3    86  PHE86       0.0534
     67  CG       -35.4650   16.6550  -10.6230 C.ar   86  PHE86      -0.0203
     68  CD1      -36.4660   17.4240  -10.0570 C.ar   86  PHE86      -0.0042
     69  CD2      -34.6420   15.9420   -9.7820 C.ar   86  PHE86      -0.0042
     70  CE1      -36.6610   17.4440   -8.6880 C.ar   86  PHE86      -0.0003
     71  CE2      -34.8450   15.9600   -8.4100 C.ar   86  PHE86      -0.0003
     72  CZ       -35.8540   16.7020   -7.8630 C.ar   86  PHE86      -0.0000
     73  N        -37.0120   22.3240   -0.6130 N.3   110  TRP110     -0.1241
     74  CA       -35.8160   21.9430   -1.3920 C.3   110  TRP110      0.1605
     75  C        -34.7060   21.6020   -0.3930 C.2   110  TRP110      0.2264
     76  O        -34.1680   20.4910   -0.4280 O.2   110  TRP110     -0.2867
     77  CB       -35.4240   23.0410   -2.3830 C.3   110  TRP110      0.0550
     78  CG       -34.3700   22.5200   -3.2900 C.ar  110  TRP110      0.0003
     79  CD1      -33.0320   22.7720   -3.2320 C.ar  110  TRP110      0.0946
     80  CD2      -34.5580   21.5420   -4.3170 C.ar  110  TRP110      0.0152
     81  NE1      -32.3780   22.0500   -4.1860 N.ar  110  TRP110     -0.2442
     82  CE2      -33.2900   21.2880   -4.8750 C.ar  110  TRP110      0.0810
     83  CE3      -35.6720   20.8830   -4.8370 C.ar  110  TRP110      0.0012
     84  CZ2      -33.1040   20.3660   -5.9040 C.ar  110  TRP110      0.0191
     85  CZ3      -35.4940   20.0050   -5.8790 C.ar  110  TRP110      0.0001
     86  CH2      -34.2260   19.7440   -6.3970 C.ar  110  TRP110      0.0015
     87  N        -32.7290   17.9790    0.0410 N.3   114  MET114     -0.1245
     88  CA       -31.2550   18.0300   -0.1550 C.3   114  MET114      0.1570
     89  C        -30.5440   17.5320    1.1270 C.2   114  MET114      0.2261
     90  O        -29.6070   16.7250    1.0070 O.2   114  MET114     -0.2867
     91  CB       -30.7840   19.4380   -0.5380 C.3   114  MET114      0.0387
     92  CG       -31.1760   19.8370   -1.9410 C.3   114  MET114      0.0595
     93  SD       -30.3810   18.8030   -3.2030 S.3   114  MET114     -0.1393
     94  CE       -28.7790   19.6070   -3.2780 C.3   114  MET114      0.0692
     95  N        -30.8620   13.6890    0.9980 N.3   117  TRP117     -0.1241
     96  CA       -30.1030   13.0060   -0.0930 C.3   117  TRP117      0.1605
     97  C        -28.5870   13.0490    0.1940 C.2   117  TRP117      0.2264
     98  O        -27.8820   12.0300   -0.0510 O.2   117  TRP117     -0.2867
     99  CB       -30.4840   13.5950   -1.4630 C.3   117  TRP117      0.0550
    100  CG       -31.9490   13.4660   -1.8060 C.ar  117  TRP117      0.0003
    101  CD1      -32.7660   12.4400   -1.4360 C.ar  117  TRP117      0.0946
    102  CD2      -32.7740   14.3500   -2.6080 C.ar  117  TRP117      0.0152
    103  NE1      -34.0370   12.6270   -1.9130 N.ar  117  TRP117     -0.2442
    104  CE2      -34.0720   13.7790   -2.6570 C.ar  117  TRP117      0.0810
    105  CE3      -32.5690   15.5670   -3.2770 C.ar  117  TRP117      0.0012
    106  CZ2      -35.1300   14.3730   -3.3460 C.ar  117  TRP117      0.0191
    107  CZ3      -33.6010   16.1410   -3.9950 C.ar  117  TRP117      0.0001
    108  CH2      -34.8770   15.5630   -3.9990 C.ar  117  TRP117      0.0015
    109  N        -28.0380   10.5380    2.8800 N.3   120  TYR120     -0.1227
    110  CA       -28.0230    9.1910    2.2350 C.3   120  TYR120      0.1736
    111  C        -26.6660    8.9510    1.5420 C.2   120  TYR120      0.2596
    112  O        -26.0140    7.9310    1.8140 O.2   120  TYR120     -0.2718
    113  CB       -29.2490    8.9600    1.3430 C.3   120  TYR120      0.0548
    114  CG       -29.2560    7.5650    0.7800 C.ar  120  TYR120     -0.0200
    115  CD1      -29.3570    6.4550    1.6030 C.ar  120  TYR120     -0.0009
    116  CD2      -29.0500    7.3450   -0.5710 C.ar  120  TYR120     -0.0009
    117  CE1      -29.2570    5.1620    1.1010 C.ar  120  TYR120      0.0417
    118  CE2      -28.9710    6.0620   -1.0920 C.ar  120  TYR120      0.0417
    119  CZ       -29.0620    4.9660   -0.2610 C.ar  120  TYR120      0.1957
    120  OH       -28.9870    3.7210   -0.8230 O.3   120  TYR120     -0.2866
    121  N        -26.2040    9.8730    0.7030 N.am  121  THR121     -0.1953
    122  CA       -24.9020    9.7620    0.0050 C.3   121  THR121      0.1897
    123  C        -23.7790    9.5110    1.0310 C.2   121  THR121      0.2313
    124  O        -22.8460    8.7290    0.7480 O.2   121  THR121     -0.2863
    125  CB       -24.6140   11.0190   -0.8350 C.3   121  THR121      0.1794
    126  OG1      -25.6050   11.2150   -1.8550 O.3   121  THR121     -0.2208
    127  CG2      -23.2430   10.9330   -1.4750 C.3   121  THR121      0.0378
    128  N        -23.8170    5.9740    2.4300 N.3   124  VAL124     -0.1245
    129  CA       -23.3000    5.0270    1.4030 C.3   124  VAL124      0.1561
    130  C        -21.7820    5.1360    1.3570 C.2   124  VAL124      0.2260
    131  O        -21.1820    4.0970    1.3680 O.2   124  VAL124     -0.2867
    132  CB       -23.9520    5.1920    0.0220 C.3   124  VAL124      0.0252
    133  CG1      -23.3140    4.2480   -0.9780 C.3   124  VAL124      0.0019
    134  CG2      -25.4360    4.9130    0.1190 C.3   124  VAL124      0.0019
    135  N        -23.6450   16.4970   -4.1920 N.3   148  ASN148     -0.1240
    136  CA       -25.0940   16.7530   -4.3610 C.3   148  ASN148      0.1653
    137  C        -25.3030   18.1510   -4.9600 C.2   148  ASN148      0.2266
    138  O        -26.2330   18.2980   -5.7900 O.2   148  ASN148     -0.2867
    139  CB       -25.9000   16.5390   -3.0750 C.3   148  ASN148      0.1155
    140  CG       -26.3050   15.0900   -2.8710 C.2   148  ASN148      0.2627
    141  OD1      -27.4780   14.7570   -2.9590 O.2   148  ASN148     -0.2716
    142  ND2      -25.3650   14.2240   -2.5430 N.am  148  ASN148     -0.0877
    143  N        -24.5570   18.1820   -8.6290 N.3   151  ASN151     -0.1225
    144  CA       -25.6370   17.5550   -9.4340 C.3   151  ASN151      0.1785
    145  C        -26.7960   18.5390   -9.6210 C.2   151  ASN151      0.2597
    146  O        -27.2650   18.6570  -10.7610 O.2   151  ASN151     -0.2718
    147  CB       -26.0770   16.2180   -8.8400 C.3   151  ASN151      0.1169
    148  CG       -25.0210   15.1780   -9.1030 C.2   151  ASN151      0.2627
    149  OD1      -23.9080   15.5400   -9.4860 O.2   151  ASN151     -0.2716
    150  ND2      -25.3640   13.9100   -8.9340 N.am  151  ASN151     -0.0877
    151  N        -27.2300   19.2110   -8.5580 N.am  152  GLU152     -0.1979
    152  CA       -28.3050   20.2390   -8.6170 C.3   152  GLU152      0.1602
    153  C        -27.9810   21.2480   -9.7200 C.2   152  GLU152      0.2287
    154  O        -28.7770   21.3980  -10.6720 O.2   152  GLU152     -0.2864
    155  CB       -28.4130   20.9650   -7.2840 C.3   152  GLU152      0.0415
    156  CG       -29.4590   22.0220   -7.2670 C.3   152  GLU152      0.1163
    157  CD       -29.4700   22.7970   -5.9600 C.2   152  GLU152      0.3649
    158  OE1      -29.6410   22.1910   -4.9040 O.co2 152  GLU152     -0.2457
    159  OE2      -29.2700   24.0050   -6.0120 O.co2 152  GLU152     -0.2457
    160  N        -27.2370   19.3570  -13.4510 N.3   155  LEU155     -0.1231
    161  CA       -28.5000   18.8110  -14.0090 C.3   155  LEU155      0.1693
    162  C        -29.3960   19.9560  -14.4520 C.2   155  LEU155      0.2592
    163  O        -29.8990   19.8800  -15.5950 O.2   155  LEU155     -0.2718
    164  CB       -29.2250   17.9350  -12.9980 C.3   155  LEU155      0.0284
    165  CG       -28.5880   16.5810  -12.7260 C.3   155  LEU155      0.0019
    166  CD1      -29.4260   15.8330  -11.7130 C.3   155  LEU155      0.0001
    167  CD2      -28.4270   15.7730  -14.0050 C.3   155  LEU155      0.0001
    168  N        -29.5380   20.9990  -13.6360 N.am  156  PHE156     -0.1976
    169  CA       -30.5260   22.0800  -13.9240 C.3   156  PHE156      0.1639
    170  C        -29.9700   22.9960  -15.0330 C.2   156  PHE156      0.2290
    171  O        -30.7280   23.3840  -15.9460 O.2   156  PHE156     -0.2864
    172  CB       -31.0350   22.7180  -12.6230 C.3   156  PHE156      0.0560
    173  CG       -31.6810   21.7470  -11.6510 C.ar  156  PHE156     -0.0200
    174  CD1      -32.0620   20.4610  -12.0400 C.ar  156  PHE156     -0.0042
    175  CD2      -31.8920   22.0980  -10.3190 C.ar  156  PHE156     -0.0042
    176  CE1      -32.6080   19.5610  -11.1290 C.ar  156  PHE156     -0.0003
    177  CE2      -32.4870   21.2150   -9.4220 C.ar  156  PHE156     -0.0003
    178  CZ       -32.8380   19.9460   -9.8260 C.ar  156  PHE156     -0.0000
    179  N        -18.2230   11.6600   -9.3650 N.3   179  TRP179     -0.1241
    180  CA       -18.6310   10.9850   -8.0980 C.3   179  TRP179      0.1605
    181  C        -17.6470    9.8420   -7.8140 C.2   179  TRP179      0.2264
    182  O        -17.0450    9.8210   -6.7230 O.2   179  TRP179     -0.2867
    183  CB       -20.0940   10.5020   -8.1380 C.3   179  TRP179      0.0550
    184  CG       -21.1220   11.5550   -7.8230 C.ar  179  TRP179      0.0003
    185  CD1      -21.2700   12.7440   -8.4650 C.ar  179  TRP179      0.0946
    186  CD2      -22.1550   11.5250   -6.8060 C.ar  179  TRP179      0.0152
    187  NE1      -22.3290   13.4410   -7.9480 N.ar  179  TRP179     -0.2442
    188  CE2      -22.8740   12.7400   -6.9090 C.ar  179  TRP179      0.0810
    189  CE3      -22.5470   10.6010   -5.8190 C.ar  179  TRP179      0.0012
    190  CZ2      -23.9330   13.0710   -6.0550 C.ar  179  TRP179      0.0191
    191  CZ3      -23.6070   10.9120   -4.9880 C.ar  179  TRP179      0.0001
    192  CH2      -24.2880   12.1280   -5.0970 C.ar  179  TRP179      0.0015
@<TRIPOS>BOND
     1   171   170    2
     2   163   162    2
     3   170   169    1
     4    65    64    2
     5   162   161    1
     6   162   168   am
     7    64    63    1
     8   161   160    1
     9   161   164    1
    10   167   165    1
    11   169   168    1
    12   169   172    1
    13   164   165    1
    14    63    62    1
    15    63    66    1
    16   165   166    1
    17   172   173    1
    18    54    53    2
    19    66    67    1
    20   174   173   ar
    21   174   176   ar
    22    53    52    1
    23   173   175   ar
    24    49    47    1
    25    46    45    2
    26   176   178   ar
    27    45    44    1
    28   146   145    2
    29    47    44    1
    30    47    48    1
    31   154   153    2
    32    67    68   ar
    33    67    69   ar
    34    52    51    1
    35    52    55    1
    36   175   177   ar
    37    50    48    1
    38    68    70   ar
    39    44    43    1
    40   178   177   ar
    41    69    71   ar
    42   153   152    1
    43   145   144    1
    44   145   151   am
    45    27    28    2
    46    27    26    1
    47   149   148    2
    48    55    56    1
    49    17    18    1
    50   144   147    1
    51   144   143    1
    52   179   180    1
    53    43    41   am
    54   148   150   am
    55   148   147    1
    56    39    40    1
    57    70    72   ar
    58    41    42    2
    59    41    40    1
    60   152   151    1
    61   152   155    1
    62   185   187   ar
    63   185   184   ar
    64    71    72   ar
    65    25    26    1
    66    25    19   am
    67    26    29    1
    68    18    19    1
    69    18    21    1
    70    19    20    2
    71    29    30    1
    72   183   180    1
    73   183   184    1
    74   180   181    1
    75    56    58   ar
    76    56    57   ar
    77   187   188   ar
    78    16    14    1
    79   184   186   ar
    80   181   182    2
    81    15    14    1
    82    58    60   ar
    83   155   156    1
    84   156   157    1
    85    57    59   ar
    86    14    13    1
    87    21    22    1
    88   188   186   ar
    89   188   190   ar
    90    30    31   ar
    91    30    32   ar
    92   186   189   ar
    93    31    33   ar
    94    86    84   ar
    95    86    85   ar
    96    60    61   ar
    97   190   192   ar
    98   159   157   ar
    99   157   158   ar
   100    59    61   ar
   101    84    82   ar
   102    85    83   ar
   103   189   191   ar
   104   138   137    2
   105    22    23    1
   106    13    10    1
   107    32    35   ar
   108    32    34   ar
   109    33    34   ar
   110    35    37   ar
   111     1     2    1
   112   192   191   ar
   113    10     9    1
   114    10    11    1
   115   137   136    1
   116    82    80   ar
   117    82    81   ar
   118    83    80   ar
   119    34    36   ar
   120     2     5    1
   121     2     3    1
   122     7     6    1
   123   136   135    1
   124   136   139    1
   125    80    78   ar
   126    81    79   ar
   127    23    24    1
   128     5     6    1
   129   108   107   ar
   130   108   106   ar
   131   107   105   ar
   132    37    38   ar
   133    12    11    2
   134     6     8    1
   135   106   104   ar
   136    78    79   ar
   137    78    77    1
   138    36    38   ar
   139    94    93    1
   140   105   102   ar
   141     3     4    2
   142    93    92    1
   143   139   140    1
   144   141   140    2
   145   140   142   am
   146   104   102   ar
   147   104   103   ar
   148   102   100   ar
   149    77    74    1
   150    92    91    1
   151   103   101   ar
   152   126   125    1
   153   100    99    1
   154   100   101   ar
   155   127   125    1
   156    99    96    1
   157    74    73    1
   158    74    75    1
   159   118   116   ar
   160   118   119   ar
   161   133   132    1
   162   125   122    1
   163   120   119    1
   164   116   114   ar
   165    91    88    1
   166    76    75    2
   167   119   117   ar
   168    88    87    1
   169    88    89    1
   170    96    97    1
   171    96    95    1
   172    98    97    2
   173   122   121    1
   174   122   123    1
   175   132   134    1
   176   132   129    1
   177   121   111   am
   178   124   123    2
   179   114   113    1
   180   114   115   ar
   181    90    89    2
   182   117   115   ar
   183   113   110    1
   184   130   131    2
   185   130   129    1
   186   129   128    1
   187   111   112    2
   188   111   110    1
   189   110   109    1
