@<TRIPOS>MOLECULE
tmp/6hodA00.pdb
 207 200 0 0 0
SMALL
GASTEIGER

@<TRIPOS>ATOM
      1  N         -6.8190  -35.5350    3.3180 N.3    64  LEU64      -0.1245
      2  CA        -6.5340  -34.2190    3.9520 C.3    64  LEU64       0.1561
      3  C         -5.5250  -34.4160    5.1080 C.2    64  LEU64       0.2260
      4  O         -4.6220  -33.5930    5.2420 O.2    64  LEU64      -0.2867
      5  CB        -7.8430  -33.5560    4.4000 C.3    64  LEU64       0.0270
      6  CG        -7.6940  -32.1530    4.9980 C.3    64  LEU64       0.0019
      7  CD1       -7.2650  -31.1500    3.9470 C.3    64  LEU64       0.0001
      8  CD2       -9.0130  -31.7070    5.6220 C.3    64  LEU64       0.0001
      9  N         -2.0580  -34.6470    3.6020 N.3    67  LEU67      -0.1231
     10  CA        -1.6120  -33.3090    3.1940 C.3    67  LEU67       0.1693
     11  C         -1.2190  -32.4890    4.4270 C.2    67  LEU67       0.2591
     12  O         -0.1670  -31.7820    4.4000 O.2    67  LEU67      -0.2718
     13  CB        -2.7760  -32.6840    2.4320 C.3    67  LEU67       0.0284
     14  CG        -2.4790  -31.4060    1.6780 C.3    67  LEU67       0.0019
     15  CD1       -1.2590  -31.5470    0.7770 C.3    67  LEU67       0.0001
     16  CD2       -3.7110  -31.0240    0.8740 C.3    67  LEU67       0.0001
     17  N         -2.0020  -32.5560    5.5070 N.am   68  ALA68      -0.1980
     18  CA        -1.7370  -31.7350    6.7080 C.3    68  ALA68       0.1597
     19  C         -0.3430  -32.0830    7.2500 C.2    68  ALA68       0.2287
     20  O          0.3590  -31.1630    7.6760 O.2    68  ALA68      -0.2864
     21  CB        -2.8030  -31.9500    7.7580 C.3    68  ALA68       0.0319
     22  N          3.0650  -30.8100    4.2060 N.3    71  PRO71      -0.2116
     23  CA         2.8030  -29.5550    3.4930 C.3    71  PRO71       0.1372
     24  C          3.5370  -29.4410    2.1400 C.2    71  PRO71       0.2244
     25  O          4.7190  -29.6780    2.0780 O.2    71  PRO71      -0.2868
     26  CB         3.3130  -28.4850    4.4820 C.3    71  PRO71       0.0268
     27  CG         4.2710  -29.2490    5.3900 C.3    71  PRO71       0.0207
     28  CD         3.6020  -30.6000    5.5620 C.3    71  PRO71       0.0892
     29  N          1.0040  -19.4940   -0.3380 N.3    76  ARG76      -0.1245
     30  CA        -0.2040  -19.8080    0.4490 C.3    76  ARG76       0.1563
     31  C         -1.4110  -20.0440   -0.4770 C.2    76  ARG76       0.2260
     32  O         -2.2310  -20.8890   -0.0980 O.2    76  ARG76      -0.2867
     33  CB        -0.4540  -18.7010    1.4670 C.3    76  ARG76       0.0307
     34  CG        -0.4850  -17.3400    0.8170 C.3    76  ARG76       0.0489
     35  CD        -0.0420  -16.2680    1.7730 C.3    76  ARG76       0.2205
     36  NE        -0.6850  -15.0700    1.2690 N.pl3  76  ARG76      -0.0865
     37  CZ        -0.6850  -13.9070    1.8840 C.cat  76  ARG76       0.5346
     38  NH1       -1.3320  -12.9000    1.3260 N.pl3  76  ARG76       0.1354
     39  NH2       -0.0750  -13.7650    3.0520 N.pl3  76  ARG76       0.1354
     40  N         -1.2490  -23.5950   -1.5940 N.3    79  MET79      -0.1230
     41  CA        -1.4720  -24.5050   -0.4470 C.3    79  MET79       0.1702
     42  C         -2.9810  -24.6780   -0.1920 C.2    79  MET79       0.2592
     43  O         -3.4360  -25.8200   -0.0070 O.2    79  MET79      -0.2718
     44  CB        -0.7520  -23.9830    0.7970 C.3    79  MET79       0.0401
     45  CG         0.8030  -24.1610    0.6700 C.3    79  MET79       0.0596
     46  SD         1.7550  -23.5000    2.0930 S.3    79  MET79      -0.1393
     47  CE         1.7480  -24.9910    3.1000 C.3    79  MET79       0.0692
     48  N         -3.7500  -23.5940   -0.1870 N.am   80  TRP80      -0.1976
     49  CA        -5.2290  -23.7160   -0.0480 C.3    80  TRP80       0.1640
     50  C         -5.7680  -24.4570   -1.2620 C.2    80  TRP80       0.2290
     51  O         -6.6760  -25.3060   -1.0820 O.2    80  TRP80      -0.2864
     52  CB        -5.8810  -22.3540    0.1300 C.3    80  TRP80       0.0576
     53  CG        -5.6090  -21.7130    1.4570 C.ar   80  TRP80       0.0006
     54  CD1       -4.7960  -20.6430    1.7030 C.ar   80  TRP80       0.0946
     55  CD2       -6.1450  -22.0970    2.7380 C.ar   80  TRP80       0.0152
     56  NE1       -4.7620  -20.3690    3.0480 N.ar   80  TRP80      -0.2442
     57  CE2       -5.5720  -21.2390    3.7080 C.ar   80  TRP80       0.0810
     58  CE3       -6.9860  -23.1140    3.1810 C.ar   80  TRP80       0.0012
     59  CZ2       -5.8930  -21.3180    5.0580 C.ar   80  TRP80       0.0191
     60  CZ3       -7.2750  -23.2130    4.5280 C.ar   80  TRP80       0.0001
     61  CH2       -6.7600  -22.3110    5.4520 C.ar   80  TRP80       0.0015
     62  N         -4.3630  -26.8210   -2.9670 N.3    82  THR82      -0.1203
     63  CA        -4.0450  -28.2470   -2.7700 C.3    82  THR82       0.1994
     64  C         -5.0640  -28.8490   -1.8170 C.2    82  THR82       0.2618
     65  O         -5.5320  -29.9640   -2.0720 O.2    82  THR82      -0.2717
     66  CB        -2.5810  -28.4550   -2.3510 C.3    82  THR82       0.1784
     67  OG1       -1.7620  -27.8710   -3.3490 O.3    82  THR82      -0.2211
     68  CG2       -2.2130  -29.9270   -2.2890 C.3    82  THR82       0.0376
     69  N         -5.3920  -28.1550   -0.7380 N.am   83  GLY83      -0.1942
     70  CA        -6.3390  -28.6830    0.2450 C.3    83  GLY83       0.2014
     71  C         -7.7520  -28.7460   -0.3240 C.2    83  GLY83       0.2638
     72  O         -8.3980  -29.8270   -0.2350 O.2    83  GLY83      -0.2714
     73  N         -8.2190  -27.6790   -0.9500 N.am   84  ILE84      -0.1977
     74  CA        -9.5820  -27.7210   -1.5630 C.3    84  ILE84       0.1596
     75  C         -9.6260  -28.8490   -2.6020 C.2    84  ILE84       0.2287
     76  O        -10.6690  -29.5310   -2.7170 O.2    84  ILE84      -0.2864
     77  CB        -9.9710  -26.3500   -2.1380 C.3    84  ILE84       0.0276
     78  CG1      -10.0880  -25.3210   -1.0080 C.3    84  ILE84       0.0022
     79  CG2      -11.2670  -26.4550   -2.9220 C.3    84  ILE84       0.0022
     80  CD1      -10.0990  -23.9000   -1.4760 C.3    84  ILE84       0.0001
     81  N        -10.9930  -32.3790   -1.8990 N.3    87  PHE87      -0.1241
     82  CA       -12.4590  -32.5200   -1.9090 C.3    87  PHE87       0.1605
     83  C        -12.9440  -32.5750   -3.3540 C.2    87  PHE87       0.2264
     84  O        -13.8260  -33.3820   -3.6720 O.2    87  PHE87      -0.2867
     85  CB       -13.0840  -31.3960   -1.0830 C.3    87  PHE87       0.0534
     86  CG       -12.7350  -31.5840    0.3610 C.ar   87  PHE87      -0.0203
     87  CD1      -13.4950  -32.4100    1.1610 C.ar   87  PHE87      -0.0042
     88  CD2      -11.6100  -30.9860    0.8910 C.ar   87  PHE87      -0.0042
     89  CE1      -13.1430  -32.6120    2.4860 C.ar   87  PHE87      -0.0003
     90  CE2      -11.2460  -31.1930    2.2120 C.ar   87  PHE87      -0.0003
     91  CZ       -12.0060  -32.0160    3.0050 C.ar   87  PHE87      -0.0000
     92  N        -18.0260  -32.6290    8.4710 N.3   119  MET119     -0.1245
     93  CA       -18.0180  -31.1710    8.2130 C.3   119  MET119      0.1570
     94  C        -17.4640  -30.4610    9.4630 C.2   119  MET119      0.2261
     95  O        -16.6330  -29.5670    9.3430 O.2   119  MET119     -0.2867
     96  CB       -19.4280  -30.7050    7.8520 C.3   119  MET119      0.0387
     97  CG       -19.8670  -31.1380    6.4740 C.3   119  MET119      0.0595
     98  SD       -18.8840  -30.2970    5.1500 S.3   119  MET119     -0.1393
     99  CE       -19.4040  -28.5880    5.2550 C.3   119  MET119      0.0692
    100  N        -13.6350  -30.8780    9.4560 N.3   122  TRP122     -0.1241
    101  CA       -12.9730  -30.1350    8.3580 C.3   122  TRP122      0.1605
    102  C        -13.0290  -28.6300    8.6500 C.2   122  TRP122      0.2264
    103  O        -12.0510  -27.9490    8.4480 O.2   122  TRP122     -0.2867
    104  CB       -13.6500  -30.5070    7.0320 C.3   122  TRP122      0.0550
    105  CG       -13.4840  -31.9640    6.7110 C.ar  122  TRP122      0.0003
    106  CD1      -12.4310  -32.7590    7.0900 C.ar  122  TRP122      0.0946
    107  CD2      -14.3000  -32.7570    5.8400 C.ar  122  TRP122      0.0152
    108  NE1      -12.5810  -34.0080    6.5700 N.ar  122  TRP122     -0.2442
    109  CE2      -13.7240  -34.0550    5.8220 C.ar  122  TRP122      0.0810
    110  CE3      -15.5300  -32.5590    5.1950 C.ar  122  TRP122      0.0012
    111  CZ2      -14.2820  -35.1010    5.0920 C.ar  122  TRP122      0.0191
    112  CZ3      -16.0990  -33.6060    4.4970 C.ar  122  TRP122      0.0001
    113  CH2      -15.4880  -34.8580    4.4620 C.ar  122  TRP122      0.0015
    114  N        -10.4850  -27.9980   11.4490 N.3   125  TYR125     -0.1227
    115  CA        -9.0980  -27.9710   10.8890 C.3   125  TYR125      0.1736
    116  C         -8.8550  -26.6690   10.1040 C.2   125  TYR125      0.2596
    117  O         -7.8010  -26.0210   10.2300 O.2   125  TYR125     -0.2718
    118  CB        -8.8450  -29.2280   10.0520 C.3   125  TYR125      0.0548
    119  CG        -7.5540  -29.1760    9.3010 C.ar  125  TYR125     -0.0200
    120  CD1       -6.3380  -29.1610    9.9580 C.ar  125  TYR125     -0.0009
    121  CD2       -7.5550  -29.0900    7.9210 C.ar  125  TYR125     -0.0009
    122  CE1       -5.1440  -29.0770    9.2690 C.ar  125  TYR125      0.0417
    123  CE2       -6.3730  -28.9960    7.2110 C.ar  125  TYR125      0.0417
    124  CZ        -5.1600  -29.0010    7.8860 C.ar  125  TYR125      0.1957
    125  OH        -4.0080  -28.8240    7.1670 O.3   125  TYR125     -0.2866
    126  N         -9.8340  -26.2360    9.2960 N.am  126  THR126     -0.1953
    127  CA        -9.7670  -24.9590    8.5280 C.3   126  THR126      0.1897
    128  C         -9.4940  -23.7910    9.5020 C.2   126  THR126      0.2313
    129  O         -8.6290  -22.9900    9.2510 O.2   126  THR126     -0.2863
    130  CB       -11.0510  -24.7170    7.7050 C.3   126  THR126      0.1794
    131  OG1      -11.3230  -25.7840    6.7660 O.3   126  THR126     -0.2208
    132  CG2      -11.0050  -23.4080    6.9520 C.3   126  THR126      0.0378
    133  N         -5.9010  -23.7500   10.8930 N.3   129  VAL129     -0.1245
    134  CA        -4.9040  -23.2190    9.9300 C.3   129  VAL129      0.1561
    135  C         -5.0680  -21.7010    9.8220 C.2   129  VAL129      0.2260
    136  O         -4.0790  -21.0290    9.8310 O.2   129  VAL129     -0.2867
    137  CB        -4.9880  -23.9340    8.5650 C.3   129  VAL129      0.0252
    138  CG1       -4.0390  -23.3010    7.5720 C.3   129  VAL129      0.0019
    139  CG2       -4.7410  -25.4300    8.6950 C.3   129  VAL129      0.0019
    140  N         -2.1520  -19.0190   10.6670 N.3   133  GLU133     -0.1245
    141  CA        -1.8050  -17.9670    9.6970 C.3   133  GLU133      0.1567
    142  C         -1.8630  -16.5880   10.3780 C.2   133  GLU133      0.2260
    143  O         -1.0340  -15.7280   10.0740 O.2   133  GLU133     -0.2867
    144  CB        -2.7420  -18.0490    8.4850 C.3   133  GLU133      0.0388
    145  CG        -2.4520  -19.2050    7.5490 C.3   133  GLU133      0.1160
    146  CD        -1.0850  -19.1380    6.8760 C.2   133  GLU133      0.3649
    147  OE1       -0.9650  -18.5930    5.7920 O.co2 133  GLU133     -0.2457
    148  OE2       -0.1530  -19.5560    7.4990 O.co2 133  GLU133     -0.2457
    149  N        -16.5650  -23.5750    4.2560 N.3   153  ASN153     -0.1240
    150  CA       -16.7810  -25.0210    4.0730 C.3   153  ASN153      0.1653
    151  C        -18.1850  -25.2550    3.5090 C.2   153  ASN153      0.2266
    152  O        -18.3210  -26.1310    2.6670 O.2   153  ASN153     -0.2867
    153  CB       -16.5470  -25.7910    5.3850 C.3   153  ASN153      0.1155
    154  CG       -15.0990  -26.1520    5.6590 C.2   153  ASN153      0.2627
    155  OD1      -14.8060  -27.3310    5.6930 O.2   153  ASN153     -0.2716
    156  ND2      -14.2210  -25.1960    5.9200 N.am  153  ASN153     -0.0877
    157  N        -18.1840  -24.4390   -0.1050 N.3   156  ASN156     -0.1225
    158  CA       -17.5820  -25.5300   -0.9060 C.3   156  ASN156      0.1785
    159  C        -18.5080  -26.7300   -1.0290 C.2   156  ASN156      0.2597
    160  O        -18.5940  -27.2900   -2.1810 O.2   156  ASN156     -0.2718
    161  CB       -16.2600  -25.9280   -0.3180 C.3   156  ASN156      0.1169
    162  CG       -15.1670  -24.9350   -0.5850 C.2   156  ASN156      0.2627
    163  OD1      -15.4180  -23.7780   -0.9340 O.2   156  ASN156     -0.2716
    164  ND2      -13.9370  -25.4180   -0.4670 N.am  156  ASN156     -0.0877
    165  N        -19.1710  -27.1420    0.0620 N.am  157  GLU157     -0.1979
    166  CA       -20.1480  -28.2580    0.0390 C.3   157  GLU157      0.1602
    167  C        -21.1850  -27.9910   -1.0750 C.2   157  GLU157      0.2287
    168  O        -21.4100  -28.8390   -2.0130 O.2   157  GLU157     -0.2864
    169  CB       -20.8500  -28.4060    1.3980 C.3   157  GLU157      0.0415
    170  CG       -21.9310  -29.4480    1.3720 C.3   157  GLU157      0.1163
    171  CD       -22.8300  -29.4250    2.5980 C.2   157  GLU157      0.3649
    172  OE1      -22.3160  -29.2350    3.6270 O.co2 157  GLU157     -0.2457
    173  OE2      -24.0910  -29.5430    2.4630 O.co2 157  GLU157     -0.2457
    174  N        -19.4290  -27.2760   -4.9030 N.3   160  LEU160     -0.1245
    175  CA       -18.9020  -28.5440   -5.4860 C.3   160  LEU160      0.1561
    176  C        -20.0470  -29.4390   -5.9260 C.2   160  LEU160      0.2260
    177  O        -20.0180  -29.9090   -7.0910 O.2   160  LEU160     -0.2867
    178  CB       -17.9790  -29.2750   -4.5200 C.3   160  LEU160      0.0270
    179  CG       -16.6470  -28.5600   -4.3120 C.3   160  LEU160      0.0019
    180  CD1      -15.8340  -29.3250   -3.2860 C.3   160  LEU160      0.0001
    181  CD2      -15.9040  -28.3960   -5.6380 C.3   160  LEU160      0.0001
    182  N        -11.5790  -18.1280   -0.9390 N.3   184  TRP184     -0.1241
    183  CA       -10.8950  -18.5570    0.3240 C.3   184  TRP184      0.1605
    184  C         -9.7220  -17.6100    0.5960 C.2   184  TRP184      0.2264
    185  O         -9.6460  -17.0010    1.6870 O.2   184  TRP184     -0.2867
    186  CB       -10.4220  -19.9950    0.2520 C.3   184  TRP184      0.0550
    187  CG       -11.4850  -21.0150    0.5060 C.ar  184  TRP184      0.0003
    188  CD1      -12.6820  -21.1960   -0.1350 C.ar  184  TRP184      0.0946
    189  CD2      -11.4000  -22.0630    1.4760 C.ar  184  TRP184      0.0152
    190  NE1      -13.3380  -22.2650    0.3960 N.ar  184  TRP184     -0.2442
    191  CE2      -12.5880  -22.8040    1.4000 C.ar  184  TRP184      0.0810
    192  CE3      -10.4740  -22.3840    2.4690 C.ar  184  TRP184      0.0012
    193  CZ2      -12.8670  -23.8710    2.2490 C.ar  184  TRP184      0.0191
    194  CZ3      -10.7270  -23.4700    3.2790 C.ar  184  TRP184      0.0001
    195  CH2      -11.8980  -24.1980    3.1740 C.ar  184  TRP184      0.0015
    196  N         -7.0980  -13.6750    3.7850 N.3   189  TYR189     -0.1241
    197  CA        -5.9210  -12.7650    3.8230 C.3   189  TYR189      0.1605
    198  C         -6.3360  -11.3050    3.6860 C.2   189  TYR189      0.2264
    199  O         -5.4890  -10.4610    3.9790 O.2   189  TYR189     -0.2867
    200  CB        -4.8570  -13.1900    2.8150 C.3   189  TYR189      0.0534
    201  CG        -4.2830  -14.5380    3.1470 C.ar  189  TYR189     -0.0201
    202  CD1       -3.3350  -14.7340    4.1520 C.ar  189  TYR189     -0.0009
    203  CD2       -4.7260  -15.6520    2.4740 C.ar  189  TYR189     -0.0009
    204  CE1       -2.9160  -16.0060    4.5230 C.ar  189  TYR189      0.0417
    205  CE2       -4.2510  -16.9080    2.7730 C.ar  189  TYR189      0.0417
    206  CZ        -3.3520  -17.0990    3.8010 C.ar  189  TYR189      0.1957
    207  OH        -2.9870  -18.3770    4.1070 O.3   189  TYR189     -0.2866
@<TRIPOS>BOND
     1   177   176    2
     2   176   175    1
     3   181   179    1
     4   175   174    1
     5   175   178    1
     6   178   179    1
     7   179   180    1
     8    84    83    2
     9    83    82    1
    10    67    66    1
    11    62    63    1
    12    79    77    1
    13    63    66    1
    14    63    64    1
    15    76    75    2
    16    75    74    1
    17    66    68    1
    18   160   159    2
    19    77    74    1
    20    77    78    1
    21    65    64    2
    22   168   167    2
    23    82    81    1
    24    82    85    1
    25    64    69   am
    26    40    41    1
    27    74    73    1
    28    80    78    1
    29    50    51    2
    30    50    49    1
    31    85    86    1
    32   167   166    1
    33   159   158    1
    34   159   165   am
    35    73    71   am
    36   182   183    1
    37   163   162    2
    38   158   161    1
    39   158   157    1
    40    69    70    1
    41   162   164   am
    42   162   161    1
    43    31    32    2
    44    31    30    1
    45    41    42    1
    46    41    44    1
    47    29    30    1
    48    71    72    2
    49    71    70    1
    50    42    48   am
    51    42    43    2
    52    48    49    1
    53   188   190   ar
    54   188   187   ar
    55    49    52    1
    56   166   165    1
    57   166   169    1
    58    52    53    1
    59   186   183    1
    60   186   187    1
    61   183   184    1
    62    86    88   ar
    63    86    87   ar
    64   190   191   ar
    65    30    33    1
    66   187   189   ar
    67   184   185    2
    68    45    44    1
    69    45    46    1
    70    15    14    1
    71    34    33    1
    72    34    35    1
    73    16    14    1
    74    88    90   ar
    75    87    89   ar
    76    36    35    1
    77    36    37    2
    78    38    37    1
    79   170   169    1
    80   170   171    1
    81   191   189   ar
    82   191   193   ar
    83    53    54   ar
    84    53    55   ar
    85   189   192   ar
    86    14    13    1
    87    54    56   ar
    88    37    39    1
    89    25    24    2
    90    46    47    1
    91    24    23    1
    92    90    91   ar
    93   193   195   ar
    94    13    10    1
    95   173   171   ar
    96   192   194   ar
    97   203   205   ar
    98   203   201   ar
    99    89    91   ar
   100   171   172   ar
   101   152   151    2
   102    55    58   ar
   103    55    57   ar
   104   205   206   ar
   105   200   201    1
   106   200   197    1
   107    56    57   ar
   108   201   202   ar
   109   195   194   ar
   110    58    60   ar
   111    10     9    1
   112    10    11    1
   113     1     2    1
   114    23    22    1
   115    23    26    1
   116   151   150    1
   117   198   197    1
   118   198   199    2
   119    57    59   ar
   120   196   197    1
   121   206   207    1
   122   206   204   ar
   123     7     6    1
   124     2     5    1
   125     2     3    1
   126   150   149    1
   127   150   153    1
   128   202   204   ar
   129    22    28    1
   130     5     6    1
   131    12    11    2
   132    11    17   am
   133   113   112   ar
   134   113   111   ar
   135    26    27    1
   136   112   110   ar
   137    60    61   ar
   138     6     8    1
   139    59    61   ar
   140   111   109   ar
   141     3     4    2
   142    98    99    1
   143    98    97    1
   144   110   107   ar
   145   153   154    1
   146    27    28    1
   147    17    18    1
   148   154   155    2
   149   154   156   am
   150   147   146   ar
   151   109   107   ar
   152   109   108   ar
   153   107   105   ar
   154    97    96    1
   155   108   106   ar
   156    18    19    1
   157    18    21    1
   158   105   104    1
   159   105   106   ar
   160   131   130    1
   161   146   148   ar
   162   146   145    1
   163   132   130    1
   164   104   101    1
   165   125   124    1
   166   123   124   ar
   167   123   121   ar
   168    19    20    2
   169   145   144    1
   170   138   137    1
   171   130   127    1
   172    96    93    1
   173   124   122   ar
   174   121   119   ar
   175    93    92    1
   176    93    94    1
   177   101   102    1
   178   101   100    1
   179   103   102    2
   180   144   141    1
   181   127   126    1
   182   127   128    1
   183   137   139    1
   184   137   134    1
   185   129   128    2
   186   122   120   ar
   187   126   116   am
   188   119   120   ar
   189   119   118    1
   190    95    94    2
   191   141   142    1
   192   141   140    1
   193   135   136    2
   194   135   134    1
   195   134   133    1
   196   118   115    1
   197   143   142    2
   198   116   117    2
   199   116   115    1
   200   115   114    1
