@<TRIPOS>MOLECULE
tmp/6hoeA00.pdb
 212 208 0 0 0
SMALL
GASTEIGER

@<TRIPOS>ATOM
      1  N         -6.9310  -35.5740    3.4040 N.3    64  LEU64      -0.1245
      2  CA        -6.6870  -34.2750    4.0820 C.3    64  LEU64       0.1561
      3  C         -5.6760  -34.4750    5.2370 C.2    64  LEU64       0.2260
      4  O         -4.7340  -33.6380    5.3780 O.2    64  LEU64      -0.2867
      5  CB        -8.0260  -33.6960    4.5500 C.3    64  LEU64       0.0270
      6  CG        -7.9590  -32.2850    5.1310 C.3    64  LEU64       0.0019
      7  CD1       -7.5140  -31.2760    4.0830 C.3    64  LEU64       0.0001
      8  CD2       -9.3030  -31.8920    5.7230 C.3    64  LEU64       0.0001
      9  N         -2.1160  -34.4990    3.7140 N.3    67  LEU67      -0.1231
     10  CA        -1.6430  -33.1130    3.4570 C.3    67  LEU67       0.1693
     11  C         -1.1980  -32.4500    4.7560 C.2    67  LEU67       0.2591
     12  O         -0.1680  -31.7500    4.7460 O.2    67  LEU67      -0.2718
     13  CB        -2.7810  -32.2990    2.8360 C.3    67  LEU67       0.0284
     14  CG        -3.0240  -32.5840    1.3650 C.3    67  LEU67       0.0019
     15  CD1       -4.1490  -31.7100    0.8450 C.3    67  LEU67       0.0001
     16  CD2       -1.7450  -32.3550    0.5820 C.3    67  LEU67       0.0001
     17  N         -1.9950  -32.6000    5.8120 N.am   68  ALA68      -0.1980
     18  CA        -1.7820  -31.9190    7.1010 C.3    68  ALA68       0.1597
     19  C         -0.4710  -32.4020    7.7390 C.2    68  ALA68       0.2287
     20  O          0.1110  -31.6310    8.4940 O.2    68  ALA68      -0.2864
     21  CB        -2.9540  -32.1680    8.0050 C.3    68  ALA68       0.0319
     22  N          2.3500  -33.4040    6.2300 N.3    70  ASN70      -0.1240
     23  CA         3.5400  -33.1920    5.3630 C.3    70  ASN70       0.1653
     24  C          4.0050  -31.7200    5.4500 C.2    70  ASN70       0.2266
     25  O          3.2270  -30.8070    5.1220 O.2    70  ASN70      -0.2867
     26  CB         3.2510  -33.8260    3.9980 C.3    70  ASN70       0.1155
     27  CG         3.4700  -35.3300    4.0470 C.2    70  ASN70       0.2627
     28  OD1        4.4730  -35.8120    3.5500 O.2    70  ASN70      -0.2716
     29  ND2        2.5980  -36.0890    4.6910 N.am   70  ASN70      -0.0877
     30  N         -1.4910  -23.8340   -1.0150 N.3    75  MET75      -0.1230
     31  CA        -1.8230  -24.6160    0.2030 C.3    75  MET75       0.1702
     32  C         -3.3430  -24.8060    0.2380 C.2    75  MET75       0.2592
     33  O         -3.8030  -25.9490    0.4510 O.2    75  MET75      -0.2718
     34  CB        -1.3460  -23.9060    1.4770 C.3    75  MET75       0.0401
     35  CG        -1.9700  -24.4470    2.7790 C.3    75  MET75       0.0596
     36  SD        -1.2930  -23.6650    4.3020 S.3    75  MET75      -0.1393
     37  CE        -2.3040  -22.1870    4.3970 C.3    75  MET75       0.0692
     38  N         -4.1090  -23.7260    0.0460 N.am   76  TRP76      -0.1976
     39  CA        -5.5860  -23.8070    0.1420 C.3    76  TRP76       0.1640
     40  C         -6.1070  -24.6010   -1.0500 C.2    76  TRP76       0.2290
     41  O         -6.9870  -25.4410   -0.8350 O.2    76  TRP76      -0.2864
     42  CB        -6.2360  -22.4160    0.2900 C.3    76  TRP76       0.0576
     43  CG        -5.9600  -21.8110    1.6370 C.ar   76  TRP76       0.0006
     44  CD1       -5.1250  -20.7610    1.9290 C.ar   76  TRP76       0.0946
     45  CD2       -6.4950  -22.2520    2.9000 C.ar   76  TRP76       0.0152
     46  NE1       -5.1110  -20.5340    3.2840 N.ar   76  TRP76      -0.2442
     47  CE2       -5.9180  -21.4430    3.9060 C.ar   76  TRP76       0.0810
     48  CE3       -7.3660  -23.2750    3.2820 C.ar   76  TRP76       0.0012
     49  CZ2       -6.2390  -21.5810    5.2570 C.ar   76  TRP76       0.0191
     50  CZ3       -7.6560  -23.4360    4.6230 C.ar   76  TRP76       0.0001
     51  CH2       -7.1210  -22.5900    5.5920 C.ar   76  TRP76       0.0015
     52  N         -4.6960  -27.0330   -2.6860 N.3    78  THR78      -0.1203
     53  CA        -4.3940  -28.4640   -2.4970 C.3    78  THR78       0.1994
     54  C         -5.4070  -29.0800   -1.5410 C.2    78  THR78       0.2618
     55  O         -5.8000  -30.2220   -1.7880 O.2    78  THR78      -0.2717
     56  CB        -2.9380  -28.7130   -2.0740 C.3    78  THR78       0.1784
     57  OG1       -2.7820  -28.1380   -0.7750 O.3    78  THR78      -0.2211
     58  CG2       -1.9620  -28.1100   -3.0460 C.3    78  THR78       0.0376
     59  N         -5.8120  -28.3720   -0.4880 N.am   79  GLY79      -0.1942
     60  CA        -6.8570  -28.8530    0.4460 C.3    79  GLY79       0.2014
     61  C         -8.2280  -28.9340   -0.2040 C.2    79  GLY79       0.2638
     62  O         -8.8710  -29.9960   -0.1700 O.2    79  GLY79      -0.2714
     63  N         -8.6580  -27.8660   -0.8560 N.am   80  ILE80      -0.1977
     64  CA        -9.9600  -27.8820   -1.5570 C.3    80  ILE80       0.1596
     65  C         -9.9630  -29.0030   -2.6070 C.2    80  ILE80       0.2287
     66  O        -10.9890  -29.6860   -2.7680 O.2    80  ILE80      -0.2864
     67  CB       -10.2380  -26.5100   -2.1840 C.3    80  ILE80       0.0276
     68  CG1      -10.2780  -25.4210   -1.0950 C.3    80  ILE80       0.0022
     69  CG2      -11.5030  -26.6120   -2.9990 C.3    80  ILE80       0.0022
     70  CD1      -10.4390  -23.9980   -1.6000 C.3    80  ILE80       0.0001
     71  N        -11.3160  -32.5810   -1.9380 N.3    83  PHE83      -0.1241
     72  CA       -12.7920  -32.7220   -1.9410 C.3    83  PHE83       0.1605
     73  C        -13.3170  -32.7360   -3.3800 C.2    83  PHE83       0.2264
     74  O        -14.1580  -33.5820   -3.7390 O.2    83  PHE83      -0.2867
     75  CB       -13.4010  -31.6190   -1.0760 C.3    83  PHE83       0.0534
     76  CG       -13.0700  -31.7970    0.3790 C.ar   83  PHE83      -0.0203
     77  CD1      -13.6950  -32.7710    1.1250 C.ar   83  PHE83      -0.0042
     78  CD2      -12.0290  -31.0930    0.9530 C.ar   83  PHE83      -0.0042
     79  CE1      -13.3360  -33.0080    2.4500 C.ar   83  PHE83      -0.0003
     80  CE2      -11.6630  -31.3250    2.2760 C.ar   83  PHE83      -0.0003
     81  CZ       -12.3170  -32.2900    3.0210 C.ar   83  PHE83      -0.0000
     82  N        -14.7930  -36.4830   -4.1280 N.3    87  PHE87      -0.1241
     83  CA       -16.2570  -36.5440   -4.3420 C.3    87  PHE87       0.1605
     84  C        -16.4840  -36.5230   -5.8560 C.2    87  PHE87       0.2264
     85  O        -17.4230  -37.1670   -6.3400 O.2    87  PHE87      -0.2867
     86  CB       -16.9790  -35.4340   -3.5770 C.3    87  PHE87       0.0534
     87  CG       -17.0140  -35.7140   -2.0980 C.ar   87  PHE87      -0.0203
     88  CD1      -17.9340  -36.6150   -1.5780 C.ar   87  PHE87      -0.0042
     89  CD2      -16.1490  -35.0720   -1.2300 C.ar   87  PHE87      -0.0042
     90  CE1      -17.9510  -36.8980   -0.2220 C.ar   87  PHE87      -0.0003
     91  CE2      -16.1360  -35.3990    0.1260 C.ar   87  PHE87      -0.0003
     92  CZ       -17.0320  -36.3040    0.6240 C.ar   87  PHE87      -0.0000
     93  N        -22.5130  -37.2620    7.7760 N.3   111  TRP111     -0.1241
     94  CA       -22.1830  -36.0190    7.0450 C.3   111  TRP111      0.1605
     95  C        -21.8470  -34.9330    8.0700 C.2   111  TRP111      0.2264
     96  O        -20.7840  -34.2730    7.9880 O.2   111  TRP111     -0.2867
     97  CB       -23.3140  -35.6040    6.0930 C.3   111  TRP111      0.0550
     98  CG       -22.7940  -34.5240    5.2090 C.ar  111  TRP111      0.0003
     99  CD1      -23.0340  -33.1810    5.2790 C.ar  111  TRP111      0.0946
    100  CD2      -21.7640  -34.6990    4.2260 C.ar  111  TRP111      0.0152
    101  NE1      -22.2940  -32.5240    4.3310 N.ar  111  TRP111     -0.2442
    102  CE2      -21.5040  -33.4280    3.6730 C.ar  111  TRP111      0.0810
    103  CE3      -21.0970  -35.8170    3.7150 C.ar  111  TRP111      0.0012
    104  CZ2      -20.5450  -33.2420    2.6810 C.ar  111  TRP111      0.0191
    105  CZ3      -20.1690  -35.6330    2.7140 C.ar  111  TRP111      0.0001
    106  CH2      -19.9130  -34.3640    2.1970 C.ar  111  TRP111      0.0015
    107  N        -18.2330  -32.9740    8.4870 N.3   115  MET115     -0.1245
    108  CA       -18.2520  -31.4910    8.2510 C.3   115  MET115      0.1570
    109  C        -17.7090  -30.7530    9.4880 C.2   115  MET115      0.2261
    110  O        -16.9080  -29.7850    9.3520 O.2   115  MET115     -0.2867
    111  CB       -19.6690  -31.0340    7.8990 C.3   115  MET115      0.0387
    112  CG       -20.0660  -31.4260    6.4780 C.3   115  MET115      0.0595
    113  SD       -19.0580  -30.5730    5.1760 S.3   115  MET115     -0.1393
    114  CE       -19.8730  -28.9730    5.1900 C.3   115  MET115      0.0692
    115  N        -13.9100  -31.1840    9.4500 N.3   118  TRP118     -0.1241
    116  CA       -13.2220  -30.3910    8.3840 C.3   118  TRP118      0.1605
    117  C        -13.2360  -28.8920    8.7050 C.2   118  TRP118      0.2264
    118  O        -12.2200  -28.1980    8.4570 O.2   118  TRP118     -0.2867
    119  CB       -13.8620  -30.7120    7.0330 C.3   118  TRP118      0.0550
    120  CG       -13.7330  -32.1570    6.6840 C.ar  118  TRP118      0.0003
    121  CD1      -12.7060  -32.9800    7.0490 C.ar  118  TRP118      0.0946
    122  CD2      -14.6070  -32.9480    5.8580 C.ar  118  TRP118      0.0152
    123  NE1      -12.9030  -34.2320    6.5400 N.ar  118  TRP118     -0.2442
    124  CE2      -14.0530  -34.2440    5.8050 C.ar  118  TRP118      0.0810
    125  CE3      -15.8020  -32.7030    5.1740 C.ar  118  TRP118      0.0012
    126  CZ2      -14.6420  -35.2780    5.0800 C.ar  118  TRP118      0.0191
    127  CZ3      -16.4140  -33.7280    4.5070 C.ar  118  TRP118      0.0001
    128  CH2      -15.8200  -34.9970    4.4330 C.ar  118  TRP118      0.0015
    129  N        -10.7190  -28.2330   11.4330 N.3   121  TYR121     -0.1227
    130  CA        -9.3500  -28.2380   10.8520 C.3   121  TYR121      0.1736
    131  C         -9.1410  -26.9360   10.0520 C.2   121  TYR121      0.2596
    132  O         -8.0990  -26.2920   10.1770 O.2   121  TYR121     -0.2718
    133  CB        -9.0120  -29.5000   10.0420 C.3   121  TYR121      0.0548
    134  CG        -7.6060  -29.4670    9.5100 C.ar  121  TYR121     -0.0200
    135  CD1       -6.5260  -29.3570   10.3780 C.ar  121  TYR121     -0.0009
    136  CD2       -7.3300  -29.4810    8.1550 C.ar  121  TYR121     -0.0009
    137  CE1       -5.2170  -29.2940    9.9310 C.ar  121  TYR121      0.0417
    138  CE2       -6.0200  -29.4060    7.6920 C.ar  121  TYR121      0.0417
    139  CZ        -4.9610  -29.2940    8.5770 C.ar  121  TYR121      0.1957
    140  OH        -3.6620  -29.1990    8.1410 O.3   121  TYR121     -0.2866
    141  N        -10.1300  -26.5210    9.2700 N.am  122  THR122     -0.1953
    142  CA       -10.0730  -25.2360    8.5270 C.3   122  THR122      0.1897
    143  C         -9.7810  -24.1150    9.5300 C.2   122  THR122      0.2313
    144  O         -8.8690  -23.3080    9.2460 O.2   122  THR122     -0.2863
    145  CB       -11.3620  -24.9560    7.7320 C.3   122  THR122      0.1794
    146  OG1      -11.6300  -26.0610    6.8560 O.3   122  THR122     -0.2208
    147  CG2      -11.2660  -23.6660    6.9550 C.3   122  THR122      0.0378
    148  N         -6.2330  -24.0150   10.9370 N.3   125  VAL125     -0.1245
    149  CA        -5.2150  -23.5220    9.9700 C.3   125  VAL125      0.1561
    150  C         -5.3740  -21.9990    9.8630 C.2   125  VAL125      0.2260
    151  O         -4.3690  -21.3060    9.8600 O.2   125  VAL125     -0.2867
    152  CB        -5.3040  -24.2810    8.6250 C.3   125  VAL125      0.0252
    153  CG1       -4.3750  -23.7110    7.5800 C.3   125  VAL125      0.0019
    154  CG2       -5.0130  -25.7620    8.8180 C.3   125  VAL125      0.0019
    155  N        -16.8120  -23.8890    4.2610 N.3   149  ASN149     -0.1240
    156  CA       -17.0530  -25.3510    4.1380 C.3   149  ASN149      0.1653
    157  C        -18.4520  -25.5870    3.5460 C.2   149  ASN149      0.2266
    158  O        -18.5910  -26.4390    2.6540 O.2   149  ASN149     -0.2867
    159  CB       -16.8670  -26.0680    5.4790 C.3   149  ASN149      0.1155
    160  CG       -15.4400  -26.5250    5.7040 C.2   149  ASN149      0.2627
    161  OD1      -15.1750  -27.7260    5.6080 O.2   149  ASN149     -0.2716
    162  ND2      -14.5350  -25.5980    5.9820 N.am  149  ASN149     -0.0877
    163  N        -18.4590  -24.7690   -0.1030 N.3   152  ASN152     -0.1225
    164  CA       -17.8190  -25.8460   -0.9010 C.3   152  ASN152      0.1785
    165  C        -18.8140  -26.9800   -1.1230 C.2   152  ASN152      0.2597
    166  O        -18.9050  -27.4850   -2.2610 O.2   152  ASN152     -0.2718
    167  CB       -16.4930  -26.3070   -0.2960 C.3   152  ASN152      0.1169
    168  CG       -15.4050  -25.2950   -0.5850 C.2   152  ASN152      0.2627
    169  OD1      -15.7000  -24.1380   -0.9040 O.2   152  ASN152     -0.2716
    170  ND2      -14.1540  -25.7130   -0.4590 N.am  152  ASN152     -0.0877
    171  N        -19.4960  -27.4080   -0.0660 N.am  153  GLU153     -0.1979
    172  CA       -20.4850  -28.4960   -0.1270 C.3   153  GLU153      0.1602
    173  C        -21.5050  -28.1710   -1.2350 C.2   153  GLU153      0.2287
    174  O        -21.7340  -29.0040   -2.1370 O.2   153  GLU153     -0.2864
    175  CB       -21.1400  -28.6600    1.2400 C.3   153  GLU153      0.0415
    176  CG       -22.2450  -29.6640    1.2330 C.3   153  GLU153      0.1163
    177  CD       -23.1540  -29.6830    2.4650 C.2   153  GLU153      0.3649
    178  OE1      -22.6550  -29.7960    3.5830 O.co2 153  GLU153     -0.2457
    179  OE2      -24.3610  -29.5760    2.2940 O.co2 153  GLU153     -0.2457
    180  N        -19.5930  -27.4140   -4.9380 N.3   156  LEU156     -0.1231
    181  CA       -19.0240  -28.6390   -5.5480 C.3   156  LEU156      0.1693
    182  C        -20.1470  -29.5500   -6.0270 C.2   156  LEU156      0.2592
    183  O        -20.0890  -30.0380   -7.2020 O.2   156  LEU156     -0.2718
    184  CB       -18.1150  -29.3910   -4.5860 C.3   156  LEU156      0.0284
    185  CG       -16.7740  -28.7130   -4.3440 C.3   156  LEU156      0.0019
    186  CD1      -16.0170  -29.4550   -3.2500 C.3   156  LEU156      0.0001
    187  CD2      -15.9460  -28.5940   -5.6240 C.3   156  LEU156      0.0001
    188  N        -21.1120  -29.8080   -5.1650 N.am  157  PHE157     -0.1976
    189  CA       -22.1410  -30.8380   -5.4410 C.3   157  PHE157      0.1639
    190  C        -23.0890  -30.3050   -6.5350 C.2   157  PHE157      0.2290
    191  O        -23.4730  -31.1030   -7.4040 O.2   157  PHE157     -0.2864
    192  CB       -22.7740  -31.3110   -4.1290 C.3   157  PHE157      0.0560
    193  CG       -21.7950  -31.9400   -3.1570 C.ar  157  PHE157     -0.0200
    194  CD1      -20.5020  -32.3020   -3.5260 C.ar  157  PHE157     -0.0042
    195  CD2      -22.1830  -32.2250   -1.8550 C.ar  157  PHE157     -0.0042
    196  CE1      -19.6060  -32.8370   -2.6040 C.ar  157  PHE157     -0.0003
    197  CE2      -21.3110  -32.8250   -0.9450 C.ar  157  PHE157     -0.0003
    198  CZ       -20.0220  -33.1250   -1.3140 C.ar  157  PHE157     -0.0000
    199  N        -11.8430  -18.4290   -0.9340 N.3   180  TRP180     -0.1241
    200  CA       -11.1880  -18.8480    0.3340 C.3   180  TRP180      0.1605
    201  C        -10.0440  -17.8780    0.6320 C.2   180  TRP180      0.2264
    202  O        -10.0080  -17.2770    1.7410 O.2   180  TRP180     -0.2867
    203  CB       -10.7230  -20.2950    0.2970 C.3   180  TRP180      0.0550
    204  CG       -11.7880  -21.3150    0.5640 C.ar  180  TRP180      0.0003
    205  CD1      -12.9650  -21.4790   -0.1050 C.ar  180  TRP180      0.0946
    206  CD2      -11.7510  -22.3500    1.5680 C.ar  180  TRP180      0.0152
    207  NE1      -13.6560  -22.5380    0.4240 N.ar  180  TRP180     -0.2442
    208  CE2      -12.9410  -23.0880    1.4500 C.ar  180  TRP180      0.0810
    209  CE3      -10.8330  -22.7260    2.5560 C.ar  180  TRP180      0.0012
    210  CZ2      -13.2410  -24.1630    2.2830 C.ar  180  TRP180      0.0191
    211  CZ3      -11.1160  -23.8080    3.3640 C.ar  180  TRP180      0.0001
    212  CH2      -12.3060  -24.5140    3.2330 C.ar  180  TRP180      0.0015
@<TRIPOS>BOND
     1   191   190    2
     2   183   182    2
     3   190   189    1
     4    85    84    2
     5   182   181    1
     6   182   188   am
     7    84    83    1
     8   187   185    1
     9   181   180    1
    10   181   184    1
    11   189   188    1
    12   189   192    1
    13   184   185    1
    14   185   186    1
    15    83    82    1
    16    83    86    1
    17   192   193    1
    18    74    73    2
    19    86    87    1
    20   194   193   ar
    21   194   196   ar
    22    73    72    1
    23   193   195   ar
    24    58    56    1
    25    69    67    1
    26    66    65    2
    27    52    53    1
    28    65    64    1
    29   196   198   ar
    30    53    56    1
    31    53    54    1
    32   166   165    2
    33    67    64    1
    34    67    68    1
    35   174   173    2
    36    87    88   ar
    37    87    89   ar
    38    56    57    1
    39    72    71    1
    40    72    75    1
    41   195   197   ar
    42    55    54    2
    43    70    68    1
    44    88    90   ar
    45    64    63    1
    46    54    59   am
    47   198   197   ar
    48   173   172    1
    49    89    91   ar
    50   165   164    1
    51   165   171   am
    52    75    76    1
    53    40    41    2
    54    40    39    1
    55    30    31    1
    56   199   200    1
    57   169   168    2
    58   164   167    1
    59   164   163    1
    60    63    61   am
    61   168   170   am
    62   168   167    1
    63    59    60    1
    64    90    92   ar
    65    61    62    2
    66    61    60    1
    67   172   171    1
    68   172   175    1
    69   205   207   ar
    70   205   204   ar
    71    38    39    1
    72    38    32   am
    73    91    92   ar
    74    39    42    1
    75    31    32    1
    76    31    34    1
    77    32    33    2
    78    42    43    1
    79   203   200    1
    80   203   204    1
    81   200   201    1
    82    76    78   ar
    83    76    77   ar
    84   207   208   ar
    85   204   206   ar
    86    16    14    1
    87   201   202    2
    88    15    14    1
    89    78    80   ar
    90    77    79   ar
    91   176   175    1
    92   176   177    1
    93    14    13    1
    94   208   206   ar
    95   208   210   ar
    96    34    35    1
    97   206   209   ar
    98    43    44   ar
    99    43    45   ar
   100    44    46   ar
   101   106   104   ar
   102   106   105   ar
   103    80    81   ar
   104   210   212   ar
   105   179   177   ar
   106    79    81   ar
   107   177   178   ar
   108   209   211   ar
   109   158   157    2
   110   104   102   ar
   111   105   103   ar
   112    35    36    1
   113    13    10    1
   114    45    48   ar
   115    45    47   ar
   116   212   211   ar
   117    48    50   ar
   118    46    47   ar
   119     1     2    1
   120    10     9    1
   121    10    11    1
   122   157   156    1
   123    28    27    2
   124   102   100   ar
   125   102   101   ar
   126   103   100   ar
   127    47    49   ar
   128    26    27    1
   129    26    23    1
   130    27    29   am
   131     2     5    1
   132     2     3    1
   133     7     6    1
   134   156   155    1
   135   156   159    1
   136   100    98   ar
   137    36    37    1
   138   101    99   ar
   139   128   127   ar
   140   128   126   ar
   141   127   125   ar
   142     5     6    1
   143    50    51   ar
   144    12    11    2
   145    11    17   am
   146   126   124   ar
   147    25    24    2
   148     6     8    1
   149   125   122   ar
   150   113   114    1
   151   113   112    1
   152    98    99   ar
   153    98    97    1
   154     3     4    2
   155    49    51   ar
   156    23    24    1
   157    23    22    1
   158   159   160    1
   159   161   160    2
   160   160   162   am
   161   124   122   ar
   162   124   123   ar
   163    17    18    1
   164   122   120   ar
   165    97    94    1
   166   112   111    1
   167   123   121   ar
   168   120   119    1
   169   120   121   ar
   170   146   145    1
   171   147   145    1
   172   119   116    1
   173    94    93    1
   174    94    95    1
   175    18    19    1
   176    18    21    1
   177   153   152    1
   178   138   136   ar
   179   138   139   ar
   180   145   142    1
   181    19    20    2
   182   111   108    1
   183    96    95    2
   184   140   139    1
   185   136   134   ar
   186   108   107    1
   187   108   109    1
   188   116   117    1
   189   116   115    1
   190   118   117    2
   191   142   141    1
   192   142   143    1
   193   139   137   ar
   194   152   154    1
   195   152   149    1
   196   144   143    2
   197   141   131   am
   198   110   109    2
   199   134   133    1
   200   134   135   ar
   201   151   150    2
   202   150   149    1
   203   137   135   ar
   204   149   148    1
   205   133   130    1
   206   131   132    2
   207   131   130    1
   208   130   129    1
