@<TRIPOS>MOLECULE
tmp/6hofA00.pdb
 223 219 0 0 0
SMALL
GASTEIGER

@<TRIPOS>ATOM
      1  N          6.9400   35.5770    3.4780 N.3    64  LEU64      -0.1245
      2  CA         6.6650   34.2970    4.1660 C.3    64  LEU64       0.1561
      3  C          5.6790   34.5170    5.3300 C.2    64  LEU64       0.2260
      4  O          4.7210   33.7160    5.4790 O.2    64  LEU64      -0.2867
      5  CB         8.0160   33.7510    4.6650 C.3    64  LEU64       0.0270
      6  CG         8.0210   32.3190    5.1730 C.3    64  LEU64       0.0019
      7  CD1        7.5340   31.3270    4.0980 C.3    64  LEU64       0.0001
      8  CD2        9.4230   31.9650    5.6440 C.3    64  LEU64       0.0001
      9  N          2.1560   34.6290    3.8900 N.3    67  LEU67      -0.1231
     10  CA         1.6580   33.2810    3.5860 C.3    67  LEU67       0.1693
     11  C          1.2840   32.5590    4.8740 C.2    67  LEU67       0.2591
     12  O          0.2990   31.8260    4.8190 O.2    67  LEU67      -0.2718
     13  CB         2.7410   32.5000    2.8420 C.3    67  LEU67       0.0284
     14  CG         2.9600   32.9620    1.4130 C.3    67  LEU67       0.0019
     15  CD1        4.2090   32.3080    0.8420 C.3    67  LEU67       0.0001
     16  CD2        1.7450   32.6510    0.5530 C.3    67  LEU67       0.0001
     17  N          2.0650   32.7130    5.9500 N.am   68  ALA68      -0.1980
     18  CA         1.8610   31.9760    7.2250 C.3    68  ALA68       0.1597
     19  C          0.5480   32.4350    7.8810 C.2    68  ALA68       0.2287
     20  O         -0.0720   31.6330    8.5940 O.2    68  ALA68      -0.2864
     21  CB         3.0130   32.2010    8.1630 C.3    68  ALA68       0.0319
     22  N         -2.9740   31.0660    4.9860 N.3    71  PRO71      -0.2102
     23  CA        -2.6710   29.8110    4.2880 C.3    71  PRO71       0.1504
     24  C         -3.4740   29.5860    2.9870 C.2    71  PRO71       0.2575
     25  O         -4.6770   29.4390    3.0700 O.2    71  PRO71      -0.2718
     26  CB        -2.9860   28.7300    5.3390 C.3    71  PRO71       0.0282
     27  CG        -3.8230   29.4330    6.3930 C.3    71  PRO71       0.0208
     28  CD        -3.3390   30.8660    6.3950 C.3    71  PRO71       0.0893
     29  N         -2.7890   29.5690    1.8300 N.am   72  ALA72      -0.1980
     30  CA        -3.3380   29.2240    0.4920 C.3    72  ALA72       0.1597
     31  C         -4.0200   27.8510    0.5440 C.2    72  ALA72       0.2287
     32  O         -3.6430   26.9950    1.3820 O.2    72  ALA72      -0.2864
     33  CB        -2.2660   29.2770   -0.5800 C.3    72  ALA72       0.0319
     34  N         -4.6880   24.5680   -0.8410 N.3    74  THR74      -0.1218
     35  CA        -3.9900   23.6900   -1.8090 C.3    74  THR74       0.1862
     36  C         -3.4470   22.4260   -1.1270 C.2    74  THR74       0.2287
     37  O         -3.5020   22.3220    0.1090 O.2    74  THR74      -0.2866
     38  CB        -2.9580   24.5320   -2.5710 C.3    74  THR74       0.1770
     39  OG1       -2.7080   23.8540   -3.8090 O.3    74  THR74      -0.2211
     40  CG2       -1.7150   24.8110   -1.7500 C.3    74  THR74       0.0375
     41  N          1.6310   23.7590   -1.0820 N.3    79  MET79      -0.1230
     42  CA         1.9690   24.5090    0.1530 C.3    79  MET79       0.1702
     43  C          3.4970   24.7380    0.1760 C.2    79  MET79       0.2592
     44  O          3.9550   25.8710    0.4480 O.2    79  MET79      -0.2718
     45  CB         1.5730   23.7430    1.4250 C.3    79  MET79       0.0401
     46  CG         2.3080   24.2550    2.6950 C.3    79  MET79       0.0596
     47  SD         1.6350   23.7520    4.3140 S.3    79  MET79      -0.1393
     48  CE         2.2770   22.0870    4.4220 C.3    79  MET79       0.0692
     49  N          4.2750   23.6790   -0.0280 N.am   80  TRP80      -0.1976
     50  CA         5.7510   23.8430    0.0750 C.3    80  TRP80       0.1640
     51  C          6.2610   24.6630   -1.1180 C.2    80  TRP80       0.2290
     52  O          7.1820   25.4640   -0.9250 O.2    80  TRP80      -0.2864
     53  CB         6.4620   22.4820    0.2320 C.3    80  TRP80       0.0576
     54  CG         6.1640   21.9140    1.5780 C.ar   80  TRP80       0.0006
     55  CD1        5.3240   20.8700    1.8370 C.ar   80  TRP80       0.0946
     56  CD2        6.6270   22.3760    2.8580 C.ar   80  TRP80       0.0152
     57  NE1        5.2430   20.6610    3.1880 N.ar   80  TRP80      -0.2442
     58  CE2        6.0260   21.5630    3.8400 C.ar   80  TRP80       0.0810
     59  CE3        7.4410   23.4270    3.2830 C.ar   80  TRP80       0.0012
     60  CZ2        6.2700   21.7330    5.2090 C.ar   80  TRP80       0.0191
     61  CZ3        7.6750   23.6070    4.6220 C.ar   80  TRP80       0.0001
     62  CH2        7.1210   22.7550    5.5830 C.ar   80  TRP80       0.0015
     63  N          4.7560   27.0510   -2.6720 N.3    82  THR82      -0.1203
     64  CA         4.4570   28.4710   -2.4260 C.3    82  THR82       0.1994
     65  C          5.4880   29.0750   -1.4830 C.2    82  THR82       0.2618
     66  O          5.9260   30.2030   -1.7760 O.2    82  THR82      -0.2717
     67  CB         2.9970   28.6520   -1.9650 C.3    82  THR82       0.1784
     68  OG1        2.1940   27.9630   -2.9230 O.3    82  THR82      -0.2211
     69  CG2        2.6100   30.1170   -1.8700 C.3    82  THR82       0.0376
     70  N          5.9160   28.3560   -0.4280 N.am   83  GLY83      -0.1942
     71  CA         6.9520   28.8430    0.4870 C.3    83  GLY83       0.2014
     72  C          8.3030   28.9620   -0.1800 C.2    83  GLY83       0.2638
     73  O          8.9420   30.0340   -0.0870 O.2    83  GLY83      -0.2714
     74  N          8.7560   27.9200   -0.8730 N.am   84  ILE84      -0.1977
     75  CA        10.0910   27.9850   -1.5510 C.3    84  ILE84       0.1596
     76  C         10.0860   29.1260   -2.5710 C.2    84  ILE84       0.2287
     77  O         11.0710   29.8220   -2.7530 O.2    84  ILE84      -0.2864
     78  CB        10.4210   26.6210   -2.2080 C.3    84  ILE84       0.0276
     79  CG1       10.4190   25.5080   -1.1470 C.3    84  ILE84       0.0022
     80  CG2       11.7200   26.7040   -2.9810 C.3    84  ILE84       0.0022
     81  CD1       10.5170   24.1140   -1.7010 C.3    84  ILE84       0.0001
     82  N         11.4100   32.5900   -1.7990 N.3    87  PHE87      -0.1241
     83  CA        12.8760   32.7880   -1.8620 C.3    87  PHE87       0.1605
     84  C         13.3240   32.8740   -3.3230 C.2    87  PHE87       0.2264
     85  O         14.1820   33.6920   -3.6710 O.2    87  PHE87      -0.2867
     86  CB        13.5510   31.7140   -1.0030 C.3    87  PHE87       0.0534
     87  CG        13.1450   31.8760    0.4300 C.ar   87  PHE87      -0.0203
     88  CD1       13.7430   32.8490    1.2130 C.ar   87  PHE87      -0.0042
     89  CD2       12.1160   31.1200    0.9780 C.ar   87  PHE87      -0.0042
     90  CE1       13.3130   33.0860    2.5100 C.ar   87  PHE87      -0.0003
     91  CE2       11.7230   31.3210    2.2930 C.ar   87  PHE87      -0.0003
     92  CZ        12.3150   32.3100    3.0510 C.ar   87  PHE87      -0.0000
     93  N         14.8170   36.5910   -4.0310 N.3    91  PHE91      -0.1241
     94  CA        16.2800   36.6500   -4.2730 C.3    91  PHE91       0.1605
     95  C         16.4890   36.6620   -5.7830 C.2    91  PHE91       0.2264
     96  O         17.4240   37.2840   -6.2360 O.2    91  PHE91      -0.2867
     97  CB        17.0150   35.5590   -3.4930 C.3    91  PHE91       0.0534
     98  CG        17.0640   35.8480   -2.0130 C.ar   91  PHE91      -0.0203
     99  CD1       18.0810   36.6720   -1.4930 C.ar   91  PHE91      -0.0042
    100  CD2       16.2150   35.2120   -1.1410 C.ar   91  PHE91      -0.0042
    101  CE1       18.1260   36.9560   -0.1280 C.ar   91  PHE91      -0.0003
    102  CE2       16.2650   35.4920    0.2310 C.ar   91  PHE91      -0.0003
    103  CZ        17.2040   36.3690    0.7160 C.ar   91  PHE91      -0.0000
    104  N         22.5860   37.3000    7.8350 N.3   115  TRP115     -0.1241
    105  CA        22.2450   36.0380    7.1200 C.3   115  TRP115      0.1605
    106  C         21.9270   34.9340    8.1250 C.2   115  TRP115      0.2264
    107  O         20.8970   34.2460    8.0540 O.2   115  TRP115     -0.2867
    108  CB        23.3530   35.6250    6.1440 C.3   115  TRP115      0.0550
    109  CG        22.8000   34.5750    5.2410 C.ar  115  TRP115      0.0003
    110  CD1       23.0470   33.2230    5.2850 C.ar  115  TRP115      0.0946
    111  CD2       21.7630   34.7680    4.2550 C.ar  115  TRP115      0.0152
    112  NE1       22.2960   32.5790    4.3430 N.ar  115  TRP115     -0.2442
    113  CE2       21.5010   33.4920    3.6940 C.ar  115  TRP115      0.0810
    114  CE3       21.1230   35.8830    3.7020 C.ar  115  TRP115      0.0012
    115  CZ2       20.5430   33.2950    2.7080 C.ar  115  TRP115      0.0191
    116  CZ3       20.1920   35.6850    2.7000 C.ar  115  TRP115      0.0001
    117  CH2       19.9330   34.4190    2.1830 C.ar  115  TRP115      0.0015
    118  N         18.3010   32.9640    8.5450 N.3   119  MET119     -0.1245
    119  CA        18.3010   31.4940    8.2860 C.3   119  MET119      0.1570
    120  C         17.7720   30.7590    9.5250 C.2   119  MET119      0.2261
    121  O         17.0050   29.8360    9.3840 O.2   119  MET119     -0.2867
    122  CB        19.6850   30.9900    7.8870 C.3   119  MET119      0.0387
    123  CG        20.1340   31.3690    6.5140 C.3   119  MET119      0.0595
    124  SD        19.1340   30.6440    5.1790 S.3   119  MET119     -0.1393
    125  CE        19.7670   28.9590    5.1660 C.3   119  MET119      0.0692
    126  N         13.9690   31.2000    9.4990 N.3   122  TRP122     -0.1241
    127  CA        13.2970   30.3950    8.4330 C.3   122  TRP122      0.1605
    128  C         13.3560   28.8910    8.7220 C.2   122  TRP122      0.2264
    129  O         12.3630   28.1800    8.4890 O.2   122  TRP122     -0.2867
    130  CB        13.9310   30.7420    7.0960 C.3   122  TRP122      0.0550
    131  CG        13.8190   32.1980    6.7910 C.ar  122  TRP122      0.0003
    132  CD1       12.7790   33.0230    7.1520 C.ar  122  TRP122      0.0946
    133  CD2       14.6680   32.9600    5.9230 C.ar  122  TRP122      0.0152
    134  NE1       12.9800   34.2740    6.6280 N.ar  122  TRP122     -0.2442
    135  CE2       14.1220   34.2700    5.8730 C.ar  122  TRP122      0.0810
    136  CE3       15.8740   32.7280    5.2460 C.ar  122  TRP122      0.0012
    137  CZ2       14.7160   35.2930    5.1410 C.ar  122  TRP122      0.0191
    138  CZ3       16.4790   33.7560    4.5740 C.ar  122  TRP122      0.0001
    139  CH2       15.8890   35.0090    4.4840 C.ar  122  TRP122      0.0015
    140  N         10.7850   28.1750   11.4830 N.3   125  TYR125     -0.1227
    141  CA         9.4200   28.1920   10.9170 C.3   125  TYR125      0.1736
    142  C          9.1630   26.9230   10.1080 C.2   125  TYR125      0.2596
    143  O          8.1540   26.2620   10.2330 O.2   125  TYR125     -0.2718
    144  CB         9.1610   29.4950   10.1440 C.3   125  TYR125      0.0548
    145  CG         7.7670   29.5190    9.6000 C.ar  125  TYR125     -0.0200
    146  CD1        6.6830   29.3590   10.4470 C.ar  125  TYR125     -0.0009
    147  CD2        7.5200   29.6530    8.2370 C.ar  125  TYR125     -0.0009
    148  CE1        5.3810   29.3600    9.9650 C.ar  125  TYR125      0.0417
    149  CE2        6.2270   29.6330    7.7540 C.ar  125  TYR125      0.0417
    150  CZ         5.1570   29.5010    8.6180 C.ar  125  TYR125      0.1957
    151  OH         3.8810   29.4240    8.1280 O.3   125  TYR125     -0.2866
    152  N         10.1460   26.4820    9.3230 N.am  126  THR126     -0.1953
    153  CA        10.0860   25.2130    8.6050 C.3   126  THR126      0.1897
    154  C          9.7900   24.0740    9.5800 C.2   126  THR126      0.2313
    155  O          8.9140   23.2570    9.2960 O.2   126  THR126     -0.2863
    156  CB        11.3890   24.9850    7.7980 C.3   126  THR126      0.1794
    157  OG1       11.6250   26.0840    6.8900 O.3   126  THR126     -0.2208
    158  CG2       11.2950   23.7250    6.9850 C.3   126  THR126      0.0378
    159  N          6.2440   24.0600   11.0280 N.3   129  VAL129     -0.1245
    160  CA         5.2800   23.5070   10.0640 C.3   129  VAL129      0.1561
    161  C          5.4600   21.9980    9.9270 C.2   129  VAL129      0.2260
    162  O          4.4560   21.2830    9.9100 O.2   129  VAL129     -0.2867
    163  CB         5.3450   24.2660    8.7230 C.3   129  VAL129      0.0252
    164  CG1        4.3880   23.6560    7.7240 C.3   129  VAL129      0.0019
    165  CG2        5.0860   25.7520    8.9390 C.3   129  VAL129      0.0019
    166  N         16.8530   23.9290    4.2770 N.3   153  ASN153     -0.1240
    167  CA        17.1310   25.3660    4.1500 C.3   153  ASN153      0.1653
    168  C         18.5220   25.5830    3.5580 C.2   153  ASN153      0.2266
    169  O         18.6580   26.4560    2.6800 O.2   153  ASN153     -0.2867
    170  CB        16.9300   26.0690    5.4820 C.3   153  ASN153      0.1155
    171  CG        15.4860   26.4970    5.7110 C.2   153  ASN153      0.2627
    172  OD1       15.2220   27.6780    5.5680 O.2   153  ASN153     -0.2716
    173  ND2       14.5720   25.5940    6.0060 N.am  153  ASN153     -0.0877
    174  N         18.5420   24.7660   -0.0890 N.3   156  ASN156     -0.1225
    175  CA        17.9240   25.8530   -0.8870 C.3   156  ASN156      0.1785
    176  C         18.8550   27.0360   -1.0580 C.2   156  ASN156      0.2597
    177  O         18.9750   27.5680   -2.1900 O.2   156  ASN156     -0.2718
    178  CB        16.5790   26.3200   -0.3110 C.3   156  ASN156      0.1169
    179  CG        15.4880   25.3100   -0.5810 C.2   156  ASN156      0.2627
    180  OD1       15.7510   24.1170   -0.8840 O.2   156  ASN156     -0.2716
    181  ND2       14.2490   25.7630   -0.3800 N.am  156  ASN156     -0.0877
    182  N         19.5390   27.4520   -0.0030 N.am  157  GLU157     -0.1979
    183  CA        20.5380   28.5320   -0.1010 C.3   157  GLU157      0.1602
    184  C         21.5680   28.2140   -1.1800 C.2   157  GLU157      0.2287
    185  O         21.7970   29.0380   -2.1180 O.2   157  GLU157     -0.2864
    186  CB        21.2250   28.6860    1.2610 C.3   157  GLU157      0.0415
    187  CG        22.3040   29.7120    1.2260 C.3   157  GLU157      0.1163
    188  CD        23.1850   29.6820    2.4770 C.2   157  GLU157      0.3649
    189  OE1       22.6740   29.7940    3.5750 O.co2 157  GLU157     -0.2457
    190  OE2       24.3930   29.5360    2.3060 O.co2 157  GLU157     -0.2457
    191  N         19.6270   27.4530   -4.9320 N.3   160  LEU160     -0.1231
    192  CA        19.0480   28.6970   -5.5340 C.3   160  LEU160      0.1693
    193  C         20.1690   29.6090   -5.9710 C.2   160  LEU160      0.2592
    194  O         20.1720   30.1280   -7.1360 O.2   160  LEU160     -0.2718
    195  CB        18.1480   29.4050   -4.5220 C.3   160  LEU160      0.0284
    196  CG        16.7950   28.7450   -4.2670 C.3   160  LEU160      0.0019
    197  CD1       16.0620   29.5190   -3.2000 C.3   160  LEU160      0.0001
    198  CD2       15.9650   28.6470   -5.5450 C.3   160  LEU160      0.0001
    199  N         21.1460   29.8330   -5.1010 N.am  161  PHE161     -0.1976
    200  CA        22.1710   30.8570   -5.3740 C.3   161  PHE161      0.1639
    201  C         23.1670   30.3470   -6.4320 C.2   161  PHE161      0.2290
    202  O         23.6010   31.1670   -7.2430 O.2   161  PHE161     -0.2864
    203  CB        22.8200   31.3120   -4.0710 C.3   161  PHE161      0.0560
    204  CG        21.8410   31.9690   -3.1170 C.ar  161  PHE161     -0.0200
    205  CD1       20.5060   32.2370   -3.4500 C.ar  161  PHE161     -0.0042
    206  CD2       22.2320   32.2480   -1.8320 C.ar  161  PHE161     -0.0042
    207  CE1       19.6120   32.7970   -2.5450 C.ar  161  PHE161     -0.0003
    208  CE2       21.3490   32.8450   -0.9450 C.ar  161  PHE161     -0.0003
    209  CZ        20.0620   33.1150   -1.2830 C.ar  161  PHE161     -0.0000
    210  N         11.9700   18.5550   -0.9850 N.3   184  TRP184     -0.1241
    211  CA        11.2510   18.9220    0.2680 C.3   184  TRP184      0.1605
    212  C         10.0870   17.9570    0.5160 C.2   184  TRP184      0.2264
    213  O          9.9720   17.3900    1.6400 O.2   184  TRP184     -0.2867
    214  CB        10.7780   20.3620    0.2730 C.3   184  TRP184      0.0550
    215  CG        11.8410   21.3550    0.5450 C.ar  184  TRP184      0.0003
    216  CD1       13.0370   21.5060   -0.1230 C.ar  184  TRP184      0.0946
    217  CD2       11.7890   22.3790    1.5560 C.ar  184  TRP184      0.0152
    218  NE1       13.7200   22.5530    0.4080 N.ar  184  TRP184     -0.2442
    219  CE2       12.9710   23.1220    1.4220 C.ar  184  TRP184      0.0810
    220  CE3       10.8590   22.7370    2.5440 C.ar  184  TRP184      0.0012
    221  CZ2       13.2810   24.1930    2.2670 C.ar  184  TRP184      0.0191
    222  CZ3       11.1480   23.8050    3.3660 C.ar  184  TRP184      0.0001
    223  CH2       12.3500   24.4890    3.2550 C.ar  184  TRP184      0.0015
@<TRIPOS>BOND
     1   202   201    2
     2   194   193    2
     3   201   200    1
     4    96    95    2
     5   193   192    1
     6   193   199   am
     7    95    94    1
     8   198   196    1
     9   192   191    1
    10   192   195    1
    11   200   199    1
    12   200   203    1
    13   195   196    1
    14    94    93    1
    15    94    97    1
    16   196   197    1
    17   203   204    1
    18    39    38    1
    19    85    84    2
    20    97    98    1
    21   205   204   ar
    22   205   207   ar
    23    84    83    1
    24   204   206   ar
    25    80    78    1
    26    68    67    1
    27    77    76    2
    28    63    64    1
    29    76    75    1
    30    38    35    1
    31    38    40    1
    32   207   209   ar
    33    64    67    1
    34    64    65    1
    35    78    75    1
    36    78    79    1
    37   177   176    2
    38   185   184    2
    39    98    99   ar
    40    98   100   ar
    41    67    69    1
    42    83    82    1
    43    83    86    1
    44   206   208   ar
    45    35    36    1
    46    35    34    1
    47    66    65    2
    48    81    79    1
    49    75    74    1
    50    99   101   ar
    51    65    70   am
    52   209   208   ar
    53   184   183    1
    54   100   102   ar
    55    36    37    2
    56    51    52    2
    57    51    50    1
    58    41    42    1
    59   176   175    1
    60   176   182   am
    61    86    87    1
    62   210   211    1
    63   175   178    1
    64   175   174    1
    65   180   179    2
    66    74    72   am
    67   179   181   am
    68   179   178    1
    69    33    30    1
    70    70    71    1
    71    72    73    2
    72    72    71    1
    73   101   103   ar
    74   216   218   ar
    75   216   215   ar
    76   183   182    1
    77   183   186    1
    78    49    50    1
    79    49    43   am
    80    50    53    1
    81    42    43    1
    82    42    45    1
    83    43    44    2
    84   102   103   ar
    85    53    54    1
    86   211   214    1
    87   211   212    1
    88   214   215    1
    89   218   219   ar
    90    87    89   ar
    91    87    88   ar
    92    30    31    1
    93    30    29    1
    94   212   213    2
    95    31    32    2
    96   215   217   ar
    97    16    14    1
    98    15    14    1
    99    89    91   ar
   100    88    90   ar
   101   187   186    1
   102   187   188    1
   103    14    13    1
   104   219   217   ar
   105   219   221   ar
   106    45    46    1
   107   217   220   ar
   108    54    55   ar
   109    54    56   ar
   110    29    24   am
   111    55    57   ar
   112   117   116   ar
   113   117   115   ar
   114   221   223   ar
   115    91    92   ar
   116   190   188   ar
   117   188   189   ar
   118    90    92   ar
   119   220   222   ar
   120   169   168    2
   121    46    47    1
   122   116   114   ar
   123   115   113   ar
   124    13    10    1
   125    56    59   ar
   126    56    58   ar
   127    24    25    2
   128    24    23    1
   129    57    58   ar
   130   223   222   ar
   131    59    61   ar
   132     1     2    1
   133   168   167    1
   134    10     9    1
   135    10    11    1
   136   113   111   ar
   137   113   112   ar
   138   114   111   ar
   139    58    60   ar
   140     7     6    1
   141   167   166    1
   142   167   170    1
   143     2     5    1
   144     2     3    1
   145   111   109   ar
   146    23    22    1
   147    23    26    1
   148    47    48    1
   149   112   110   ar
   150   139   138   ar
   151   139   137   ar
   152   138   136   ar
   153    61    62   ar
   154     5     6    1
   155    12    11    2
   156    11    17   am
   157    22    28    1
   158   137   135   ar
   159   125   124    1
   160     6     8    1
   161   124   123    1
   162    60    62   ar
   163   109   110   ar
   164   109   108    1
   165   136   133   ar
   166     3     4    2
   167    26    27    1
   168   170   171    1
   169   172   171    2
   170   171   173   am
   171   135   133   ar
   172   135   134   ar
   173   133   131   ar
   174    17    18    1
   175   108   105    1
   176    27    28    1
   177   123   122    1
   178   134   132   ar
   179   131   130    1
   180   131   132   ar
   181   157   156    1
   182   158   156    1
   183   130   127    1
   184   105   104    1
   185   105   106    1
   186    18    19    1
   187    18    21    1
   188   164   163    1
   189   149   147   ar
   190   149   150   ar
   191   156   153    1
   192    19    20    2
   193   122   119    1
   194   107   106    2
   195   151   150    1
   196   147   145   ar
   197   119   118    1
   198   119   120    1
   199   127   128    1
   200   127   126    1
   201   129   128    2
   202   153   152    1
   203   153   154    1
   204   150   148   ar
   205   163   165    1
   206   163   160    1
   207   155   154    2
   208   152   142   am
   209   121   120    2
   210   145   144    1
   211   145   146   ar
   212   162   161    2
   213   161   160    1
   214   148   146   ar
   215   160   159    1
   216   142   143    2
   217   142   141    1
   218   144   141    1
   219   141   140    1
