@<TRIPOS>MOLECULE
tmp/6holB00.pdb
 163 157 0 0 0
SMALL
GASTEIGER

@<TRIPOS>ATOM
      1  N         -3.7950  -16.6300   23.0930 N.3    16  GLU16      -0.1245
      2  CA        -3.5880  -17.1430   24.4380 C.3    16  GLU16       0.1567
      3  C         -4.1270  -16.1380   25.4450 C.2    16  GLU16       0.2260
      4  O         -4.7080  -16.5360   26.4430 O.2    16  GLU16      -0.2867
      5  CB        -2.0840  -17.4530   24.7130 C.3    16  GLU16       0.0388
      6  CG        -1.8020  -18.0080   26.1440 C.3    16  GLU16       0.1160
      7  CD        -0.3850  -18.5770   26.3890 C.2    16  GLU16       0.3649
      8  OE1        0.5300  -18.3620   25.5590 O.co2  16  GLU16      -0.2457
      9  OE2       -0.2210  -19.2970   27.4120 O.co2  16  GLU16      -0.2457
     10  N         -7.0530  -16.9290   28.1620 N.3    20  ILE20      -0.1245
     11  CA        -6.8580  -16.9350   29.5980 C.3    20  ILE20       0.1561
     12  C         -7.7480  -15.9000   30.2500 C.2    20  ILE20       0.2260
     13  O         -8.1610  -16.0930   31.3840 O.2    20  ILE20      -0.2867
     14  CB        -5.3650  -16.7720   29.9250 C.3    20  ILE20       0.0252
     15  CG1       -5.0180  -17.4950   31.2450 C.3    20  ILE20       0.0019
     16  CG2       -4.9620  -15.3200   29.9080 C.3    20  ILE20       0.0019
     17  CD1       -4.9540  -19.0360   31.0140 C.3    20  ILE20       0.0001
     18  N        -10.0110  -17.3950   33.2450 N.3    24  TYR24      -0.1241
     19  CA        -9.7950  -16.7970   34.5770 C.3    24  TYR24       0.1605
     20  C        -10.1800  -15.3280   34.5260 C.2    24  TYR24       0.2264
     21  O         -9.3210  -14.4430   34.5280 O.2    24  TYR24      -0.2867
     22  CB        -8.3280  -16.9470   34.9810 C.3    24  TYR24       0.0534
     23  CG        -7.8930  -18.3830   34.9770 C.ar   24  TYR24      -0.0201
     24  CD1       -8.3590  -19.2690   35.9530 C.ar   24  TYR24      -0.0009
     25  CD2       -7.0400  -18.8670   33.9970 C.ar   24  TYR24      -0.0009
     26  CE1       -7.9910  -20.5950   35.9640 C.ar   24  TYR24       0.0417
     27  CE2       -6.6580  -20.1740   34.0020 C.ar   24  TYR24       0.0417
     28  CZ        -7.1300  -21.0440   34.9730 C.ar   24  TYR24       0.1957
     29  OH        -6.6930  -22.3670   34.9140 O.3    24  TYR24      -0.2866
     30  N         -8.7670  -12.5770   36.9180 N.3    27  ARG27      -0.1245
     31  CA        -7.3250  -12.3890   36.9210 C.3    27  ARG27       0.1563
     32  C         -6.9190  -11.6290   35.6770 C.2    27  ARG27       0.2260
     33  O         -7.6080  -11.6590   34.6610 O.2    27  ARG27      -0.2867
     34  CB        -6.5910  -13.7140   36.9340 C.3    27  ARG27       0.0307
     35  CG        -6.7760  -14.5470   38.1590 C.3    27  ARG27       0.0489
     36  CD        -6.1040  -13.8810   39.3470 C.3    27  ARG27       0.2205
     37  NE        -6.2650  -14.6430   40.5910 N.pl3  27  ARG27      -0.0865
     38  CZ        -7.1750  -14.3850   41.5270 C.cat  27  ARG27       0.5346
     39  NH1       -8.0290  -13.3760   41.3840 N.pl3  27  ARG27       0.1354
     40  NH2       -7.2330  -15.1440   42.6140 N.pl3  27  ARG27       0.1354
     41  N         -3.6110  -11.3390   32.9680 N.3    29  PRO29      -0.2102
     42  CA        -2.3930  -12.0630   32.6240 C.3    29  PRO29       0.1504
     43  C         -1.2260  -11.1310   32.4390 C.2    29  PRO29       0.2575
     44  O         -1.2970  -10.1470   31.7050 O.2    29  PRO29      -0.2718
     45  CB        -2.7540  -12.7580   31.3050 C.3    29  PRO29       0.0282
     46  CG        -3.7400  -11.8580   30.6570 C.3    29  PRO29       0.0208
     47  CD        -4.5080  -11.1790   31.8290 C.3    29  PRO29       0.0893
     48  N         -0.1190  -11.4910   33.0840 N.am   30  VAL30      -0.1980
     49  CA         1.0840  -10.6660   33.1290 C.3    30  VAL30       0.1595
     50  C          2.3040  -11.5210   32.8110 C.2    30  VAL30       0.2287
     51  O          2.4970  -12.5870   33.4080 O.2    30  VAL30      -0.2864
     52  CB         1.2210   -9.9980   34.5170 C.3    30  VAL30       0.0276
     53  CG1        2.3990   -9.0570   34.6090 C.3    30  VAL30       0.0022
     54  CG2       -0.0580   -9.1990   34.8580 C.3    30  VAL30       0.0022
     55  N          9.1500  -19.1560   36.2390 N.3    45  LYS45      -0.1245
     56  CA         7.9800  -19.0020   35.3800 C.3    45  LYS45       0.1561
     57  C          7.8370  -17.5490   34.9490 C.2    45  LYS45       0.2260
     58  O          8.1770  -16.6320   35.7090 O.2    45  LYS45      -0.2867
     59  CB         6.7110  -19.4020   36.1270 C.3    45  LYS45       0.0271
     60  CG         6.7560  -20.8240   36.6690 C.3    45  LYS45       0.0035
     61  CD         5.4720  -21.1700   37.3940 C.3    45  LYS45       0.0206
     62  CE         5.4600  -22.6410   37.7970 C.3    45  LYS45       0.1093
     63  NZ         4.1540  -23.0160   38.4050 N.3    45  LYS45      -0.1314
     64  N          4.7310  -16.4780   33.2220 N.3    47  LYS47      -0.1231
     65  CA         3.3260  -16.1560   32.9660 C.3    47  LYS47       0.1693
     66  C          2.5980  -16.1870   34.2800 C.2    47  LYS47       0.2592
     67  O          2.5600  -17.2170   34.9450 O.2    47  LYS47      -0.2718
     68  CB         2.6550  -17.1430   32.0120 C.3    47  LYS47       0.0285
     69  CG         3.4580  -17.3000   30.7120 C.3    47  LYS47       0.0035
     70  CD         2.7400  -18.0820   29.6050 C.3    47  LYS47       0.0206
     71  CE         2.4470  -19.5090   30.0030 C.3    47  LYS47       0.1093
     72  NZ         1.9800  -20.3640   28.8340 N.3    47  LYS47      -0.1314
     73  N          2.0290  -15.0320   34.6580 N.am   48  TYR48      -0.1962
     74  CA         1.3520  -14.8780   35.9400 C.3    48  TYR48       0.1771
     75  C         -0.1040  -14.4460   35.7950 C.2    48  TYR48       0.2619
     76  O         -0.4400  -13.6620   34.9200 O.2    48  TYR48      -0.2715
     77  CB         2.0880  -13.8440   36.7720 C.3    48  TYR48       0.0574
     78  CG         3.4200  -14.3650   37.1820 C.ar   48  TYR48      -0.0198
     79  CD1        4.4960  -14.2070   36.3660 C.ar   48  TYR48      -0.0009
     80  CD2        3.5930  -15.0680   38.3800 C.ar   48  TYR48      -0.0009
     81  CE1        5.6940  -14.7510   36.6910 C.ar   48  TYR48       0.0417
     82  CE2        4.8110  -15.5980   38.7370 C.ar   48  TYR48       0.0417
     83  CZ         5.8770  -15.4260   37.8870 C.ar   48  TYR48       0.1957
     84  OH         7.1480  -15.9720   38.1370 O.3    48  TYR48      -0.2866
     85  N         -0.9500  -15.0600   36.5740 N.am   49  LEU49      -0.1963
     86  CA        -2.3570  -14.6410   36.7130 C.3    49  LEU49       0.1728
     87  C         -2.4430  -13.7630   37.9560 C.2    49  LEU49       0.2616
     88  O         -2.1820  -14.2270   39.0820 O.2    49  LEU49      -0.2715
     89  CB        -3.2830  -15.8350   36.9010 C.3    49  LEU49       0.0311
     90  CG        -3.3190  -16.7640   35.7040 C.3    49  LEU49       0.0022
     91  CD1       -4.0430  -18.0370   36.1040 C.3    49  LEU49       0.0001
     92  CD2       -4.0680  -16.0060   34.6370 C.3    49  LEU49       0.0001
     93  N         -2.7720  -12.4940   37.7600 N.am   50  VAL50      -0.1964
     94  CA        -2.6440  -11.5000   38.8270 C.3    50  VAL50       0.1712
     95  C         -4.0220  -10.9980   39.2230 C.2    50  VAL50       0.2458
     96  O         -4.8090  -10.6260   38.3580 O.2    50  VAL50      -0.2730
     97  CB        -1.7310  -10.3520   38.3790 C.3    50  VAL50       0.0289
     98  CG1       -1.5100   -9.3350   39.5260 C.3    50  VAL50       0.0023
     99  CG2       -0.3680  -10.9670   37.8800 C.3    50  VAL50       0.0023
    100  N         -4.3460  -10.9580   40.5130 N.am   51  PRO51      -0.2727
    101  CA        -5.6070  -10.3480   40.9250 C.3    51  PRO51       0.1402
    102  C         -5.6090   -8.8790   40.5500 C.2    51  PRO51       0.2269
    103  O         -4.5970   -8.1900   40.6860 O.2    51  PRO51      -0.2865
    104  CB        -5.6010  -10.5300   42.4440 C.3    51  PRO51       0.0296
    105  CG        -4.7070  -11.7060   42.6680 C.3    51  PRO51       0.0237
    106  CD        -3.6530  -11.6130   41.6280 C.3    51  PRO51       0.0939
    107  N         -4.5250   -6.5700   43.4140 N.3    54  LEU54      -0.1245
    108  CA        -3.1850   -6.6090   44.0040 C.3    54  LEU54       0.1561
    109  C         -2.5030   -5.2630   43.7730 C.2    54  LEU54       0.2260
    110  O         -2.5420   -4.7150   42.6680 O.2    54  LEU54      -0.2867
    111  CB        -2.3790   -7.7490   43.3310 C.3    54  LEU54       0.0270
    112  CG        -1.0600   -8.0960   43.9810 C.3    54  LEU54       0.0019
    113  CD1       -1.3540   -8.8150   45.3080 C.3    54  LEU54       0.0001
    114  CD2       -0.2640   -9.0270   43.0540 C.3    54  LEU54       0.0001
    115  N          2.6650   -6.8060   44.4310 N.3    59  PHE59      -0.1241
    116  CA         3.2030   -7.5560   43.2700 C.3    59  PHE59       0.1605
    117  C          4.7090   -7.6120   43.3760 C.2    59  PHE59       0.2264
    118  O          5.3050   -8.6840   43.1580 O.2    59  PHE59      -0.2867
    119  CB         2.7730   -6.8320   42.0290 C.3    59  PHE59       0.0534
    120  CG         3.2740   -7.4750   40.7590 C.ar   59  PHE59      -0.0203
    121  CD1        2.6470   -8.5950   40.2620 C.ar   59  PHE59      -0.0042
    122  CD2        4.3090   -6.9030   40.0480 C.ar   59  PHE59      -0.0042
    123  CE1        3.1090   -9.1680   39.0570 C.ar   59  PHE59      -0.0003
    124  CE2        4.7580   -7.4640   38.8780 C.ar   59  PHE59      -0.0003
    125  CZ         4.1470   -8.5860   38.4380 C.ar   59  PHE59      -0.0000
    126  N          5.6770  -10.2910   45.9110 N.3    62  LEU62      -0.1231
    127  CA         5.4320  -11.6510   45.4210 C.3    62  LEU62       0.1693
    128  C          6.4340  -12.0740   44.3440 C.2    62  LEU62       0.2591
    129  O          6.8530  -13.2350   44.3250 O.2    62  LEU62      -0.2718
    130  CB         4.0170  -11.7720   44.8710 C.3    62  LEU62       0.0284
    131  CG         2.9590  -11.6420   45.9370 C.3    62  LEU62       0.0019
    132  CD1        1.5550  -11.5480   45.2910 C.3    62  LEU62       0.0001
    133  CD2        3.0550  -12.7950   46.9400 C.3    62  LEU62       0.0001
    134  N          6.7830  -11.1820   43.4250 N.am   63  ILE63      -0.1980
    135  CA         7.7350  -11.5920   42.3770 C.3    63  ILE63       0.1595
    136  C          9.1320  -11.6910   42.9540 C.2    63  ILE63       0.2287
    137  O          9.9020  -12.6130   42.6120 O.2    63  ILE63      -0.2864
    138  CB         7.6670  -10.6140   41.2050 C.3    63  ILE63       0.0276
    139  CG1        6.3130  -10.6910   40.4790 C.3    63  ILE63       0.0022
    140  CG2        8.8480  -10.9080   40.1950 C.3    63  ILE63       0.0022
    141  CD1        5.8680  -12.0420   40.0190 C.3    63  ILE63       0.0001
    142  N         10.0670  -14.9640   44.3940 N.3    66  ARG66      -0.1245
    143  CA        10.3140  -16.0350   43.4120 C.3    66  ARG66       0.1563
    144  C         11.6030  -15.8460   42.6470 C.2    66  ARG66       0.2260
    145  O         12.0300  -16.7830   41.9930 O.2    66  ARG66      -0.2867
    146  CB         9.1720  -16.1120   42.3940 C.3    66  ARG66       0.0307
    147  CG         7.8980  -16.4930   43.0720 C.3    66  ARG66       0.0489
    148  CD         6.6430  -16.0540   42.3510 C.3    66  ARG66       0.2205
    149  NE         5.4940  -16.8420   42.8070 N.pl3  66  ARG66      -0.0865
    150  CZ         4.7940  -16.6060   43.9250 C.cat  66  ARG66       0.5346
    151  NH1        5.0870  -15.5820   44.7460 N.pl3  66  ARG66       0.1354
    152  NH2        3.7690  -17.4060   44.2270 N.pl3  66  ARG66       0.1354
    153  N         -1.7910   -9.1260   27.0310 N.3   103  PHE103     -0.1241
    154  CA        -0.8910   -9.2910   28.1570 C.3   103  PHE103      0.1605
    155  C         -0.3520   -7.9420   28.6070 C.2   103  PHE103      0.2264
    156  O         -0.1190   -7.0590   27.7850 O.2   103  PHE103     -0.2867
    157  CB         0.2930  -10.1820   27.7470 C.3   103  PHE103      0.0534
    158  CG        -0.0400  -11.6370   27.6210 C.ar  103  PHE103     -0.0203
    159  CD1        0.0270  -12.4750   28.7060 C.ar  103  PHE103     -0.0042
    160  CD2       -0.3020  -12.1670   26.3810 C.ar  103  PHE103     -0.0042
    161  CE1       -0.2250  -13.8140   28.5680 C.ar  103  PHE103     -0.0003
    162  CE2       -0.5740  -13.5130   26.2460 C.ar  103  PHE103     -0.0003
    163  CZ        -0.5310  -14.3450   27.3180 C.ar  103  PHE103     -0.0000
@<TRIPOS>BOND
     1     1     2    1
     2     2     5    1
     3     2     3    1
     4     5     6    1
     5     3     4    2
     6     8     7   ar
     7     6     7    1
     8   162   160   ar
     9   162   163   ar
    10   160   158   ar
    11     7     9   ar
    12   153   154    1
    13   163   161   ar
    14   158   157    1
    15   158   159   ar
    16   157   154    1
    17   156   155    2
    18   154   155    1
    19    10    11    1
    20   161   159   ar
    21    72    71    1
    22    11    14    1
    23    11    12    1
    24    70    71    1
    25    70    69    1
    26    16    14    1
    27    14    15    1
    28    12    13    2
    29    46    45    1
    30    46    47    1
    31    69    68    1
    32    17    15    1
    33    45    42    1
    34    44    43    2
    35    47    41    1
    36    68    65    1
    37    43    42    1
    38    43    48   am
    39    42    41    1
    40    50    49    1
    41    50    51    2
    42    65    64    1
    43    65    66    1
    44    48    49    1
    45    49    52    1
    46    18    19    1
    47    25    27   ar
    48    25    23   ar
    49    27    28   ar
    50    66    73   am
    51    66    67    2
    52    52    53    1
    53    52    54    1
    54    20    21    2
    55    20    19    1
    56    19    22    1
    57    92    90    1
    58    73    74    1
    59    33    32    2
    60    29    28    1
    61    76    75    2
    62    57    56    1
    63    57    58    2
    64    28    26   ar
    65    23    22    1
    66    23    24   ar
    67    56    59    1
    68    56    55    1
    69    32    31    1
    70    90    91    1
    71    90    89    1
    72    75    74    1
    73    75    85   am
    74    74    77    1
    75    24    26   ar
    76    59    60    1
    77    79    81   ar
    78    79    78   ar
    79    85    86    1
    80    60    61    1
    81    81    83   ar
    82    86    89    1
    83    86    87    1
    84    77    78    1
    85    30    31    1
    86    31    34    1
    87    34    35    1
    88    78    80   ar
    89    61    62    1
    90    93    87   am
    91    93    94    1
    92    62    63    1
    93    99    97    1
    94    83    84    1
    95    83    82   ar
    96    87    88    2
    97    35    36    1
    98    96    95    2
    99    97    94    1
   100    97    98    1
   101    80    82   ar
   102   125   124   ar
   103   125   123   ar
   104    94    95    1
   105   124   122   ar
   106   123   121   ar
   107    95   100   am
   108    36    37    1
   109   141   139    1
   110   122   120   ar
   111   140   138    1
   112   121   120   ar
   113   139   138    1
   114   100   101    1
   115   100   106    1
   116   102   103    2
   117   102   101    1
   118    37    38    2
   119   120   119    1
   120   101   104    1
   121   138   135    1
   122    39    38    1
   123    38    40    1
   124   106   105    1
   125   145   144    2
   126   119   116    1
   127   148   149    1
   128   148   147    1
   129   135   136    1
   130   135   134    1
   131   146   147    1
   132   146   143    1
   133   104   105    1
   134   137   136    2
   135   144   143    1
   136   110   109    2
   137   149   150    2
   138   114   112    1
   139   118   117    2
   140   116   117    1
   141   116   115    1
   142   111   112    1
   143   111   108    1
   144   143   142    1
   145   107   108    1
   146   134   128   am
   147   109   108    1
   148   150   152    1
   149   150   151    1
   150   112   113    1
   151   129   128    2
   152   128   127    1
   153   130   127    1
   154   130   131    1
   155   132   131    1
   156   127   126    1
   157   131   133    1
