@<TRIPOS>MOLECULE
tmp/6hosA02.pdb
 117 114 0 0 0
SMALL
GASTEIGER

@<TRIPOS>ATOM
      1  N         39.4080   93.3590   12.5870 N.3    54  VAL54      -0.1245
      2  CA        39.7840   92.0070   12.1840 C.3    54  VAL54       0.1561
      3  C         38.7310   91.4880   11.2100 C.2    54  VAL54       0.2260
      4  O         37.5850   91.2550   11.6000 O.2    54  VAL54      -0.2867
      5  CB        39.9010   91.0750   13.3970 C.3    54  VAL54       0.0252
      6  CG1       40.2560   89.6620   12.9550 C.3    54  VAL54       0.0019
      7  CG2       40.9190   91.5990   14.3870 C.3    54  VAL54       0.0019
      8  N         39.8260   88.7610    8.9610 N.3    56  ASP56      -0.1239
      9  CA        40.2570   87.3710    8.7960 C.3    56  ASP56       0.1674
     10  C         40.7220   86.8600   10.1530 C.2    56  ASP56       0.2266
     11  O         41.8940   87.0280   10.5270 O.2    56  ASP56      -0.2867
     12  CB        41.3560   87.2420    7.7420 C.3    56  ASP56       0.1410
     13  CG        41.5680   85.8010    7.2880 C.2    56  ASP56       0.3668
     14  OD1       41.2940   84.8700    8.0770 O.co2  56  ASP56      -0.2456
     15  OD2       41.9910   85.5970    6.1310 O.co2  56  ASP56      -0.2456
     16  N         40.9030   83.6660   11.4900 N.3    58  GLY58      -0.1210
     17  CA        41.3890   82.3120   11.7070 C.3    58  GLY58       0.1956
     18  C         42.8950   82.2720   11.9110 C.2    58  GLY58       0.2612
     19  O         43.6500   83.0000   11.2670 O.2    58  GLY58      -0.2717
     20  N         43.3360   81.4020   12.8210 N.am   59  PHE59      -0.1962
     21  CA        44.7660   81.2010   13.0230 C.3    59  PHE59       0.1771
     22  C         45.0190   79.7750   13.4880 C.2    59  PHE59       0.2620
     23  O         44.1370   79.1050   14.0320 O.2    59  PHE59      -0.2715
     24  CB        45.3580   82.2100   14.0250 C.3    59  PHE59       0.0574
     25  CG        44.6950   82.1940   15.3820 C.ar   59  PHE59      -0.0200
     26  CD1       45.0970   81.2940   16.3630 C.ar   59  PHE59      -0.0042
     27  CD2       43.6810   83.0880   15.6800 C.ar   59  PHE59      -0.0042
     28  CE1       44.4850   81.2770   17.6110 C.ar   59  PHE59      -0.0003
     29  CE2       43.0650   83.0770   16.9240 C.ar   59  PHE59      -0.0003
     30  CZ        43.4680   82.1710   17.8910 C.ar   59  PHE59      -0.0000
     31  N         46.2490   79.3240   13.2630 N.am   60  SER60      -0.1936
     32  CA        46.7310   78.0290   13.7300 C.3    60  SER60       0.2055
     33  C         48.1770   78.2180   14.1640 C.2    60  SER60       0.2642
     34  O         49.0190   78.5960   13.3460 O.2    60  SER60      -0.2714
     35  CB        46.6210   76.9700   12.6290 C.3    60  SER60       0.2130
     36  OG        47.2740   75.7680   12.9950 O.3    60  SER60      -0.2179
     37  N         48.4650   77.9740   15.4430 N.am   61  ILE61      -0.1977
     38  CA        49.7520   78.3140   16.0420 C.3    61  ILE61       0.1596
     39  C         50.3030   77.1090   16.7900 C.2    61  ILE61       0.2287
     40  O         49.5920   76.4900   17.5880 O.2    61  ILE61      -0.2864
     41  CB        49.6390   79.5080   17.0110 C.3    61  ILE61       0.0276
     42  CG1       49.0610   80.7340   16.3090 C.3    61  ILE61       0.0022
     43  CG2       50.9980   79.8270   17.6270 C.3    61  ILE61       0.0022
     44  CD1       48.7070   81.8560   17.2590 C.3    61  ILE61       0.0001
     45  N         54.4670   76.8440   18.0770 N.3    63  THR63      -0.1218
     46  CA        55.8880   77.1750   17.9610 C.3    63  THR63       0.1862
     47  C         56.5630   76.8820   19.2940 C.2    63  THR63       0.2287
     48  O         56.7760   77.7880   20.1110 O.2    63  THR63      -0.2866
     49  CB        56.0920   78.6360   17.5510 C.3    63  THR63       0.1770
     50  OG1       55.5190   79.4960   18.5420 O.3    63  THR63      -0.2211
     51  CG2       55.4310   78.9180   16.2060 C.3    63  THR63       0.0375
     52  N         59.0490   79.2790   21.9110 N.3    66  VAL66      -0.1245
     53  CA        58.6660   80.6820   21.9890 C.3    66  VAL66       0.1561
     54  C         57.1890   80.7590   22.3600 C.2    66  VAL66       0.2260
     55  O         56.3090   80.5540   21.5210 O.2    66  VAL66      -0.2867
     56  CB        58.9650   81.4270   20.6730 C.3    66  VAL66       0.0252
     57  CG1       58.4930   80.6300   19.4620 C.3    66  VAL66       0.0019
     58  CG2       58.3530   82.8220   20.6880 C.3    66  VAL66       0.0019
     59  N         55.1480   83.1900   23.1220 N.3    68  THR68      -0.1203
     60  CA        54.3520   84.3400   22.7300 C.3    68  THR68       0.1994
     61  C         54.3330   84.4850   21.2160 C.2    68  THR68       0.2619
     62  O         55.1800   83.9440   20.4990 O.2    68  THR68      -0.2717
     63  CB        54.8800   85.6320   23.3690 C.3    68  THR68       0.1784
     64  OG1       56.2010   85.9050   22.8870 O.3    68  THR68      -0.2211
     65  CG2       54.9060   85.5060   24.8900 C.3    68  THR68       0.0376
     66  N         53.3480   85.2410   20.7430 N.am   69  THR69      -0.1938
     67  CA        53.1820   85.5240   19.3290 C.3    69  THR69       0.2028
     68  C         52.5480   86.8990   19.1960 C.2    69  THR69       0.2643
     69  O         52.0920   87.4930   20.1750 O.2    69  THR69      -0.2714
     70  CB        52.3010   84.4690   18.6430 C.3    69  THR69       0.1808
     71  OG1       52.3190   84.6720   17.2260 O.3    69  THR69      -0.2208
     72  CG2       50.8590   84.5820   19.1260 C.3    69  THR69       0.0379
     73  N         52.5020   87.3920   17.9670 N.am   70  THR70      -0.1936
     74  CA        51.7450   88.5880   17.6350 C.3    70  THR70       0.2028
     75  C         50.4120   88.1350   17.0530 C.2    70  THR70       0.2642
     76  O         50.3800   87.4440   16.0300 O.2    70  THR70      -0.2714
     77  CB        52.5110   89.4800   16.6550 C.3    70  THR70       0.1808
     78  OG1       53.6860   89.9990   17.2960 O.3    70  THR70      -0.2208
     79  CG2       51.6350   90.6400   16.1800 C.3    70  THR70       0.0379
     80  N         49.3250   88.4620   17.7400 N.am   71  LEU71      -0.1963
     81  CA        47.9860   88.0450   17.3430 C.3    71  LEU71       0.1728
     82  C         47.1630   89.2750   16.9850 C.2    71  LEU71       0.2616
     83  O         46.9490   90.1470   17.8340 O.2    71  LEU71      -0.2715
     84  CB        47.3100   87.2540   18.4620 C.3    71  LEU71       0.0311
     85  CG        45.9040   86.7250   18.1710 C.3    71  LEU71       0.0022
     86  CD1       45.9190   85.7610   16.9910 C.3    71  LEU71       0.0001
     87  CD2       45.3080   86.0700   19.4050 C.3    71  LEU71       0.0001
     88  N         46.6990   89.3400   15.7370 N.am   72  TYR72      -0.1960
     89  CA        45.8760   90.4540   15.2650 C.3    72  TYR72       0.1771
     90  C         46.5860   91.7930   15.4770 C.2    72  TYR72       0.2620
     91  O         45.9590   92.7980   15.8240 O.2    72  TYR72      -0.2715
     92  CB        44.5070   90.4720   15.9530 C.3    72  TYR72       0.0574
     93  CG        43.6710   89.2090   15.8710 C.ar   72  TYR72      -0.0198
     94  CD1       43.7080   88.3790   14.7550 C.ar   72  TYR72      -0.0009
     95  CD2       42.8160   88.8650   16.9110 C.ar   72  TYR72      -0.0009
     96  CE1       42.9210   87.2190   14.6950 C.ar   72  TYR72       0.0417
     97  CE2       42.0330   87.7190   16.8560 C.ar   72  TYR72       0.0417
     98  CZ        42.0860   86.9030   15.7470 C.ar   72  TYR72       0.1957
     99  OH        41.2980   85.7680   15.7050 O.3    72  TYR72      -0.2866
    100  N         47.9080   91.8020   15.3120 N.am   73  GLY73      -0.1954
    101  CA        48.7000   92.9920   15.5530 C.3    73  GLY73       0.1869
    102  C         49.0060   93.2920   17.0080 C.2    73  GLY73       0.2309
    103  O         49.6750   94.2960   17.2850 O.2    73  GLY73      -0.2863
    104  N         49.9310   82.4260   23.3880 N.3    79  TRP79      -0.1241
    105  CA        49.0370   81.6070   22.5820 C.3    79  TRP79       0.1605
    106  C         48.7530   80.2420   23.1980 C.2    79  TRP79       0.2264
    107  O         47.8340   79.5540   22.7350 O.2    79  TRP79      -0.2867
    108  CB        49.6060   81.4190   21.1690 C.3    79  TRP79       0.0550
    109  CG        51.0130   80.9090   21.1300 C.ar   79  TRP79       0.0003
    110  CD1       52.1540   81.6570   21.1060 C.ar   79  TRP79       0.0946
    111  CD2       51.4310   79.5370   21.0980 C.ar   79  TRP79       0.0152
    112  NE1       53.2580   80.8370   21.0640 N.ar   79  TRP79      -0.2442
    113  CE2       52.8410   79.5320   21.0590 C.ar   79  TRP79       0.0810
    114  CE3       50.7500   78.3140   21.0990 C.ar   79  TRP79       0.0012
    115  CZ2       53.5830   78.3520   21.0280 C.ar   79  TRP79       0.0191
    116  CZ3       51.4870   77.1450   21.0620 C.ar   79  TRP79       0.0001
    117  CH2       52.8900   77.1720   21.0290 C.ar   79  TRP79       0.0015
@<TRIPOS>BOND
     1    15    13   ar
     2    13    12    1
     3    13    14   ar
     4    12     9    1
     5     9     8    1
     6     9    10    1
     7    10    11    2
     8     3     4    2
     9     3     2    1
    10    19    18    2
    11    16    17    1
    12    17    18    1
    13    18    20   am
    14     2     1    1
    15     2     5    1
    16    35    36    1
    17    35    32    1
    18    20    21    1
    19     6     5    1
    20    21    22    1
    21    21    24    1
    22    31    22   am
    23    31    32    1
    24    34    33    2
    25     5     7    1
    26    22    23    2
    27    32    33    1
    28    24    25    1
    29    33    37   am
    30    96    94   ar
    31    96    98   ar
    32    94    93   ar
    33    89    90    1
    34    89    88    1
    35    89    92    1
    36   100    90   am
    37   100   101    1
    38    25    27   ar
    39    25    26   ar
    40    37    38    1
    41    90    91    2
    42   101   102    1
    43    27    29   ar
    44    99    98    1
    45    88    82   am
    46    98    97   ar
    47    93    92    1
    48    93    95   ar
    49    76    75    2
    50    38    39    1
    51    38    41    1
    52    79    77    1
    53    51    49    1
    54    42    41    1
    55    42    44    1
    56    26    28   ar
    57    77    78    1
    58    77    74    1
    59    39    40    2
    60    97    95   ar
    61    29    30   ar
    62    82    81    1
    63    82    83    2
    64    86    85    1
    65   102   103    2
    66    41    43    1
    67    75    74    1
    68    75    80   am
    69    71    70    1
    70    81    80    1
    71    81    84    1
    72    49    46    1
    73    49    50    1
    74    28    30   ar
    75    74    73    1
    76    46    45    1
    77    46    47    1
    78    73    68   am
    79    85    84    1
    80    85    87    1
    81    70    72    1
    82    70    67    1
    83    68    67    1
    84    68    69    2
    85    47    48    2
    86    67    66    1
    87    57    56    1
    88    62    61    2
    89    56    58    1
    90    56    53    1
    91    66    61   am
    92   115   117   ar
    93   115   113   ar
    94   117   116   ar
    95   113   112   ar
    96   113   111   ar
    97   116   114   ar
    98   112   110   ar
    99   111   114   ar
   100   111   109   ar
   101   110   109   ar
   102   109   108    1
   103   108   105    1
   104    61    60    1
   105    55    54    2
   106    52    53    1
   107    53    54    1
   108   105   106    1
   109   105   104    1
   110    60    59    1
   111    60    63    1
   112   107   106    2
   113    64    63    1
   114    63    65    1
