@<TRIPOS>MOLECULE
tmp/6hoyA01.pdb
 130 132 0 0 0
SMALL
GASTEIGER

@<TRIPOS>ATOM
      1  N        -30.8410   20.3390   19.7280 N.3    55  PHE55      -0.1298
      2  CA       -31.6220   21.3680   19.0250 C.3    55  PHE55       0.1290
      3  C        -33.1080   21.2220   19.3420 C.3    55  PHE55       0.2013
      4  O        -33.8700   22.3310   19.3960 O.3    55  PHE55      -0.2188
      5  CB       -31.2510   21.2470   17.5500 C.3    55  PHE55       0.0480
      6  CG       -29.8400   21.6870   17.2800 C.ar   55  PHE55      -0.0206
      7  CD1      -29.5360   23.0410   17.1470 C.ar   55  PHE55      -0.0042
      8  CD2      -28.8020   20.7360   17.2400 C.ar   55  PHE55      -0.0042
      9  CE1      -28.2200   23.4240   16.9610 C.ar   55  PHE55      -0.0003
     10  CE2      -27.5180   21.1170   16.9460 C.ar   55  PHE55      -0.0003
     11  CZ       -27.2310   22.4500   16.8400 C.ar   55  PHE55      -0.0000
     12  N        -33.5470   24.9850   19.7330 N.3    62  TRP62      -0.1241
     13  CA       -34.6960   25.5300   18.9830 C.3    62  TRP62       0.1605
     14  C        -35.9570   25.4400   19.8280 C.2    62  TRP62       0.2264
     15  O        -36.8090   26.3430   19.7160 O.2    62  TRP62      -0.2867
     16  CB       -34.8660   24.8460   17.6300 C.3    62  TRP62       0.0550
     17  CG       -33.6960   24.8360   16.7040 C.ar   62  TRP62       0.0003
     18  CD1      -33.4460   23.8070   15.8470 C.ar   62  TRP62       0.0946
     19  CD2      -32.6610   25.8180   16.4680 C.ar   62  TRP62       0.0152
     20  NE1      -32.3810   24.0930   15.0600 N.ar   62  TRP62      -0.2442
     21  CE2      -31.8510   25.3000   15.4380 C.ar   62  TRP62       0.0810
     22  CE3      -32.3690   27.0920   16.9670 C.ar   62  TRP62       0.0012
     23  CZ2      -30.7440   25.9750   14.9380 C.ar   62  TRP62       0.0191
     24  CZ3      -31.2660   27.7640   16.4860 C.ar   62  TRP62       0.0001
     25  CH2      -30.4440   27.1870   15.5030 C.ar   62  TRP62       0.0015
     26  N        -22.2490   19.1530    8.6620 N.3   124  HIS124     -0.1241
     27  CA       -22.6100   20.5590    9.0230 C.3   124  HIS124      0.1621
     28  C        -21.4090   21.4100    9.4610 C.2   124  HIS124      0.2264
     29  O        -21.6170   22.6260    9.7070 O.2   124  HIS124     -0.2867
     30  CB       -23.7790   20.5430   10.0300 C.3   124  HIS124      0.0745
     31  CG       -24.9810   19.7920    9.5450 C.ar  124  HIS124      0.0817
     32  ND1      -26.0600   19.4200   10.3270 N.ar  124  HIS124     -0.2268
     33  CD2      -25.3000   19.3820    8.2910 C.ar  124  HIS124      0.1154
     34  CE1      -26.9070   18.7060    9.6310 C.ar  124  HIS124      0.1986
     35  NE2      -26.5150   18.7830    8.3460 N.ar  124  HIS124     -0.2212
     36  N        -18.6700   26.1810    9.3930 N.3   169  ILE169     -0.1231
     37  CA       -20.0430   26.0350    9.9300 C.3   169  ILE169      0.1692
     38  C        -21.0380   26.5540    8.8850 C.2   169  ILE169      0.2592
     39  O        -21.1790   27.8000    8.7430 O.2   169  ILE169     -0.2718
     40  CB       -20.2340   26.7190   11.3060 C.3   169  ILE169      0.0266
     41  CG1      -19.1360   26.2920   12.2750 C.3   169  ILE169      0.0019
     42  CG2      -21.6460   26.4820   11.8510 C.3   169  ILE169      0.0020
     43  CD1      -19.1100   24.8200   12.5610 C.3   169  ILE169      0.0001
     44  N        -21.8660   25.6480    8.3710 N.am  170  LEU170     -0.1966
     45  CA       -22.8760   25.9760    7.3250 C.3   170  LEU170      0.1728
     46  C        -23.9480   26.8780    7.9530 C.2   170  LEU170      0.2616
     47  O        -24.4050   26.5720    9.0820 O.2   170  LEU170     -0.2715
     48  CB       -23.5610   24.7190    6.7850 C.3   170  LEU170      0.0311
     49  CG       -22.7170   23.5910    6.2040 C.3   170  LEU170      0.0022
     50  CD1      -23.6090   22.4650    5.7600 C.3   170  LEU170      0.0001
     51  CD2      -21.8430   24.0770    5.0640 C.3   170  LEU170      0.0001
     52  N        -24.3680   27.9280    7.2640 N.am  171  ASP171     -0.1957
     53  CA       -25.6360   28.6250    7.6020 C.3   171  ASP171      0.1840
     54  C        -26.7840   27.9090    6.8740 C.2   171  ASP171      0.2622
     55  O        -26.5260   26.9540    6.0730 O.2   171  ASP171     -0.2715
     56  CB       -25.5370   30.1090    7.2640 C.3   171  ASP171      0.1450
     57  CG       -26.3550   31.0100    8.1670 C.2   171  ASP171      0.3671
     58  OD1      -27.3720   30.5200    8.7700 O.co2 171  ASP171     -0.2456
     59  OD2      -26.0000   32.2220    8.2170 O.co2 171  ASP171     -0.2456
     60  N        -28.0260   28.2870    7.1970 N.am  172  TRP172     -0.1960
     61  CA       -29.2580   27.6100    6.7160 C.3   172  TRP172      0.1771
     62  C        -29.2350   27.4440    5.1870 C.2   172  TRP172      0.2620
     63  O        -29.6170   26.3680    4.7300 O.2   172  TRP172     -0.2715
     64  CB       -30.5180   28.3640    7.1630 C.3   172  TRP172      0.0590
     65  CG       -30.8440   28.1420    8.6050 C.ar  172  TRP172      0.0006
     66  CD1      -30.5610   28.9760    9.6500 C.ar  172  TRP172      0.0946
     67  CD2      -31.4560   26.9720    9.1790 C.ar  172  TRP172      0.0152
     68  NE1      -31.0090   28.4310   10.8260 N.ar  172  TRP172     -0.2442
     69  CE2      -31.5520   27.1990   10.5710 C.ar  172  TRP172      0.0810
     70  CE3      -31.9800   25.7860    8.6520 C.ar  172  TRP172      0.0012
     71  CZ2      -32.1170   26.2630   11.4390 C.ar  172  TRP172      0.0191
     72  CZ3      -32.5510   24.8690    9.5110 C.ar  172  TRP172      0.0001
     73  CH2      -32.6010   25.1000   10.8860 C.ar  172  TRP172      0.0015
     74  N        -28.7040   28.4200    4.4460 N.am  173  GLU173     -0.1963
     75  CA       -28.8070   28.4230    2.9540 C.3   173  GLU173      0.1733
     76  C        -27.6150   27.7000    2.3220 C.2   173  GLU173      0.2616
     77  O        -27.6090   27.5830    1.0760 O.2   173  GLU173     -0.2715
     78  CB       -28.9110   29.8420    2.3930 C.3   173  GLU173      0.0429
     79  CG       -27.6670   30.6920    2.5510 C.3   173  GLU173      0.1163
     80  CD       -27.2890   31.0970    3.9750 C.2   173  GLU173      0.3649
     81  OE1      -28.1520   30.9760    4.9250 O.co2 173  GLU173     -0.2457
     82  OE2      -26.1310   31.5450    4.1420 O.co2 173  GLU173     -0.2457
     83  N        -26.6430   27.2420    3.1240 N.am  174  ASP174     -0.1957
     84  CA       -25.3620   26.7180    2.5810 C.3   174  ASP174      0.1840
     85  C        -25.5350   25.2330    2.2850 C.2   174  ASP174      0.2623
     86  O        -25.9130   24.4680    3.1980 O.2   174  ASP174     -0.2715
     87  CB       -24.1890   26.9510    3.5330 C.3   174  ASP174      0.1450
     88  CG       -23.8430   28.4080    3.6970 C.2   174  ASP174      0.3671
     89  OD1      -23.7110   29.0690    2.6740 O.co2 174  ASP174     -0.2456
     90  OD2      -23.7390   28.8610    4.8440 O.co2 174  ASP174     -0.2456
     91  N        -25.2460   24.8200    1.0560 N.am  175  SER175     -0.1936
     92  CA       -25.2260   23.3920    0.6760 C.3   175  SER175      0.2055
     93  C        -24.0510   22.7050    1.3960 C.2   175  SER175      0.2642
     94  O        -23.0950   23.3940    1.8230 O.2   175  SER175     -0.2714
     95  CB       -25.1630   23.2410   -0.8110 C.3   175  SER175      0.2130
     96  OG       -23.9010   23.6610   -1.2760 O.3   175  SER175     -0.2179
     97  N        -24.1480   21.3870    1.5170 N.am  176  LEU176     -0.1977
     98  CA       -23.2240   20.5220    2.3090 C.3   176  LEU176      0.1596
     99  C        -21.8750   20.4130    1.6060 C.2   176  LEU176      0.2287
    100  O        -21.8160   20.4740    0.3770 O.2   176  LEU176     -0.2864
    101  CB       -23.8810   19.1550    2.4950 C.3   176  LEU176      0.0297
    102  CG       -24.6980   18.9860    3.7760 C.3   176  LEU176      0.0022
    103  CD1      -25.7600   20.0750    3.9300 C.3   176  LEU176      0.0001
    104  CD2      -25.3410   17.6060    3.8040 C.3   176  LEU176      0.0001
    105  N        -33.4010   16.8800    9.0450 N.3   203  ILE203     -0.1231
    106  CA       -32.6660   17.7150    8.0700 C.3   203  ILE203      0.1692
    107  C        -32.4260   16.8910    6.8190 C.2   203  ILE203      0.2592
    108  O        -31.8680   15.7920    6.9330 O.2   203  ILE203     -0.2718
    109  CB       -31.3590   18.2820    8.6500 C.3   203  ILE203      0.0266
    110  CG1      -31.6030   19.2570    9.7970 C.3   203  ILE203      0.0019
    111  CG2      -30.5450   18.8910    7.5310 C.3   203  ILE203      0.0020
    112  CD1      -32.5130   20.4150    9.4600 C.3   203  ILE203      0.0001
    113  N        -32.7520   17.4570    5.6660 N.am  204  ARG204     -0.1966
    114  CA       -32.3340   16.9760    4.3240 C.3   204  ARG204      0.1714
    115  C        -31.0220   17.6320    3.9070 C.2   204  ARG204      0.2458
    116  O        -30.8650   18.8380    4.0600 O.2   204  ARG204     -0.2730
    117  CB       -33.3470   17.3850    3.2580 C.3   204  ARG204      0.0347
    118  CG       -34.7320   16.8070    3.4850 C.3   204  ARG204      0.0492
    119  CD       -35.7470   17.5320    2.6290 C.3   204  ARG204      0.2205
    120  NE       -35.3610   17.4640    1.2260 N.pl3 204  ARG204     -0.0865
    121  CZ       -35.8370   16.5920    0.3390 C.cat 204  ARG204      0.5346
    122  NH1      -36.7340   15.6820    0.6910 N.pl3 204  ARG204      0.1354
    123  NH2      -35.3960   16.6320   -0.9070 N.pl3 204  ARG204      0.1354
    124  N        -30.1020   16.8830    3.2640 N.am  205  PRO205     -0.2727
    125  CA       -30.2690   15.4460    3.0620 C.3   205  PRO205      0.1402
    126  C        -29.7210   14.5700    4.2020 C.2   205  PRO205      0.2269
    127  O        -29.9560   13.3540    4.1970 O.2   205  PRO205     -0.2865
    128  CB       -29.4040   15.2270    1.8050 C.3   205  PRO205      0.0296
    129  CG       -28.2540   16.1150    2.0500 C.3   205  PRO205      0.0237
    130  CD       -28.8600   17.3710    2.6450 C.3   205  PRO205      0.0939
@<TRIPOS>BOND
     1    96    95    1
     2   123   121    1
     3    95    92    1
     4   121   122    1
     5   121   120    2
     6   100    99    2
     7    92    91    1
     8    92    93    1
     9    91    85   am
    10    77    76    2
    11   120   119    1
    12    93    97   am
    13    93    94    2
    14    97    98    1
    15    99    98    1
    16   128   129    1
    17   128   125    1
    18   129   130    1
    19    85    84    1
    20    85    86    2
    21    98   101    1
    22    76    75    1
    23    76    83   am
    24    78    79    1
    25    78    75    1
    26   101   102    1
    27    79    80    1
    28    84    83    1
    29    84    87    1
    30   119   118    1
    31   130   124    1
    32    89    88   ar
    33    75    74    1
    34   125   124    1
    35   125   126    1
    36   117   118    1
    37   117   114    1
    38   124   115   am
    39    87    88    1
    40    88    90   ar
    41   102   104    1
    42   102   103    1
    43   115   116    2
    44   115   114    1
    45    80    82   ar
    46    80    81   ar
    47   127   126    2
    48   114   113    1
    49    74    62   am
    50    63    62    2
    51    51    49    1
    52    62    61    1
    53   113   107   am
    54    50    49    1
    55    55    54    2
    56    49    48    1
    57    61    64    1
    58    61    60    1
    59    48    45    1
    60   107   108    2
    61   107   106    1
    62    54    60   am
    63    54    53    1
    64    64    65    1
    65    56    53    1
    66    56    57    1
    67    52    53    1
    68    52    46   am
    69    45    46    1
    70    45    44    1
    71   111   109    1
    72    46    47    2
    73   106   109    1
    74   106   105    1
    75    57    59   ar
    76    57    58   ar
    77    33    35   ar
    78    33    31   ar
    79    35    34   ar
    80    44    38   am
    81    65    67   ar
    82    65    66   ar
    83   109   110    1
    84    70    67   ar
    85    70    72   ar
    86    26    27    1
    87    39    38    2
    88    38    37    1
    89    27    28    1
    90    27    30    1
    91    67    69   ar
    92    36    37    1
    93   112   110    1
    94    28    29    2
    95    72    73   ar
    96    31    30    1
    97    31    32   ar
    98    34    32   ar
    99    66    68   ar
   100    37    40    1
   101    69    68   ar
   102    69    71   ar
   103    73    71   ar
   104    40    42    1
   105    40    41    1
   106    41    43    1
   107    23    21   ar
   108    23    25   ar
   109    20    21   ar
   110    20    18   ar
   111    21    19   ar
   112    25    24   ar
   113    18    17   ar
   114    19    17   ar
   115    19    22   ar
   116    24    22   ar
   117    17    16    1
   118    11    10   ar
   119    11     9   ar
   120    10     8   ar
   121     9     7   ar
   122     7     6   ar
   123     8     6   ar
   124     6     5    1
   125     5     2    1
   126    16    13    1
   127    13    12    1
   128    13    14    1
   129     2     3    1
   130     2     1    1
   131     3     4    1
   132    15    14    2
