@<TRIPOS>MOLECULE
tmp/6hoyA02.pdb
 165 160 0 0 0
SMALL
GASTEIGER

@<TRIPOS>ATOM
      1  N        -34.2470   32.4610    7.1500 N.3     1  PRO1       -0.2116
      2  CA       -33.0620   32.6930    8.0100 C.3     1  PRO1        0.1372
      3  C        -33.4800   32.9470    9.4710 C.2     1  PRO1        0.2244
      4  O        -33.1430   32.1540   10.3330 O.2     1  PRO1       -0.2868
      5  CB       -32.3440   33.9130    7.3960 C.3     1  PRO1        0.0268
      6  CG       -33.1880   34.3200    6.1950 C.3     1  PRO1        0.0207
      7  CD       -34.0350   33.1130    5.8550 C.3     1  PRO1        0.0892
      8  N        -37.4050   25.2050   11.5620 N.3     6  LYS6       -0.1301
      9  CA       -36.6100   24.4890   12.6060 C.3     6  LYS6        0.1247
     10  C        -37.2480   23.1170   12.9250 C.3     6  LYS6        0.2009
     11  O        -36.7010   22.3520   13.8150 O.3     6  LYS6       -0.2188
     12  CB       -36.4590   25.4630   13.7790 C.3     6  LYS6        0.0218
     13  CG       -35.6410   26.6740   13.3400 C.3     6  LYS6        0.0031
     14  CD       -35.1200   27.6050   14.3860 C.3     6  LYS6        0.0205
     15  CE       -34.4490   28.7980   13.7430 C.3     6  LYS6        0.1093
     16  NZ       -34.0920   29.8540   14.7250 N.3     6  LYS6       -0.1314
     17  N        -26.9990   15.4430   17.7230 N.3    44  ALA44      -0.1301
     18  CA       -26.6950   16.2760   18.9020 C.3    44  ALA44       0.1247
     19  C        -26.9960   15.4520   20.1490 C.3    44  ALA44       0.2009
     20  O        -26.3480   15.7620   21.2210 O.3    44  ALA44      -0.2188
     21  CB       -27.5010   17.5900   18.8450 C.3    44  ALA44       0.0233
     22  N        -24.1160   14.0800   22.6250 N.3    47  SER47      -0.1217
     23  CA       -23.2670   15.0980   23.2910 C.3    47  SER47       0.1889
     24  C        -24.0130   15.7260   24.4620 C.2    47  SER47       0.2288
     25  O        -23.4070   16.5290   25.2420 O.2    47  SER47      -0.2866
     26  CB       -22.8420   16.0960   22.2660 C.3    47  SER47       0.2089
     27  OG       -21.8780   15.4700   21.4130 O.3    47  SER47      -0.2183
     28  N        -23.6460   19.5990   26.3520 N.3    52  ILE52      -0.1231
     29  CA       -23.9940   20.3690   25.1320 C.3    52  ILE52       0.1678
     30  C        -25.4530   20.0650   24.8500 C.2    52  ILE52       0.2434
     31  O        -25.7690   18.8530   24.6430 O.2    52  ILE52      -0.2733
     32  CB       -23.0510   19.9640   24.0150 C.3    52  ILE52       0.0265
     33  CG1      -21.5560   20.1600   24.3480 C.3    52  ILE52       0.0019
     34  CG2      -23.5030   20.6580   22.7420 C.3    52  ILE52       0.0020
     35  CD1      -20.6050   19.7720   23.3380 C.3    52  ILE52       0.0001
     36  N        -26.2960   21.1180   24.7420 N.am   53  PRO53      -0.2729
     37  CA       -27.7040   20.9850   24.4470 C.3    53  PRO53       0.1401
     38  C        -27.8700   20.4460   23.0060 C.2    53  PRO53       0.2269
     39  O        -27.0810   20.7030   22.1660 O.2    53  PRO53      -0.2865
     40  CB       -28.2900   22.3910   24.6300 C.3    53  PRO53       0.0296
     41  CG       -27.1500   23.3200   24.3840 C.3    53  PRO53       0.0237
     42  CD       -25.8890   22.5360   24.7930 C.3    53  PRO53       0.0939
     43  N        -30.8410   20.3390   19.7280 N.3    55  PHE55      -0.1298
     44  CA       -31.6220   21.3680   19.0250 C.3    55  PHE55       0.1290
     45  C        -33.1080   21.2220   19.3420 C.3    55  PHE55       0.2013
     46  O        -33.8700   22.3310   19.3960 O.3    55  PHE55      -0.2188
     47  CB       -31.2510   21.2470   17.5500 C.3    55  PHE55       0.0480
     48  CG       -29.8400   21.6870   17.2800 C.ar   55  PHE55      -0.0206
     49  CD1      -29.5360   23.0410   17.1470 C.ar   55  PHE55      -0.0042
     50  CD2      -28.8020   20.7360   17.2400 C.ar   55  PHE55      -0.0042
     51  CE1      -28.2200   23.4240   16.9610 C.ar   55  PHE55      -0.0003
     52  CE2      -27.5180   21.1170   16.9460 C.ar   55  PHE55      -0.0003
     53  CZ       -27.2310   22.4500   16.8400 C.ar   55  PHE55      -0.0000
     54  N        -31.8260   23.7470   21.8530 N.3    61  VAL61      -0.1231
     55  CA       -31.6470   25.1500   21.3620 C.3    61  VAL61       0.1692
     56  C        -32.9440   25.6840   20.7040 C.2    61  VAL61       0.2592
     57  O        -33.4100   26.7810   21.1260 O.2    61  VAL61      -0.2718
     58  CB       -30.4550   25.3030   20.3940 C.3    61  VAL61       0.0266
     59  CG1      -30.3080   26.7600   19.9690 C.3    61  VAL61       0.0020
     60  CG2      -29.2240   24.7470   21.0440 C.3    61  VAL61       0.0020
     61  N        -33.5470   24.9850   19.7330 N.am   62  TRP62      -0.1976
     62  CA       -34.6960   25.5300   18.9830 C.3    62  TRP62       0.1640
     63  C        -35.9570   25.4400   19.8280 C.2    62  TRP62       0.2290
     64  O        -36.8090   26.3430   19.7160 O.2    62  TRP62      -0.2864
     65  CB       -34.8660   24.8460   17.6300 C.3    62  TRP62       0.0576
     66  CG       -33.6960   24.8360   16.7040 C.ar   62  TRP62       0.0006
     67  CD1      -33.4460   23.8070   15.8470 C.ar   62  TRP62       0.0946
     68  CD2      -32.6610   25.8180   16.4680 C.ar   62  TRP62       0.0152
     69  NE1      -32.3810   24.0930   15.0600 N.ar   62  TRP62      -0.2442
     70  CE2      -31.8510   25.3000   15.4380 C.ar   62  TRP62       0.0810
     71  CE3      -32.3690   27.0920   16.9670 C.ar   62  TRP62       0.0012
     72  CZ2      -30.7440   25.9750   14.9380 C.ar   62  TRP62       0.0191
     73  CZ3      -31.2660   27.7640   16.4860 C.ar   62  TRP62       0.0001
     74  CH2      -30.4440   27.1870   15.5030 C.ar   62  TRP62       0.0015
     75  N        -35.8470   28.3560   22.2810 N.3    65  GLU65      -0.1245
     76  CA       -36.1060   29.5800   21.4970 C.3    65  GLU65       0.1567
     77  C        -37.6230   29.7040   21.2230 C.2    65  GLU65       0.2260
     78  O        -38.2510   30.7730   21.5210 O.2    65  GLU65      -0.2867
     79  CB       -35.2580   29.4830   20.2420 C.3    65  GLU65       0.0388
     80  CG       -35.5660   30.5500   19.2390 C.3    65  GLU65       0.1160
     81  CD       -34.6030   30.4530   18.0760 C.2    65  GLU65       0.3649
     82  OE1      -35.0110   29.8850   17.0450 O.co2  65  GLU65      -0.2457
     83  OE2      -33.4420   30.9100   18.2330 O.co2  65  GLU65      -0.2457
     84  N        -31.2600   27.8920   25.8410 N.3    71  PRO71      -0.2116
     85  CA       -30.6570   26.5870   26.0840 C.3    71  PRO71       0.1372
     86  C        -29.5370   26.8290   27.1070 C.2    71  PRO71       0.2244
     87  O        -29.0950   27.9550   27.2260 O.2    71  PRO71      -0.2868
     88  CB       -30.0930   26.2300   24.7070 C.3    71  PRO71       0.0268
     89  CG       -29.6670   27.5190   24.1700 C.3    71  PRO71       0.0207
     90  CD       -30.7340   28.5060   24.6100 C.3    71  PRO71       0.0892
     91  N        -25.6820   25.4560   28.4620 N.3    73  PHE73      -0.1298
     92  CA       -24.4020   24.7230   28.3330 C.3    73  PHE73       0.1290
     93  C        -23.9210   24.4630   29.7510 C.3    73  PHE73       0.2013
     94  O        -23.7070   25.4830   30.4270 O.3    73  PHE73      -0.2188
     95  CB       -23.4030   25.5220   27.5330 C.3    73  PHE73       0.0480
     96  CG       -23.5490   25.3810   26.0160 C.ar   73  PHE73      -0.0206
     97  CD1      -24.5740   26.0020   25.3240 C.ar   73  PHE73      -0.0042
     98  CD2      -22.6440   24.6210   25.2980 C.ar   73  PHE73      -0.0042
     99  CE1      -24.6640   25.8990   23.9340 C.ar   73  PHE73      -0.0003
    100  CE2      -22.7330   24.5140   23.9130 C.ar   73  PHE73      -0.0003
    101  CZ       -23.7910   25.0880   23.2580 C.ar   73  PHE73      -0.0000
    102  N        -17.2620   24.3490   24.4890 N.3    77  PHE77      -0.1298
    103  CA       -16.8400   23.3380   23.5300 C.3    77  PHE77       0.1290
    104  C        -15.4060   22.9180   23.7950 C.3    77  PHE77       0.2013
    105  O        -15.1960   21.7120   23.5940 O.3    77  PHE77      -0.2188
    106  CB       -16.9720   23.8780   22.1050 C.3    77  PHE77       0.0480
    107  CG       -18.3850   24.0320   21.6730 C.ar   77  PHE77      -0.0206
    108  CD1      -19.1570   22.9280   21.3720 C.ar   77  PHE77      -0.0042
    109  CD2      -18.9240   25.2990   21.5030 C.ar   77  PHE77      -0.0042
    110  CE1      -20.4480   23.0750   20.9270 C.ar   77  PHE77      -0.0003
    111  CE2      -20.2330   25.4440   21.0550 C.ar   77  PHE77      -0.0003
    112  CZ       -20.9870   24.3280   20.7660 C.ar   77  PHE77      -0.0000
    113  N        -23.0420   16.7980   13.8020 N.3   105  ASN105     -0.1225
    114  CA       -22.5830   17.6070   14.9260 C.3   105  ASN105      0.1785
    115  C        -21.4760   18.5480   14.4980 C.2   105  ASN105      0.2597
    116  O        -20.5190   18.1510   13.7740 O.2   105  ASN105     -0.2718
    117  CB       -22.1830   16.6890   16.0730 C.3   105  ASN105      0.1169
    118  CG       -23.3450   15.8190   16.4870 C.2   105  ASN105      0.2627
    119  OD1      -24.5180   16.0630   16.1680 O.2   105  ASN105     -0.2716
    120  ND2      -23.0360   14.8110   17.2740 N.am  105  ASN105     -0.0877
    121  N        -21.5750   19.7700   14.9600 N.am  106  VAL106     -0.1966
    122  CA       -20.4480   20.6900   14.8850 C.3   106  VAL106      0.1727
    123  C        -19.5270   20.7330   16.1170 C.2   106  VAL106      0.2613
    124  O        -18.6140   21.6560   16.1550 O.2   106  VAL106     -0.2715
    125  CB       -21.0310   22.0840   14.5600 C.3   106  VAL106      0.0290
    126  CG1      -21.7270   22.1380   13.2340 C.3   106  VAL106      0.0023
    127  CG2      -21.8760   22.7040   15.6330 C.3   106  VAL106      0.0023
    128  N        -19.8970   20.0360   17.1630 N.am  107  ASP107     -0.2025
    129  CA       -19.1990   20.1990   18.4590 C.3   107  ASP107      0.1395
    130  C        -17.7080   19.7020   18.3950 C.3   107  ASP107      0.2041
    131  O        -17.0690   19.9570   19.3960 O.3   107  ASP107     -0.2185
    132  CB       -19.9080   19.4020   19.5440 C.3   107  ASP107      0.1383
    133  CG       -20.0430   17.8970   19.3370 C.2   107  ASP107      0.3667
    134  OD1      -19.1210   17.3260   18.7480 O.co2 107  ASP107     -0.2456
    135  OD2      -21.0850   17.3380   19.7030 O.co2 107  ASP107     -0.2456
    136  N        -16.6100   23.2190   14.6330 N.3   127  MET127     -0.1245
    137  CA       -16.3900   24.5430   15.2860 C.3   127  MET127      0.1570
    138  C        -14.8970   24.8370   15.3730 C.2   127  MET127      0.2261
    139  O        -14.5510   25.9820   15.5400 O.2   127  MET127     -0.2867
    140  CB       -16.9330   24.5450   16.7240 C.3   127  MET127      0.0387
    141  CG       -18.4340   24.8010   16.8390 C.3   127  MET127      0.0595
    142  SD       -18.9990   26.4080   16.1900 S.3   127  MET127     -0.1393
    143  CE       -18.5530   27.5180   17.5240 C.3   127  MET127      0.0692
    144  N        -19.0990   31.7650   12.4240 N.3   148  MET148     -0.1245
    145  CA       -20.0080   30.7510   11.8430 C.3   148  MET148      0.1570
    146  C        -20.5860   31.3090   10.5480 C.2   148  MET148      0.2261
    147  O        -20.5830   32.5490   10.3790 O.2   148  MET148     -0.2867
    148  CB       -21.1230   30.3420   12.7980 C.3   148  MET148      0.0387
    149  CG       -20.5910   29.6110   14.0020 C.3   148  MET148      0.0595
    150  SD       -21.7690   29.4480   15.3450 S.3   148  MET148     -0.1393
    151  CE       -22.7440   28.0170   14.8790 C.3   148  MET148      0.0692
    152  N        -28.0260   28.2870    7.1970 N.3   172  TRP172     -0.1241
    153  CA       -29.2580   27.6100    6.7160 C.3   172  TRP172      0.1605
    154  C        -29.2350   27.4440    5.1870 C.2   172  TRP172      0.2264
    155  O        -29.6170   26.3680    4.7300 O.2   172  TRP172     -0.2867
    156  CB       -30.5180   28.3640    7.1630 C.3   172  TRP172      0.0550
    157  CG       -30.8440   28.1420    8.6050 C.ar  172  TRP172      0.0003
    158  CD1      -30.5610   28.9760    9.6500 C.ar  172  TRP172      0.0946
    159  CD2      -31.4560   26.9720    9.1790 C.ar  172  TRP172      0.0152
    160  NE1      -31.0090   28.4310   10.8260 N.ar  172  TRP172     -0.2442
    161  CE2      -31.5520   27.1990   10.5710 C.ar  172  TRP172      0.0810
    162  CE3      -31.9800   25.7860    8.6520 C.ar  172  TRP172      0.0012
    163  CZ2      -32.1170   26.2630   11.4390 C.ar  172  TRP172      0.0191
    164  CZ3      -32.5510   24.8690    9.5110 C.ar  172  TRP172      0.0001
    165  CH2      -32.6010   25.1000   10.8860 C.ar  172  TRP172      0.0015
@<TRIPOS>BOND
     1   155   154    2
     2   154   153    1
     3     7     6    1
     4     7     1    1
     5     6     5    1
     6   153   156    1
     7   153   152    1
     8     1     2    1
     9   156   157    1
    10     5     2    1
    11     2     3    1
    12   157   159   ar
    13   157   158   ar
    14   162   159   ar
    15   162   164   ar
    16   159   161   ar
    17     3     4    2
    18   164   165   ar
    19   158   160   ar
    20   147   146    2
    21   146   145    1
    22   161   160   ar
    23   161   163   ar
    24   165   163   ar
    25     8     9    1
    26   145   144    1
    27   145   148    1
    28     9    10    1
    29     9    12    1
    30   148   149    1
    31    10    11    1
    32   126   125    1
    33    13    12    1
    34    13    14    1
    35    15    14    1
    36    15    16    1
    37   116   115    2
    38   113   114    1
    39   149   150    1
    40   115   114    1
    41   115   121   am
    42   125   122    1
    43   125   127    1
    44   136   137    1
    45   151   150    1
    46   122   121    1
    47   122   123    1
    48   114   117    1
    49    72    70   ar
    50    72    74   ar
    51    69    70   ar
    52    69    67   ar
    53   137   138    1
    54   137   140    1
    55   138   139    2
    56    70    68   ar
    57    74    73   ar
    58    67    66   ar
    59   117   118    1
    60   123   124    2
    61   123   128   am
    62   119   118    2
    63   142   141    1
    64   142   143    1
    65    68    66   ar
    66    68    71   ar
    67    73    71   ar
    68   118   120   am
    69    66    65    1
    70   140   141    1
    71    53    52   ar
    72    53    51   ar
    73    52    50   ar
    74    51    49   ar
    75    82    81   ar
    76    49    48   ar
    77   128   129    1
    78    50    48   ar
    79    48    47    1
    80    47    44    1
    81    65    62    1
    82    17    18    1
    83    81    83   ar
    84    81    80    1
    85   130   129    1
    86   130   131    1
    87   129   132    1
    88   134   133   ar
    89    21    18    1
    90    18    19    1
    91    62    61    1
    92    62    63    1
    93    44    45    1
    94    44    43    1
    95    80    79    1
    96   133   132    1
    97   133   135   ar
    98    45    46    1
    99    64    63    2
   100    61    56   am
   101    59    58    1
   102    19    20    1
   103    79    76    1
   104    58    60    1
   105    58    55    1
   106    56    57    2
   107    56    55    1
   108   112   110   ar
   109   112   111   ar
   110   110   108   ar
   111   111   109   ar
   112    77    76    1
   113    77    78    2
   114    55    54    1
   115   108   107   ar
   116    27    26    1
   117    76    75    1
   118   109   107   ar
   119   107   106    1
   120   106   103    1
   121    39    38    2
   122    26    23    1
   123    22    23    1
   124    34    32    1
   125    38    37    1
   126   101   100   ar
   127   101    99   ar
   128    23    24    1
   129    35    33    1
   130   103   104    1
   131   103   102    1
   132   105   104    1
   133   100    98   ar
   134    99    97   ar
   135    32    33    1
   136    32    29    1
   137    89    90    1
   138    89    88    1
   139    41    40    1
   140    41    42    1
   141    37    40    1
   142    37    36    1
   143    24    25    2
   144    90    84    1
   145    31    30    2
   146    88    85    1
   147    36    42    1
   148    36    30   am
   149    30    29    1
   150    29    28    1
   151    98    96   ar
   152    97    96   ar
   153    84    85    1
   154    96    95    1
   155    85    86    1
   156    86    87    2
   157    95    92    1
   158    92    91    1
   159    92    93    1
   160    93    94    1
