@<TRIPOS>MOLECULE
tmp/6hp9B00.pdb
 222 209 0 0 0
SMALL
GASTEIGER

@<TRIPOS>ATOM
      1  N         17.3630   -8.5600   -5.3860 N.3    14  LEU14      -0.1245
      2  CA        16.7760   -7.3810   -4.7640 C.3    14  LEU14       0.1561
      3  C         16.8480   -6.1460   -5.6510 C.2    14  LEU14       0.2260
      4  O         15.9650   -5.2860   -5.5730 O.2    14  LEU14      -0.2867
      5  CB        17.4790   -7.0790   -3.4330 C.3    14  LEU14       0.0270
      6  CG        17.3590   -8.1010   -2.3040 C.3    14  LEU14       0.0019
      7  CD1       18.1690   -7.6660   -1.0800 C.3    14  LEU14       0.0001
      8  CD2       15.8990   -8.3240   -1.9310 C.3    14  LEU14       0.0001
      9  N         22.2390   -6.6560   -6.5550 N.3    22  VAL22      -0.1245
     10  CA        22.1540   -7.0940   -5.1690 C.3    22  VAL22       0.1561
     11  C         21.3510   -8.3860   -5.1360 C.2    22  VAL22       0.2260
     12  O         20.2570   -8.4650   -5.7100 O.2    22  VAL22      -0.2867
     13  CB        21.5280   -6.0160   -4.2670 C.3    22  VAL22       0.0252
     14  CG1       21.3680   -6.5380   -2.8480 C.3    22  VAL22       0.0019
     15  CG2       22.3780   -4.7520   -4.2950 C.3    22  VAL22       0.0019
     16  N         22.5090   -9.6420    2.2580 N.3    39  ALA39      -0.1245
     17  CA        22.4510   -8.9910    0.9580 C.3    39  ALA39       0.1562
     18  C         23.8640   -8.9400    0.3960 C.2    39  ALA39       0.2260
     19  O         24.7980   -8.5380    1.0930 O.2    39  ALA39      -0.2867
     20  CB        21.8540   -7.5860    1.0560 C.3    39  ALA39       0.0290
     21  N         25.9990   -7.3840   -2.6640 N.3    41  LYS41      -0.1245
     22  CA        26.1120   -6.4610   -3.7810 C.3    41  LYS41       0.1561
     23  C         27.3070   -6.8950   -4.6160 C.2    41  LYS41       0.2260
     24  O         28.4390   -6.9260   -4.1180 O.2    41  LYS41      -0.2867
     25  CB        26.2660   -5.0270   -3.2750 C.3    41  LYS41       0.0271
     26  CG        26.4390   -3.9650   -4.3470 C.3    41  LYS41       0.0035
     27  CD        26.5090   -2.5840   -3.7060 C.3    41  LYS41       0.0206
     28  CE        26.8760   -1.5260   -4.7230 C.3    41  LYS41       0.1093
     29  NZ        26.6440   -0.1570   -4.2020 N.3    41  LYS41      -0.1314
     30  N         34.4410    2.9010   -7.5210 N.3    54  ASP54      -0.1239
     31  CA        33.4060    3.2250   -6.5350 C.3    54  ASP54       0.1674
     32  C         33.1710    2.0690   -5.5760 C.2    54  ASP54       0.2266
     33  O         32.9950    2.2750   -4.3700 O.2    54  ASP54      -0.2867
     34  CB        32.0800    3.5550   -7.2180 C.3    54  ASP54       0.1410
     35  CG        32.1040    4.8570   -7.9730 C.2    54  ASP54       0.3668
     36  OD1       32.9880    5.6980   -7.7140 O.co2  54  ASP54      -0.2456
     37  OD2       31.2060    5.0360   -8.8180 O.co2  54  ASP54      -0.2456
     38  N         36.0210    1.8180   -3.0670 N.3    57  LYS57      -0.1231
     39  CA        35.9470    2.8980   -2.0810 C.3    57  LYS57       0.1693
     40  C         34.7800    2.7040   -1.1190 C.2    57  LYS57       0.2591
     41  O         34.8850    3.0750    0.0540 O.2    57  LYS57      -0.2718
     42  CB        35.8590    4.2640   -2.7720 C.3    57  LYS57       0.0285
     43  CG        37.1930    4.7060   -3.3730 C.3    57  LYS57       0.0035
     44  CD        37.2920    6.2140   -3.5810 C.3    57  LYS57       0.0206
     45  CE        36.6410    6.6720   -4.8840 C.3    57  LYS57       0.1093
     46  NZ        36.9370    8.1210   -5.1360 N.3    57  LYS57      -0.1314
     47  N         33.6790    2.1070   -1.5810 N.am   58  GLU58      -0.1979
     48  CA        32.5500    1.8580   -0.6950 C.3    58  GLU58       0.1602
     49  C         32.9110    0.8250    0.3700 C.2    58  GLU58       0.2287
     50  O         32.5300    0.9750    1.5350 O.2    58  GLU58      -0.2864
     51  CB        31.3260    1.4200   -1.5070 C.3    58  GLU58       0.0415
     52  CG        30.0770    1.1940   -0.6530 C.3    58  GLU58       0.1163
     53  CD        28.7950    1.1550   -1.4520 C.2    58  GLU58       0.3649
     54  OE1       28.8480    0.8500   -2.6610 O.co2  58  GLU58      -0.2457
     55  OE2       27.7180    1.4260   -0.8650 O.co2  58  GLU58      -0.2457
     56  N         35.0110    2.5320    3.1190 N.3    61  ILE61      -0.1231
     57  CA        34.1800    3.3440    4.0110 C.3    61  ILE61       0.1692
     58  C         33.3720    2.4560    4.9480 C.2    61  ILE61       0.2591
     59  O         33.3810    2.6410    6.1730 O.2    61  ILE61      -0.2718
     60  CB        33.2470    4.2630    3.1920 C.3    61  ILE61       0.0266
     61  CG1       34.0430    5.2660    2.3570 C.3    61  ILE61       0.0019
     62  CG2       32.2030    4.9480    4.1020 C.3    61  ILE61       0.0020
     63  CD1       34.9970    6.1070    3.1340 C.3    61  ILE61       0.0001
     64  N         32.6460    1.4890    4.3810 N.am   62  MET62      -0.1979
     65  CA        31.7410    0.6670    5.1750 C.3    62  MET62       0.1605
     66  C         32.4870   -0.1860    6.1920 C.2    62  MET62       0.2287
     67  O         31.9110   -0.5600    7.2210 O.2    62  MET62      -0.2864
     68  CB        30.9240   -0.2340    4.2680 C.3    62  MET62       0.0413
     69  CG        29.9980    0.5130    3.3280 C.3    62  MET62       0.0598
     70  SD        29.0690   -0.6920    2.4240 S.3    62  MET62      -0.1393
     71  CE        27.8600   -1.1780    3.6590 C.3    62  MET62       0.0692
     72  N         32.3210    1.0630    9.7530 N.3    65  LEU65      -0.1245
     73  CA        31.0410    1.4400   10.3560 C.3    65  LEU65       0.1561
     74  C         30.4540    0.2440   11.1010 C.2    65  LEU65       0.2260
     75  O         29.8990   -0.6750   10.4930 O.2    65  LEU65      -0.2867
     76  CB        30.1000    1.9680    9.2790 C.3    65  LEU65       0.0270
     77  CG        30.7390    3.0910    8.4570 C.3    65  LEU65       0.0019
     78  CD1       29.7940    3.5630    7.3580 C.3    65  LEU65       0.0001
     79  CD2       31.1640    4.2550    9.3480 C.3    65  LEU65       0.0001
     80  N         23.5370    1.2440   12.0040 N.3    70  ILE70      -0.1231
     81  CA        24.1900    1.5070   10.7230 C.3    70  ILE70       0.1692
     82  C         24.2700    0.1800    9.9880 C.2    70  ILE70       0.2591
     83  O         24.5780   -0.8470   10.6030 O.2    70  ILE70      -0.2718
     84  CB        25.6100    2.1040   10.8810 C.3    70  ILE70       0.0266
     85  CG1       25.6240    3.3770   11.7380 C.3    70  ILE70       0.0019
     86  CG2       26.2700    2.3430    9.4980 C.3    70  ILE70       0.0020
     87  CD1       24.8790    4.5420   11.1660 C.3    70  ILE70       0.0001
     88  N         24.0030    0.1940    8.6750 N.am   71  ILE71      -0.1980
     89  CA        24.1730   -1.0180    7.8820 C.3    71  ILE71       0.1595
     90  C         25.5880   -1.5430    8.0850 C.2    71  ILE71       0.2287
     91  O         26.5320   -0.7770    8.3110 O.2    71  ILE71      -0.2864
     92  CB        23.8510   -0.7500    6.3950 C.3    71  ILE71       0.0276
     93  CG1       23.7840   -2.0660    5.6000 C.3    71  ILE71       0.0022
     94  CG2       24.8510    0.2300    5.7850 C.3    71  ILE71       0.0022
     95  CD1       23.3070   -1.9090    4.0980 C.3    71  ILE71       0.0001
     96  N         30.3700   -7.4570   -1.9320 N.3    85  MET85      -0.1245
     97  CA        30.3020   -6.9910   -0.5570 C.3    85  MET85       0.1570
     98  C         29.0210   -7.5330    0.0500 C.2    85  MET85       0.2261
     99  O         27.9750   -7.5760   -0.6080 O.2    85  MET85      -0.2867
    100  CB        30.3750   -5.4590   -0.4520 C.3    85  MET85       0.0387
    101  CG        29.1750   -4.6840   -0.9470 C.3    85  MET85       0.0595
    102  SD        29.3770   -2.9060   -0.6540 S.3    85  MET85      -0.1393
    103  CE        30.5480   -2.4500   -1.9290 C.3    85  MET85       0.0692
    104  N         26.3320   -7.4810    3.1860 N.3    87  THR87      -0.1203
    105  CA        25.7830   -6.6640    4.2550 C.3    87  THR87       0.1994
    106  C         24.6870   -7.4310    4.9750 C.2    87  THR87       0.2618
    107  O         24.1780   -8.4390    4.4750 O.2    87  THR87      -0.2717
    108  CB        25.2030   -5.3500    3.7260 C.3    87  THR87       0.1784
    109  OG1       23.9070   -5.6060    3.1770 O.3    87  THR87      -0.2211
    110  CG2       26.1170   -4.7450    2.6440 C.3    87  THR87       0.0376
    111  N         24.3160   -6.9430    6.1580 N.am   88  ASP88      -0.1959
    112  CA        23.1390   -7.4980    6.8040 C.3    88  ASP88       0.1840
    113  C         21.9030   -7.1200    6.0000 C.2    88  ASP88       0.2622
    114  O         21.8990   -6.1360    5.2540 O.2    88  ASP88      -0.2715
    115  CB        23.0210   -7.0430    8.2700 C.3    88  ASP88       0.1450
    116  CG        23.2310   -5.5430    8.4680 C.2    88  ASP88       0.3671
    117  OD1       23.6370   -4.8470    7.5210 O.co2  88  ASP88      -0.2456
    118  OD2       22.9810   -5.0580    9.5970 O.co2  88  ASP88      -0.2456
    119  N         20.8720   -7.9500    6.1120 N.am   89  TYR89      -0.1960
    120  CA        19.6410   -7.8160    5.3410 C.3    89  TYR89       0.1771
    121  C         18.5230   -7.2810    6.2320 C.2    89  TYR89       0.2619
    122  O         18.2090   -7.8760    7.2680 O.2    89  TYR89      -0.2715
    123  CB        19.2490   -9.1620    4.7300 C.3    89  TYR89       0.0574
    124  CG        17.9300   -9.1420    3.9950 C.ar   89  TYR89      -0.0198
    125  CD1       17.7060   -8.2500    2.9550 C.ar   89  TYR89      -0.0009
    126  CD2       16.9180  -10.0320    4.3240 C.ar   89  TYR89      -0.0009
    127  CE1       16.5040   -8.2360    2.2740 C.ar   89  TYR89       0.0417
    128  CE2       15.7120  -10.0260    3.6480 C.ar   89  TYR89       0.0417
    129  CZ        15.5090   -9.1280    2.6320 C.ar   89  TYR89       0.1957
    130  OH        14.3100   -9.1270    1.9650 O.3    89  TYR89      -0.2866
    131  N         17.9250   -6.1610    5.8220 N.am   90  MET90      -0.1977
    132  CA        16.7750   -5.5660    6.4930 C.3    90  MET90       0.1605
    133  C         15.5520   -5.8480    5.6230 C.2    90  MET90       0.2287
    134  O         15.3860   -5.2510    4.5510 O.2    90  MET90      -0.2864
    135  CB        16.9850   -4.0680    6.7280 C.3    90  MET90       0.0413
    136  CG        17.7910   -3.7230    7.9900 C.3    90  MET90       0.0598
    137  SD        19.4830   -4.3600    7.9950 S.3    90  MET90      -0.1393
    138  CE        20.1290   -3.5700    6.5200 C.3    90  MET90       0.0692
    139  N         12.5420   -3.2640    3.7370 N.3    93  GLY93      -0.1225
    140  CA        12.7590   -2.2320    2.7410 C.3    93  GLY93       0.1811
    141  C         13.1260   -0.9100    3.3850 C.2    93  GLY93       0.2280
    142  O         13.3320   -0.8080    4.6010 O.2    93  GLY93      -0.2866
    143  N         28.1280    7.9730   13.9100 N.3   129  LEU129     -0.1245
    144  CA        28.8980    8.4680   12.7720 C.3   129  LEU129      0.1561
    145  C         29.6510    9.7380   13.1340 C.2   129  LEU129      0.2260
    146  O         30.7730    9.9560   12.6670 O.2   129  LEU129     -0.2867
    147  CB        27.9780    8.7270   11.5670 C.3   129  LEU129      0.0270
    148  CG        27.3730    7.5410   10.8320 C.3   129  LEU129      0.0019
    149  CD1       26.4590    8.0420    9.6930 C.3   129  LEU129      0.0001
    150  CD2       28.4770    6.6400   10.2910 C.3   129  LEU129      0.0001
    151  N         32.4480   11.2700   10.5530 N.3   134  PHE134     -0.1241
    152  CA        31.9380   10.8680    9.2520 C.3   134  PHE134      0.1605
    153  C         30.6970   11.7010    8.9680 C.2   134  PHE134      0.2264
    154  O         29.7600   11.7140    9.7690 O.2   134  PHE134     -0.2867
    155  CB        31.6250    9.3730    9.2160 C.3   134  PHE134      0.0534
    156  CG        31.2190    8.8870    7.8620 C.ar  134  PHE134     -0.0203
    157  CD1       32.1800    8.5440    6.9170 C.ar  134  PHE134     -0.0042
    158  CD2       29.8810    8.8100    7.5120 C.ar  134  PHE134     -0.0042
    159  CE1       31.8160    8.1200    5.6590 C.ar  134  PHE134     -0.0003
    160  CE2       29.5130    8.3830    6.2460 C.ar  134  PHE134     -0.0003
    161  CZ        30.4790    8.0350    5.3270 C.ar  134  PHE134     -0.0000
    162  N         27.5290   12.1830    6.6780 N.3   136  HIS136     -0.1226
    163  CA        26.7510   11.2830    5.8280 C.3   136  HIS136      0.1752
    164  C         26.4400   11.9220    4.4790 C.2   136  HIS136      0.2595
    165  O         26.5680   11.2750    3.4330 O.2   136  HIS136     -0.2718
    166  CB        25.4530   10.8820    6.5380 C.3   136  HIS136      0.0759
    167  CG        24.6300    9.8860    5.7810 C.ar  136  HIS136      0.0818
    168  ND1       23.9450   10.2020    4.6230 N.ar  136  HIS136     -0.2268
    169  CD2       24.3850    8.5760    6.0150 C.ar  136  HIS136      0.1154
    170  CE1       23.3140    9.1270    4.1800 C.ar  136  HIS136      0.1986
    171  NE2       23.5600    8.1270    5.0100 N.ar  136  HIS136     -0.2212
    172  N         25.9790   13.1720    4.4960 N.am  137  ARG137     -0.1980
    173  CA        25.6560   14.0720    3.3890 C.3   137  ARG137      0.1597
    174  C         24.3250   13.7600    2.6670 C.2   137  ARG137      0.2287
    175  O         23.9330   14.5480    1.8070 O.2   137  ARG137     -0.2864
    176  CB        26.7730   14.1540    2.3240 C.3   137  ARG137      0.0334
    177  CG        28.1450   14.5810    2.8710 C.3   137  ARG137      0.0492
    178  CD        29.2150   14.5020    1.7700 C.3   137  ARG137      0.2205
    179  NE        29.4320   13.1180    1.3580 N.pl3 137  ARG137     -0.0865
    180  CZ        29.9660   12.7530    0.1980 C.cat 137  ARG137      0.5346
    181  NH1       30.1220   11.4630   -0.0830 N.pl3 137  ARG137      0.1354
    182  NH2       30.3440   13.6720   -0.6840 N.pl3 137  ARG137      0.1354
    183  N         17.0320    1.7700    6.3110 N.3   145  LEU145     -0.1245
    184  CA        16.4810    0.4440    6.0820 C.3   145  LEU145      0.1561
    185  C         15.8070   -0.0630    7.3480 C.2   145  LEU145      0.2260
    186  O         16.3070    0.1560    8.4590 O.2   145  LEU145     -0.2867
    187  CB        17.5710   -0.5300    5.6350 C.3   145  LEU145      0.0270
    188  CG        18.0920   -0.2640    4.2090 C.3   145  LEU145      0.0019
    189  CD1       19.3830   -1.0170    3.9410 C.3   145  LEU145      0.0001
    190  CD2       17.0370   -0.6320    3.1830 C.3   145  LEU145      0.0001
    191  N         20.7480    3.0420    9.2770 N.3   154  ILE154     -0.1231
    192  CA        21.0910    4.1050    8.3380 C.3   154  ILE154      0.1692
    193  C         21.9540    3.5330    7.2210 C.2   154  ILE154      0.2592
    194  O         22.8740    2.7440    7.4620 O.2   154  ILE154     -0.2718
    195  CB        21.8210    5.2540    9.0550 C.3   154  ILE154      0.0266
    196  CG1       20.9350    5.8500   10.1440 C.3   154  ILE154      0.0019
    197  CG2       22.2650    6.3310    8.0560 C.3   154  ILE154      0.0020
    198  CD1       21.5240    7.0690   10.7850 C.3   154  ILE154      0.0001
    199  N         21.6550    3.9140    5.9860 N.am  155  ALA155     -0.1966
    200  CA        22.4200    3.4220    4.8510 C.3   155  ALA155      0.1728
    201  C         22.6550    4.5860    3.9000 C.2   155  ALA155      0.2616
    202  O         22.4900    5.7570    4.2660 O.2   155  ALA155     -0.2715
    203  CB        21.7060    2.2400    4.1850 C.3   155  ALA155      0.0334
    204  N         23.0590    4.2430    2.6700 N.am  156  ASP156     -0.1957
    205  CA        23.3400    5.2270    1.6270 C.3   156  ASP156      0.1840
    206  C         23.3100    4.4580    0.3070 C.2   156  ASP156      0.2622
    207  O         24.2770    3.7680   -0.0220 O.2   156  ASP156     -0.2715
    208  CB        24.6850    5.9070    1.8350 C.3   156  ASP156      0.1450
    209  CG        24.9530    7.0150    0.8090 C.2   156  ASP156      0.3671
    210  OD1       24.1420    7.2030   -0.1280 O.co2 156  ASP156     -0.2456
    211  OD2       25.9760    7.7140    0.9520 O.co2 156  ASP156     -0.2456
    212  N         22.2010    4.5750   -0.4240 N.am  157  PHE157     -0.1974
    213  CA        22.0530    3.9020   -1.7120 C.3   157  PHE157      0.1639
    214  C         22.7270    4.6450   -2.8520 C.2   157  PHE157      0.2290
    215  O         22.6480    4.1870   -4.0030 O.2   157  PHE157     -0.2864
    216  CB        20.5680    3.7230   -2.0490 C.3   157  PHE157      0.0560
    217  CG        19.9070    2.6510   -1.2540 C.ar  157  PHE157     -0.0200
    218  CD1       19.5370    2.8830    0.0550 C.ar  157  PHE157     -0.0042
    219  CD2       19.6740    1.4040   -1.8100 C.ar  157  PHE157     -0.0042
    220  CE1       18.9400    1.8990    0.7990 C.ar  157  PHE157     -0.0003
    221  CE2       19.0740    0.4150   -1.0730 C.ar  157  PHE157     -0.0003
    222  CZ        18.7090    0.6600    0.2340 C.ar  157  PHE157     -0.0000
@<TRIPOS>BOND
     1    37    35   ar
     2    35    36   ar
     3    35    34    1
     4    30    31    1
     5    34    31    1
     6     9    10    1
     7    31    32    1
     8    12    11    2
     9     3     4    2
    10     3     2    1
    11    32    33    2
    12     1     2    1
    13    10    11    1
    14    10    13    1
    15    46    45    1
    16    45    44    1
    17     2     5    1
    18    28    29    1
    19    28    27    1
    20    23    24    2
    21    23    22    1
    22    26    27    1
    23    26    25    1
    24    15    13    1
    25    13    14    1
    26   215   214    2
    27    22    25    1
    28    22    21    1
    29    44    43    1
    30     5     6    1
    31    43    42    1
    32    38    39    1
    33   214   213    1
    34    42    39    1
    35    54    53   ar
    36     6     8    1
    37     6     7    1
    38    39    40    1
    39   216   213    1
    40   216   217    1
    41    96    97    1
    42   103   102    1
    43   219   217   ar
    44   219   221   ar
    45   213   212    1
    46    47    40   am
    47    47    48    1
    48    51    48    1
    49    51    52    1
    50    53    55   ar
    51    53    52    1
    52   217   218   ar
    53    40    41    2
    54   221   222   ar
    55   101   102    1
    56   101   100    1
    57    48    49    1
    58   182   180    1
    59    99    98    2
    60    97   100    1
    61    97    98    1
    62   212   206   am
    63   210   209   ar
    64   181   180    1
    65   207   206    2
    66   218   220   ar
    67   180   179    2
    68   222   220   ar
    69   206   205    1
    70    49    50    2
    71    18    17    1
    72    18    19    2
    73   209   211   ar
    74   209   208    1
    75    17    20    1
    76    17    16    1
    77   179   178    1
    78   205   208    1
    79   205   204    1
    80   178   177    1
    81   175   174    2
    82   130   129    1
    83   127   129   ar
    84   127   125   ar
    85   176   177    1
    86   176   173    1
    87    61    63    1
    88    61    60    1
    89    70    69    1
    90    70    71    1
    91   129   128   ar
    92   110   108    1
    93   174   173    1
    94   204   201   am
    95   140   141    1
    96   140   139    1
    97   125   124   ar
    98    56    57    1
    99   109   108    1
   100   190   188    1
   101   104   105    1
   102    60    57    1
   103    60    62    1
   104    69    68    1
   105   141   142    2
   106   173   172    1
   107   165   164    2
   108   128   126   ar
   109   108   105    1
   110   201   202    2
   111   201   200    1
   112   189   188    1
   113   124   126   ar
   114   124   123    1
   115    57    58    1
   116    95    93    1
   117   170   168   ar
   118   170   171   ar
   119   203   200    1
   120   188   187    1
   121   105   106    1
   122    68    65    1
   123    64    58   am
   124    64    65    1
   125   107   106    2
   126   164   172   am
   127   164   163    1
   128   134   133    2
   129   168   167   ar
   130   123   120    1
   131   200   199    1
   132    58    59    2
   133   106   111   am
   134   171   169   ar
   135    65    66    1
   136   114   113    2
   137   161   159   ar
   138   161   160   ar
   139   120   119    1
   140   120   121    1
   141    93    92    1
   142   133   132    1
   143   187   184    1
   144   159   157   ar
   145   167   169   ar
   146   167   166    1
   147    94    92    1
   148   131   121   am
   149   131   132    1
   150   163   166    1
   151   163   162    1
   152   199   193   am
   153   113   119   am
   154   113   112    1
   155   184   183    1
   156   184   185    1
   157   111   112    1
   158    66    67    2
   159   121   122    2
   160   160   158   ar
   161    92    89    1
   162   132   135    1
   163   138   137    1
   164   135   136    1
   165   112   115    1
   166   157   156   ar
   167   193   194    2
   168   193   192    1
   169   185   186    2
   170    78    77    1
   171   158   156   ar
   172   117   116   ar
   173   156   155    1
   174    89    90    1
   175    89    88    1
   176   136   137    1
   177   197   195    1
   178    90    91    2
   179   115   116    1
   180   192   195    1
   181   192   191    1
   182    77    76    1
   183    77    79    1
   184   116   118   ar
   185    88    82   am
   186   153   152    1
   187   153   154    2
   188   195   196    1
   189   155   152    1
   190   152   151    1
   191    76    73    1
   192    86    84    1
   193   149   148    1
   194    72    73    1
   195    82    83    2
   196    82    81    1
   197   196   198    1
   198   150   148    1
   199    73    74    1
   200    75    74    2
   201    81    84    1
   202    81    80    1
   203   148   147    1
   204    84    85    1
   205    87    85    1
   206   147   144    1
   207   146   145    2
   208   144   145    1
   209   144   143    1
