@<TRIPOS>MOLECULE
tmp/6hpqA00.pdb
 169 162 0 0 0
SMALL
GASTEIGER

@<TRIPOS>ATOM
      1  N         29.3120  -63.5400   50.1640 N.3     1  MET1       -0.1230
      2  CA        30.0380  -63.1020   51.4190 C.3     1  MET1        0.1702
      3  C         29.8220  -64.1210   52.5420 C.2     1  MET1        0.2592
      4  O         28.7720  -64.7900   52.6010 O.2     1  MET1       -0.2718
      5  CB        29.5830  -61.7240   51.9210 C.3     1  MET1        0.0401
      6  CG        30.6720  -60.6620   51.9100 C.3     1  MET1        0.0596
      7  SD        29.9740  -58.9790   51.7760 S.3     1  MET1       -0.1393
      8  CE        29.4610  -59.0330   50.0580 C.3     1  MET1        0.0692
      9  N         30.8020  -64.1980   53.4330 N.am    2  GLN2       -0.1966
     10  CA        30.7610  -65.0390   54.6560 C.3     2  GLN2        0.1733
     11  C         29.7640  -64.4390   55.6560 C.2     2  GLN2        0.2616
     12  O         30.0760  -63.3940   56.2100 O.2     2  GLN2       -0.2715
     13  CB        32.1640  -65.0330   55.2570 C.3     2  GLN2        0.0408
     14  CG        32.2380  -65.5760   56.6690 C.3     2  GLN2        0.0908
     15  CD        32.3080  -67.0810   56.6450 C.2     2  GLN2        0.2608
     16  OE1       31.3370  -67.7550   56.3120 O.2     2  GLN2       -0.2717
     17  NE2       33.4790  -67.6150   56.9540 N.am    2  GLN2       -0.0878
     18  N         28.6320  -65.0810   55.9440 N.am    3  LEU3       -0.1963
     19  CA        27.7290  -64.5960   57.0190 C.3     3  LEU3        0.1728
     20  C         28.4720  -64.6360   58.3390 C.2     3  LEU3        0.2616
     21  O         29.2730  -65.5520   58.5580 O.2     3  LEU3       -0.2715
     22  CB        26.4780  -65.4610   57.1380 C.3     3  LEU3        0.0311
     23  CG        25.5180  -65.5140   55.9420 C.3     3  LEU3        0.0022
     24  CD1       24.3210  -66.3870   56.2880 C.3     3  LEU3        0.0001
     25  CD2       25.0340  -64.1250   55.5660 C.3     3  LEU3        0.0001
     26  N         28.2150  -63.6640   59.1950 N.am    4  SER4       -0.1950
     27  CA        28.7250  -63.6860   60.5770 C.3     4  SER4        0.1924
     28  C         28.0420  -64.8300   61.3220 C.2     4  SER4        0.2314
     29  O         27.0240  -65.3190   60.9250 O.2     4  SER4       -0.2863
     30  CB        28.4730  -62.3790   61.2230 C.3     4  SER4        0.2116
     31  OG        27.0710  -62.1520   61.3970 O.3     4  SER4       -0.2180
     32  N         24.4780  -63.6980   61.9120 N.3     7  GLN7       -0.1245
     33  CA        23.6310  -63.8390   60.7040 C.3     7  GLN7        0.1566
     34  C         23.3050  -65.3250   60.4780 C.2     7  GLN7        0.2260
     35  O         22.1700  -65.6200   60.0990 O.2     7  GLN7       -0.2867
     36  CB        24.3550  -63.2200   59.5060 C.3     7  GLN7        0.0367
     37  CG        24.4180  -61.6940   59.5660 C.3     7  GLN7        0.0905
     38  CD        25.2250  -61.1370   58.4230 C.2     7  GLN7        0.2608
     39  OE1       26.2490  -61.7200   58.0680 O.2     7  GLN7       -0.2717
     40  NE2       24.7450  -60.0450   57.8340 N.am    7  GLN7       -0.0878
     41  N         21.4850  -49.7240   62.4140 N.3    26  ALA26      -0.1231
     42  CA        21.6650  -49.4020   60.9920 C.3    26  ALA26       0.1694
     43  C         22.9470  -50.0440   60.4980 C.2    26  ALA26       0.2593
     44  O         24.0160  -49.9870   61.1340 O.2    26  ALA26      -0.2718
     45  CB        21.7130  -47.8950   60.8180 C.3    26  ALA26       0.0304
     46  N         22.8650  -50.7070   59.3610 N.am   27  GLY27      -0.1942
     47  CA        24.0750  -51.1460   58.6600 C.3    27  GLY27       0.2014
     48  C         24.6590  -52.4590   59.1880 C.2    27  GLY27       0.2640
     49  O         25.8120  -52.7570   58.8320 O.2    27  GLY27      -0.2714
     50  N         23.8700  -53.2390   59.9380 N.am   28  THR28      -0.1936
     51  CA        24.2860  -54.5280   60.5140 C.3    28  THR28       0.2028
     52  C         23.9910  -55.6950   59.5810 C.2    28  THR28       0.2643
     53  O         24.2880  -56.8340   59.9130 O.2    28  THR28      -0.2714
     54  CB        23.6770  -54.7430   61.8970 C.3    28  THR28       0.1808
     55  OG1       22.2440  -54.5710   61.8300 O.3    28  THR28      -0.2208
     56  CG2       24.2750  -53.8400   62.9620 C.3    28  THR28       0.0379
     57  N         23.4700  -55.4080   58.3970 N.am   29  GLY29      -0.1939
     58  CA        23.2140  -56.4310   57.3960 C.3    29  GLY29       0.2014
     59  C         21.8790  -57.1270   57.5290 C.2    29  GLY29       0.2639
     60  O         21.7760  -58.2920   57.1060 O.2    29  GLY29      -0.2714
     61  N         20.8660  -56.4970   58.0910 N.am   30  LYS30      -0.1963
     62  CA        19.5210  -57.1240   58.2110 C.3    30  LYS30       0.1728
     63  C         18.9220  -57.4000   56.8230 C.2    30  LYS30       0.2617
     64  O         18.4620  -58.5290   56.5610 O.2    30  LYS30      -0.2715
     65  CB        18.5990  -56.2110   59.0290 C.3    30  LYS30       0.0311
     66  CG        18.9590  -56.0930   60.5020 C.3    30  LYS30       0.0038
     67  CD        18.1070  -55.0710   61.2200 C.3    30  LYS30       0.0206
     68  CE        18.2870  -53.6730   60.6750 C.3    30  LYS30       0.1093
     69  NZ        17.2230  -52.7650   61.1590 N.3    30  LYS30      -0.1314
     70  N         18.8970  -56.3960   55.9740 N.am   31  SER31      -0.1936
     71  CA        18.2580  -56.5320   54.6230 C.3    31  SER31       0.2055
     72  C         19.0880  -57.4810   53.7500 C.2    31  SER31       0.2643
     73  O         18.5000  -58.3200   53.0390 O.2    31  SER31      -0.2714
     74  CB        18.1110  -55.1500   54.0110 C.3    31  SER31       0.2130
     75  OG        17.2350  -54.3600   54.7930 O.3    31  SER31      -0.2179
     76  N         20.4050  -57.3920   53.8530 N.am   32  TYR32      -0.1973
     77  CA        21.3200  -58.3480   53.1900 C.3    32  TYR32       0.1639
     78  C         20.9830  -59.7670   53.6150 C.2    32  TYR32       0.2290
     79  O         20.8310  -60.6740   52.7870 O.2    32  TYR32      -0.2864
     80  CB        22.7630  -58.0330   53.5400 C.3    32  TYR32       0.0560
     81  CG        23.7070  -59.0440   52.9860 C.ar   32  TYR32      -0.0198
     82  CD1       24.0140  -59.0550   51.6360 C.ar   32  TYR32      -0.0009
     83  CD2       24.2470  -60.0230   53.7990 C.ar   32  TYR32      -0.0009
     84  CE1       24.8040  -60.0550   51.1110 C.ar   32  TYR32       0.0417
     85  CE2       25.0930  -60.9920   53.2860 C.ar   32  TYR32       0.0417
     86  CZ        25.3420  -61.0200   51.9370 C.ar   32  TYR32       0.1957
     87  OH        26.1640  -61.9560   51.3730 O.3    32  TYR32      -0.2866
     88  N         17.8850  -61.0560   51.9820 N.3    35  LYS35      -0.1245
     89  CA        18.1500  -61.5530   50.6090 C.3    35  LYS35       0.1561
     90  C         18.7100  -62.9880   50.6690 C.2    35  LYS35       0.2260
     91  O         18.3130  -63.8590   49.8600 O.2    35  LYS35      -0.2867
     92  CB        19.0980  -60.6080   49.8940 C.3    35  LYS35       0.0271
     93  CG        18.4540  -59.2790   49.5970 C.3    35  LYS35       0.0035
     94  CD        19.2890  -58.3740   48.7220 C.3    35  LYS35       0.0206
     95  CE        19.8870  -57.1990   49.4410 C.3    35  LYS35       0.1093
     96  NZ        21.3560  -57.3500   49.5660 N.3    35  LYS35      -0.1314
     97  N         10.5430  -56.6840   56.0920 N.3   102  ASP102     -0.1225
     98  CA        11.6320  -55.7420   56.4590 C.3   102  ASP102      0.1805
     99  C         11.0740  -54.3990   56.9260 C.2   102  ASP102      0.2597
    100  O          9.8710  -54.0450   56.6610 O.2   102  ASP102     -0.2718
    101  CB        12.5710  -55.5230   55.2650 C.3   102  ASP102      0.1424
    102  CG        13.9860  -55.0900   55.5980 C.2   102  ASP102      0.3668
    103  OD1       14.3060  -54.7850   56.8190 O.co2 102  ASP102     -0.2456
    104  OD2       14.8240  -55.0620   54.6480 O.co2 102  ASP102     -0.2456
    105  N         11.9220  -53.6380   57.6250 N.am  103  GLU103     -0.1979
    106  CA        11.5500  -52.2930   58.1420 C.3   103  GLU103      0.1602
    107  C         10.2520  -52.3810   58.9540 C.2   103  GLU103      0.2287
    108  O          9.3270  -51.5930   58.6710 O.2   103  GLU103     -0.2864
    109  CB        11.4050  -51.3000   56.9870 C.3   103  GLU103      0.0415
    110  CG        12.7220  -50.9590   56.3150 C.3   103  GLU103      0.1163
    111  CD        13.7720  -50.3690   57.2410 C.2   103  GLU103      0.3649
    112  OE1       13.4920  -50.2520   58.4510 O.co2 103  GLU103     -0.2457
    113  OE2       14.8660  -50.0280   56.7510 O.co2 103  GLU103     -0.2457
    114  N         14.9460  -46.8270   64.6550 N.3   142  GLN142     -0.1245
    115  CA        14.9420  -46.0890   63.3790 C.3   142  GLN142      0.1566
    116  C         13.5470  -45.4860   63.1420 C.2   142  GLN142      0.2260
    117  O         13.0150  -44.8820   64.0750 O.2   142  GLN142     -0.2867
    118  CB        15.5300  -46.9560   62.2760 C.3   142  GLN142      0.0367
    119  CG        17.0380  -47.2060   62.4270 C.3   142  GLN142      0.0905
    120  CD        17.6260  -47.9990   61.2790 C.2   142  GLN142      0.2608
    121  OE1       18.3640  -48.9890   61.4460 O.2   142  GLN142     -0.2717
    122  NE2       17.4360  -47.4840   60.1060 N.am  142  GLN142     -0.0878
    123  N         28.4980  -53.0370   59.4520 N.3   176  TRP176     -0.1227
    124  CA        29.3140  -53.1820   58.2230 C.3   176  TRP176      0.1737
    125  C         29.2610  -51.9180   57.3530 C.2   176  TRP176      0.2595
    126  O         30.2030  -51.6860   56.6110 O.2   176  TRP176     -0.2718
    127  CB        28.8680  -54.3890   57.4100 C.3   176  TRP176      0.0564
    128  CG        28.7620  -55.6810   58.1570 C.ar  176  TRP176      0.0003
    129  CD1       27.6450  -56.3150   58.6510 C.ar  176  TRP176      0.0946
    130  CD2       29.8350  -56.5580   58.3990 C.ar  176  TRP176      0.0152
    131  NE1       27.9880  -57.4990   59.2500 N.ar  176  TRP176     -0.2442
    132  CE2       29.3320  -57.6880   59.0840 C.ar  176  TRP176      0.0810
    133  CE3       31.1870  -56.4540   58.1270 C.ar  176  TRP176      0.0012
    134  CZ2       30.1680  -58.7310   59.4850 C.ar  176  TRP176      0.0191
    135  CZ3       32.0020  -57.4990   58.4960 C.ar  176  TRP176      0.0001
    136  CH2       31.5030  -58.6130   59.1730 C.ar  176  TRP176      0.0015
    137  N         28.1710  -51.1680   57.3870 N.am  177  ARG177     -0.1980
    138  CA        28.0120  -50.0300   56.4440 C.3   177  ARG177      0.1597
    139  C         29.1730  -49.0540   56.6150 C.2   177  ARG177      0.2287
    140  O         29.7710  -48.6360   55.6090 O.2   177  ARG177     -0.2864
    141  CB        26.7020  -49.2620   56.6270 C.3   177  ARG177      0.0334
    142  CG        26.5540  -48.0360   55.7330 C.3   177  ARG177      0.0492
    143  CD        25.2180  -47.3300   55.9460 C.3   177  ARG177      0.2205
    144  NE        24.1320  -48.1640   55.3920 N.pl3 177  ARG177     -0.0865
    145  CZ        22.9370  -48.3700   55.9310 C.cat 177  ARG177      0.5346
    146  NH1       22.6100  -47.8230   57.1080 N.pl3 177  ARG177      0.1354
    147  NH2       22.0810  -49.1700   55.2980 N.pl3 177  ARG177      0.1354
    148  N         16.8890  -47.4810   54.5930 N.3   355  GLY355     -0.1225
    149  CA        17.5740  -48.7130   54.2060 C.3   355  GLY355      0.1811
    150  C         18.7370  -48.5450   53.2450 C.2   355  GLY355      0.2280
    151  O         19.4220  -49.5620   53.0150 O.2   355  GLY355     -0.2866
    152  N         22.5160  -46.8900   51.6990 N.3   357  THR357     -0.1218
    153  CA        23.8300  -46.3230   51.9830 C.3   357  THR357      0.1862
    154  C         24.0220  -45.1330   51.0540 C.2   357  THR357      0.2287
    155  O         23.8500  -45.2900   49.8440 O.2   357  THR357     -0.2866
    156  CB        24.9060  -47.3950   51.8140 C.3   357  THR357      0.1770
    157  OG1       24.6530  -48.5480   52.6400 O.3   357  THR357     -0.2211
    158  CG2       26.2660  -46.8110   52.0950 C.3   357  THR357      0.0375
    159  N         22.9840  -43.1580   57.3600 N.3   380  ARG380     -0.1245
    160  CA        23.0420  -43.4610   55.9090 C.3   380  ARG380      0.1563
    161  C         24.4840  -43.3830   55.4120 C.2   380  ARG380      0.2260
    162  O         24.8030  -44.0950   54.4700 O.2   380  ARG380     -0.2867
    163  CB        22.1900  -42.4940   55.0940 C.3   380  ARG380      0.0307
    164  CG        20.6970  -42.5000   55.3880 C.3   380  ARG380      0.0489
    165  CD        20.0460  -43.8630   55.4800 C.3   380  ARG380      0.2205
    166  NE        20.1930  -44.4590   56.7950 N.pl3 380  ARG380     -0.0865
    167  CZ        19.8870  -45.6900   57.0680 C.cat 380  ARG380      0.5346
    168  NH1       19.9310  -46.1020   58.3260 N.pl3 380  ARG380      0.1354
    169  NH2       19.5230  -46.5440   56.1090 N.pl3 380  ARG380      0.1354
@<TRIPOS>BOND
     1    94    95    1
     2    94    93    1
     3    95    96    1
     4    93    92    1
     5   155   154    2
     6    91    90    2
     7    92    89    1
     8     8     7    1
     9     1     2    1
    10    89    90    1
    11    89    88    1
    12   154   153    1
    13    84    82   ar
    14    84    86   ar
    15    87    86    1
    16     2     5    1
    17     2     3    1
    18    82    81   ar
    19   152   153    1
    20     7     6    1
    21   156   153    1
    22   156   158    1
    23   156   157    1
    24     6     5    1
    25    86    85   ar
    26     3     4    2
    27     3     9   am
    28    79    78    2
    29    81    80    1
    30    81    83   ar
    31   151   150    2
    32    73    72    2
    33    77    80    1
    34    77    78    1
    35    77    76    1
    36   150   149    1
    37    85    83   ar
    38     9    10    1
    39    72    76   am
    40    72    71    1
    41    74    71    1
    42    74    75    1
    43   149   148    1
    44   162   161    2
    45    71    70    1
    46   104   102   ar
    47    10    13    1
    48    10    11    1
    49   163   164    1
    50   163   160    1
    51    13    14    1
    52   101   102    1
    53   101    98    1
    54   147   145    1
    55   164   165    1
    56   144   145    2
    57   144   143    1
    58   161   160    1
    59   165   166    1
    60    25    23    1
    61   102   103   ar
    62   140   139    2
    63    11    18   am
    64    11    12    2
    65   142   143    1
    66   142   141    1
    67   160   159    1
    68   145   146    1
    69    23    24    1
    70    23    22    1
    71    18    19    1
    72    70    63   am
    73    97    98    1
    74   169   167    1
    75    16    15    2
    76   110   109    1
    77   110   111    1
    78   138   139    1
    79   138   141    1
    80   138   137    1
    81    98    99    1
    82    64    63    2
    83   126   125    2
    84    15    14    1
    85    15    17   am
    86   100    99    2
    87   113   111   ar
    88   166   167    2
    89    63    62    1
    90    99   105   am
    91   109   106    1
    92    19    22    1
    93    19    20    1
    94   167   168    1
    95    60    59    2
    96   111   112   ar
    97   125   137   am
    98   125   124    1
    99    58    59    1
   100    58    57    1
   101   127   128    1
   102   127   124    1
   103    59    61   am
   104   105   106    1
   105    40    38   am
   106    39    38    2
   107    61    62    1
   108   133   130   ar
   109   133   135   ar
   110   106   107    1
   111   128   130   ar
   112   128   129   ar
   113    62    65    1
   114   124   123    1
   115    20    21    2
   116    20    26   am
   117    57    52   am
   118   130   132   ar
   119    38    37    1
   120   135   136   ar
   121   129   131   ar
   122    47    48    1
   123    47    46    1
   124   108   107    2
   125    49    48    2
   126    65    66    1
   127   132   131   ar
   128   132   134   ar
   129   136   134   ar
   130    48    50   am
   131    26    27    1
   132    46    43   am
   133    36    37    1
   134    36    33    1
   135    52    53    2
   136    52    51    1
   137    50    51    1
   138    35    34    2
   139   122   120   am
   140    34    33    1
   141    43    42    1
   142    43    44    2
   143    66    67    1
   144    51    54    1
   145    27    30    1
   146    27    28    1
   147    68    69    1
   148    68    67    1
   149    33    32    1
   150    45    42    1
   151    29    28    2
   152    42    41    1
   153    30    31    1
   154   120   121    2
   155   120   119    1
   156    55    54    1
   157    54    56    1
   158   118   119    1
   159   118   115    1
   160   116   115    1
   161   116   117    2
   162   115   114    1
