@<TRIPOS>MOLECULE
tmp/6hpuA00.pdb
 179 172 0 0 0
SMALL
GASTEIGER

@<TRIPOS>ATOM
      1  N         68.0900  -37.2640   22.6790 N.3     3  MET3       -0.1230
      2  CA        67.7920  -36.3260   23.7680 C.3     3  MET3        0.1702
      3  C         68.4570  -36.7910   25.0760 C.2     3  MET3        0.2592
      4  O         68.9760  -37.8990   25.1820 O.2     3  MET3       -0.2718
      5  CB        66.2750  -36.1730   23.9470 C.3     3  MET3        0.0401
      6  CG        65.5410  -37.4630   24.3190 C.3     3  MET3        0.0596
      7  SD        63.9640  -37.6850   23.4330 S.3     3  MET3       -0.1393
      8  CE        63.2560  -36.0430   23.5710 C.3     3  MET3        0.0692
      9  N         68.4410  -35.9040   26.0710 N.am    4  GLN4       -0.1966
     10  CA        69.1090  -36.0910   27.3690 C.3     4  GLN4        0.1733
     11  C         68.3350  -37.1050   28.2310 C.2     4  GLN4        0.2616
     12  O         67.1100  -37.1080   28.1990 O.2     4  GLN4       -0.2715
     13  CB        69.1590  -34.7300   28.0690 C.3     4  GLN4        0.0408
     14  CG        70.2910  -34.5680   29.0720 C.3     4  GLN4        0.0908
     15  CD        71.5910  -34.2060   28.4060 C.2     4  GLN4        0.2608
     16  OE1       72.6240  -34.8220   28.6600 O.2     4  GLN4       -0.2717
     17  NE2       71.5390  -33.2090   27.5360 N.am    4  GLN4       -0.0878
     18  N         69.0430  -37.9340   29.0180 N.am    5  LEU5       -0.1963
     19  CA        68.4050  -38.8590   30.0100 C.3     5  LEU5        0.1728
     20  C         68.2360  -38.1370   31.3590 C.2     5  LEU5        0.2616
     21  O         69.1660  -37.4880   31.8040 O.2     5  LEU5       -0.2715
     22  CB        69.2690  -40.1180   30.2070 C.3     5  LEU5        0.0311
     23  CG        69.5220  -41.0290   28.9980 C.3     5  LEU5        0.0022
     24  CD1       70.2420  -42.3040   29.4210 C.3     5  LEU5        0.0001
     25  CD2       68.2370  -41.3950   28.2700 C.3     5  LEU5        0.0001
     26  N         67.0760  -38.2870   32.0230 N.am    6  SER6       -0.1950
     27  CA        66.8640  -37.8230   33.4410 C.3     6  SER6        0.1924
     28  C         67.9280  -38.4140   34.3740 C.2     6  SER6        0.2314
     29  O         68.3690  -39.5480   34.1800 O.2     6  SER6       -0.2863
     30  CB        65.4780  -38.1730   33.9640 C.3     6  SER6        0.2116
     31  OG        65.4620  -38.3460   35.3850 O.3     6  SER6       -0.2180
     32  N         66.6640  -41.6660   35.0840 N.3     9  GLN9       -0.1245
     33  CA        66.7550  -42.5340   33.9030 C.3     9  GLN9        0.1566
     34  C         68.1940  -43.0640   33.8130 C.2     9  GLN9        0.2260
     35  O         68.4070  -44.2780   33.6430 O.2     9  GLN9       -0.2867
     36  CB        66.3160  -41.7930   32.6280 C.3     9  GLN9        0.0367
     37  CG        64.8090  -41.8400   32.3590 C.3     9  GLN9        0.0905
     38  CD        64.3460  -41.2770   31.0260 C.2     9  GLN9        0.2608
     39  OE1       64.1310  -40.0750   30.8640 O.2     9  GLN9       -0.2717
     40  NE2       64.1170  -42.1570   30.0600 N.am    9  GLN9       -0.0878
     41  N         54.8450  -43.5260   36.3890 N.3    27  SER27      -0.1202
     42  CA        53.5280  -43.2850   35.7760 C.3    27  SER27       0.2020
     43  C         53.5290  -43.5130   34.2590 C.2    27  SER27       0.2619
     44  O         54.5420  -43.8940   33.6570 O.2    27  SER27      -0.2717
     45  CB        53.0570  -41.8980   36.1060 C.3    27  SER27       0.2103
     46  OG        53.2130  -41.6460   37.4940 O.3    27  SER27      -0.2182
     47  N         52.3500  -43.2880   33.6640 N.am   28  ALA28      -0.1965
     48  CA        52.1380  -43.3450   32.2200 C.3    28  ALA28       0.1728
     49  C         52.8530  -42.1730   31.5340 C.2    28  ALA28       0.2617
     50  O         52.4580  -40.9950   31.6890 O.2    28  ALA28      -0.2715
     51  CB        50.6620  -43.3330   31.9060 C.3    28  ALA28       0.0334
     52  N         53.9110  -42.5280   30.7920 N.am   29  GLY29      -0.1940
     53  CA        54.6220  -41.6400   29.8890 C.3    29  GLY29       0.2014
     54  C         55.8650  -41.0410   30.5190 C.2    29  GLY29       0.2640
     55  O         56.2170  -39.9110   30.2140 O.2    29  GLY29      -0.2714
     56  N         56.5430  -41.8080   31.3790 N.am   30  THR30      -0.1936
     57  CA        57.7130  -41.3120   32.0990 C.3    30  THR30       0.2028
     58  C         58.9750  -42.0130   31.5860 C.2    30  THR30       0.2643
     59  O         59.9480  -42.1400   32.3230 O.2    30  THR30      -0.2714
     60  CB        57.5640  -41.4860   33.6160 C.3    30  THR30       0.1808
     61  OG1       57.5060  -42.8840   33.8960 O.3    30  THR30      -0.2208
     62  CG2       56.3360  -40.7990   34.1710 C.3    30  THR30       0.0379
     63  N         58.9470  -42.4520   30.3230 N.am   31  GLY31      -0.1939
     64  CA        60.1060  -43.0280   29.6750 C.3    31  GLY31       0.2014
     65  C         60.5180  -44.3530   30.2910 C.2    31  GLY31       0.2639
     66  O         61.7000  -44.6120   30.4790 O.2    31  GLY31      -0.2714
     67  N         59.5360  -45.1990   30.6020 N.am   32  LYS32      -0.1963
     68  CA        59.8190  -46.5730   30.9700 C.3    32  LYS32       0.1728
     69  C         60.2930  -47.3230   29.7220 C.2    32  LYS32       0.2617
     70  O         61.4420  -47.7620   29.6650 O.2    32  LYS32      -0.2715
     71  CB        58.5790  -47.2650   31.5370 C.3    32  LYS32       0.0311
     72  CG        58.1880  -46.8890   32.9580 C.3    32  LYS32       0.0038
     73  CD        57.1900  -47.8620   33.5460 C.3    32  LYS32       0.0206
     74  CE        56.0330  -48.1530   32.6130 C.3    32  LYS32       0.1093
     75  NZ        55.2640  -46.9180   32.3380 N.3    32  LYS32      -0.1314
     76  N         59.3820  -47.4540   28.7420 N.am   33  SER33      -0.1936
     77  CA        59.6550  -48.1050   27.4600 C.3    33  SER33       0.2055
     78  C         60.9770  -47.5500   26.9040 C.2    33  SER33       0.2643
     79  O         61.9340  -48.2910   26.7640 O.2    33  SER33      -0.2714
     80  CB        58.4940  -47.9490   26.4640 C.3    33  SER33       0.2130
     81  OG        57.5310  -49.0050   26.5500 O.3    33  SER33      -0.2179
     82  N         61.0370  -46.2350   26.6560 N.am   34  TYR34      -0.1973
     83  CA        62.1470  -45.6020   25.9100 C.3    34  TYR34       0.1639
     84  C         63.4950  -45.9170   26.5630 C.2    34  TYR34       0.2290
     85  O         64.4240  -46.2450   25.8610 O.2    34  TYR34      -0.2864
     86  CB        61.9510  -44.0880   25.7990 C.3    34  TYR34       0.0560
     87  CG        63.1360  -43.2910   25.3010 C.ar   34  TYR34      -0.0198
     88  CD1       63.3220  -43.0580   23.9460 C.ar   34  TYR34      -0.0009
     89  CD2       64.0460  -42.7220   26.1860 C.ar   34  TYR34      -0.0009
     90  CE1       64.3930  -42.3070   23.4840 C.ar   34  TYR34       0.0417
     91  CE2       65.1160  -41.9620   25.7390 C.ar   34  TYR34       0.0417
     92  CZ        65.2940  -41.7580   24.3810 C.ar   34  TYR34       0.1957
     93  OH        66.3470  -41.0200   23.9220 O.3    34  TYR34      -0.2866
     94  N         56.7730  -52.9840   19.3340 N.3    60  HIS60      -0.1241
     95  CA        57.1130  -51.5720   19.7680 C.3    60  HIS60       0.1621
     96  C         58.5830  -51.4290   20.1840 C.2    60  HIS60       0.2264
     97  O         59.1840  -50.3880   19.9070 O.2    60  HIS60      -0.2867
     98  CB        56.2260  -51.0940   20.9520 C.3    60  HIS60       0.0745
     99  CG        56.2590  -49.6180   21.2580 C.ar   60  HIS60       0.0817
    100  ND1       57.2980  -49.0140   21.9630 N.ar   60  HIS60      -0.2268
    101  CD2       55.3690  -48.6280   20.9970 C.ar   60  HIS60       0.1154
    102  CE1       57.0560  -47.7240   22.0920 C.ar   60  HIS60       0.1986
    103  NE2       55.8760  -47.4630   21.5070 N.ar   60  HIS60      -0.2212
    104  N         55.8180  -53.7080   30.5490 N.3   105  GLU105     -0.1245
    105  CA        54.4700  -53.8590   31.1400 C.3   105  GLU105      0.1567
    106  C         54.3970  -55.2050   31.8720 C.2   105  GLU105      0.2260
    107  O         53.9050  -56.1910   31.3200 O.2   105  GLU105     -0.2867
    108  CB        53.3660  -53.7010   30.0850 C.3   105  GLU105      0.0388
    109  CG        53.4610  -52.4250   29.2550 C.3   105  GLU105      0.1160
    110  CD        53.5660  -51.1040   30.0120 C.2   105  GLU105      0.3649
    111  OE1       53.3100  -51.0840   31.2360 O.co2 105  GLU105     -0.2457
    112  OE2       53.9200  -50.0910   29.3700 O.co2 105  GLU105     -0.2457
    113  N         48.4880  -49.2670   36.1760 N.3   144  GLN144     -0.1245
    114  CA        47.9350  -49.2210   34.8180 C.3   144  GLN144      0.1566
    115  C         47.0170  -50.4380   34.6410 C.2   144  GLN144      0.2260
    116  O         45.9850  -50.5300   35.3120 O.2   144  GLN144     -0.2867
    117  CB        49.0210  -49.0710   33.7410 C.3   144  GLN144      0.0367
    118  CG        49.4000  -47.6160   33.4770 C.3   144  GLN144      0.0905
    119  CD        50.2890  -47.3860   32.2770 C.2   144  GLN144      0.2608
    120  OE1       51.2430  -46.6140   32.3370 O.2   144  GLN144     -0.2717
    121  NE2       49.9640  -48.0220   31.1630 N.am  144  GLN144     -0.0878
    122  N         56.8800  -36.8770   30.6600 N.3   178  TRP178     -0.1227
    123  CA        57.4630  -36.4580   29.4020 C.3   178  TRP178      0.1737
    124  C         56.3920  -36.4690   28.3030 C.2   178  TRP178      0.2595
    125  O         56.3820  -35.6170   27.4510 O.2   178  TRP178     -0.2718
    126  CB        58.6530  -37.3600   29.0260 C.3   178  TRP178      0.0564
    127  CG        59.8180  -37.3280   29.9730 C.ar  178  TRP178      0.0003
    128  CD1       60.3310  -38.3780   30.6830 C.ar  178  TRP178      0.0946
    129  CD2       60.6250  -36.1840   30.3100 C.ar  178  TRP178      0.0152
    130  NE1       61.3920  -37.9670   31.4420 N.ar  178  TRP178     -0.2442
    131  CE2       61.5970  -36.6260   31.2350 C.ar  178  TRP178      0.0810
    132  CE3       60.6200  -34.8350   29.9240 C.ar  178  TRP178      0.0012
    133  CZ2       62.5510  -35.7600   31.7750 C.ar  178  TRP178      0.0191
    134  CZ3       61.5660  -33.9830   30.4550 C.ar  178  TRP178      0.0001
    135  CH2       62.5150  -34.4420   31.3710 C.ar  178  TRP178      0.0015
    136  N         55.5010  -37.4580   28.3310 N.am  179  ARG179     -0.1980
    137  CA        54.5010  -37.6580   27.2770 C.3   179  ARG179      0.1597
    138  C         53.7080  -36.3590   27.0720 C.2   179  ARG179      0.2287
    139  O         53.7170  -35.7720   25.9750 O.2   179  ARG179     -0.2864
    140  CB        53.6210  -38.8580   27.6630 C.3   179  ARG179      0.0334
    141  CG        52.4830  -39.1950   26.7050 C.3   179  ARG179      0.0492
    142  CD        51.8790  -40.5610   26.9990 C.3   179  ARG179      0.2205
    143  NE        52.7690  -41.6250   26.5560 N.pl3 179  ARG179     -0.0865
    144  CZ        52.8130  -42.8480   27.0610 C.cat 179  ARG179      0.5346
    145  NH1       51.9740  -43.2000   28.0210 N.pl3 179  ARG179      0.1354
    146  NH2       53.7040  -43.7130   26.6070 N.pl3 179  ARG179      0.1354
    147  N         51.2610  -49.3660   26.6890 N.3   357  GLY357     -0.1225
    148  CA        52.6340  -49.4610   26.1700 C.3   357  GLY357      0.1811
    149  C         52.9600  -48.3390   25.1880 C.2   357  GLY357      0.2280
    150  O         54.1480  -48.0410   24.9520 O.2   357  GLY357     -0.2866
    151  N         51.8550  -44.4310   22.9400 N.3   359  THR359     -0.1218
    152  CA        51.5020  -43.0010   23.0570 C.3   359  THR359      0.1862
    153  C         50.5570  -42.6200   21.9140 C.2   359  THR359      0.2287
    154  O         50.5900  -43.2610   20.8730 O.2   359  THR359     -0.2866
    155  CB        52.7220  -42.0770   22.9510 C.3   359  THR359      0.1770
    156  OG1       53.7890  -42.5610   23.7730 O.3   359  THR359     -0.2211
    157  CG2       52.3760  -40.6520   23.3250 C.3   359  THR359      0.0375
    158  N         46.9080  -42.0390   27.3740 N.3   382  ARG382     -0.1245
    159  CA        47.4810  -42.2920   26.0650 C.3   382  ARG382      0.1563
    160  C         47.7730  -40.9480   25.3940 C.2   382  ARG382      0.2260
    161  O         48.9100  -40.6780   25.0040 O.2   382  ARG382     -0.2867
    162  CB        46.5480  -43.1630   25.2160 C.3   382  ARG382      0.0307
    163  CG        46.4770  -44.6260   25.6420 C.3   382  ARG382      0.0489
    164  CD        47.8070  -45.2790   25.9960 C.3   382  ARG382      0.2205
    165  NE        48.2800  -44.8990   27.3230 N.pl3 382  ARG382     -0.0865
    166  CZ        49.4960  -45.1460   27.8050 C.cat 382  ARG382      0.5346
    167  NH1       49.8310  -44.7090   29.0090 N.pl3 382  ARG382      0.1354
    168  NH2       50.3690  -45.8340   27.0890 N.pl3 382  ARG382      0.1354
    169  N         48.6770  -37.3350   24.1600 N.3   384  ARG384     -0.1245
    170  CA        49.6380  -36.2760   24.4580 C.3   384  ARG384      0.1563
    171  C         48.8300  -34.9990   24.7040 C.2   384  ARG384      0.2260
    172  O         49.0320  -34.2850   25.7060 O.2   384  ARG384     -0.2867
    173  CB        50.6180  -36.0990   23.2870 C.3   384  ARG384      0.0307
    174  CG        52.0910  -36.0130   23.6750 C.3   384  ARG384      0.0489
    175  CD        53.0300  -35.6900   22.5110 C.3   384  ARG384      0.2205
    176  NE        53.1750  -36.7180   21.4770 N.pl3 384  ARG384     -0.0865
    177  CZ        52.5250  -36.7620   20.2970 C.cat 384  ARG384      0.5346
    178  NH1       51.4780  -35.9910   20.0270 N.pl3 384  ARG384      0.1354
    179  NH2       52.9310  -37.6110   19.3730 N.pl3 384  ARG384      0.1354
@<TRIPOS>BOND
     1    94    95    1
     2   179   177    1
     3    95    96    1
     4    95    98    1
     5    97    96    2
     6   178   177    1
     7   177   176    2
     8   154   153    2
     9    98    99    1
    10   101    99   ar
    11   101   103   ar
    12    99   100   ar
    13   176   175    1
    14   103   102   ar
    15   153   152    1
    16   100   102   ar
    17   175   174    1
    18     1     2    1
    19   151   152    1
    20   155   152    1
    21   155   157    1
    22   155   156    1
    23   173   174    1
    24   173   170    1
    25     7     8    1
    26     7     6    1
    27    90    88   ar
    28    90    92   ar
    29     2     5    1
    30     2     3    1
    31    93    92    1
    32    88    87   ar
    33     5     6    1
    34   169   170    1
    35    92    91   ar
    36   170   171    1
    37   171   172    2
    38   150   149    2
    39   161   160    2
    40     3     4    2
    41     3     9   am
    42   149   148    1
    43   162   163    1
    44   162   159    1
    45    87    86    1
    46    87    89   ar
    47   160   159    1
    48   163   164    1
    49    91    89   ar
    50    86    83    1
    51    85    84    2
    52    83    84    1
    53    83    82    1
    54   139   138    2
    55   164   165    1
    56   159   158    1
    57     9    10    1
    58   148   147    1
    59    80    81    1
    60    80    77    1
    61   143   142    1
    62   143   144    2
    63   146   144    1
    64    82    78   am
    65   141   142    1
    66   141   140    1
    67    79    78    2
    68    78    77    1
    69   144   145    1
    70   138   137    1
    71   168   166    1
    72   137   140    1
    73   137   136    1
    74   165   166    2
    75    10    13    1
    76    10    11    1
    77   125   124    2
    78    77    76    1
    79    17    15   am
    80   166   167    1
    81    13    14    1
    82    12    11    2
    83    11    18   am
    84    25    23    1
    85   124   136   am
    86   124   123    1
    87    15    16    2
    88    15    14    1
    89    76    69   am
    90    23    24    1
    91    23    22    1
    92    18    19    1
    93   126   123    1
    94   126   127    1
    95   109   110    1
    96   109   108    1
    97   112   110   ar
    98   123   122    1
    99    70    69    2
   100    64    65    1
   101    64    63    1
   102    69    68    1
   103    53    54    1
   104    53    52    1
   105   132   129   ar
   106   132   134   ar
   107   127   129   ar
   108   127   128   ar
   109    19    22    1
   110    19    20    1
   111   110   111   ar
   112    40    38   am
   113   108   105    1
   114    55    54    2
   115    65    66    2
   116    65    67   am
   117   129   131   ar
   118    63    58   am
   119   134   135   ar
   120    54    56   am
   121   104   105    1
   122    67    68    1
   123   128   130   ar
   124    52    49   am
   125    39    38    2
   126    68    71    1
   127    38    37    1
   128   105   106    1
   129   121   119   am
   130   131   130   ar
   131   131   133   ar
   132   107   106    2
   133    20    21    2
   134    20    26   am
   135   135   133   ar
   136    56    57    1
   137    49    50    2
   138    49    48    1
   139    71    72    1
   140    58    57    1
   141    58    59    2
   142    51    48    1
   143    26    27    1
   144    57    60    1
   145    48    47    1
   146   119   120    2
   147   119   118    1
   148    75    74    1
   149    37    36    1
   150    74    73    1
   151    36    33    1
   152    72    73    1
   153    27    30    1
   154    27    28    1
   155   118   117    1
   156    60    61    1
   157    60    62    1
   158    35    34    2
   159    44    43    2
   160    47    43   am
   161   117   114    1
   162    34    33    1
   163    33    32    1
   164    30    31    1
   165    29    28    2
   166    43    42    1
   167   115   114    1
   168   115   116    2
   169   114   113    1
   170    42    45    1
   171    42    41    1
   172    45    46    1
