@<TRIPOS>MOLECULE
tmp/6hpwA00.pdb
 116 117 0 0 0
SMALL
GASTEIGER

@<TRIPOS>ATOM
      1  N         -6.6960   19.8210   12.8570 N.3    26  PHE26      -0.1298
      2  CA        -6.5000   18.4930   12.2170 C.3    26  PHE26       0.1290
      3  C         -7.1750   18.4810   10.8370 C.3    26  PHE26       0.2013
      4  O         -8.4570   18.6630   10.7500 O.3    26  PHE26      -0.2188
      5  CB        -7.0530   17.4070   13.1330 C.3    26  PHE26       0.0480
      6  CG        -6.5320   17.4970   14.5460 C.ar   26  PHE26      -0.0206
      7  CD1       -5.1730   17.4250   14.8140 C.ar   26  PHE26      -0.0042
      8  CD2       -7.4030   17.6110   15.6090 C.ar   26  PHE26      -0.0042
      9  CE1       -4.6960   17.4660   16.1130 C.ar   26  PHE26      -0.0003
     10  CE2       -6.9170   17.7260   16.9060 C.ar   26  PHE26      -0.0003
     11  CZ        -5.5550   17.6740   17.1530 C.ar   26  PHE26      -0.0000
     12  N          3.2830    9.2550   16.2580 N.3    54  HIS54      -0.1241
     13  CA         4.1540   10.4420   16.3500 C.3    54  HIS54       0.1621
     14  C          4.1120   10.9650   17.7960 C.2    54  HIS54       0.2264
     15  O          2.9820   10.9830   18.4000 O.2    54  HIS54      -0.2867
     16  CB         3.7360   11.4740   15.3090 C.3    54  HIS54       0.0745
     17  CG         4.7430   12.5590   15.1950 C.ar   54  HIS54       0.0817
     18  ND1        4.6890   13.6770   15.9940 N.ar   54  HIS54      -0.2268
     19  CD2        5.9220   12.6010   14.5390 C.ar   54  HIS54       0.1154
     20  CE1        5.7420   14.4580   15.7320 C.ar   54  HIS54       0.1986
     21  NE2        6.5170   13.7960   14.8430 N.ar   54  HIS54      -0.2212
     22  N          4.0470   13.6880   19.0210 N.3    56  SER56      -0.1202
     23  CA         3.1410   14.8530   19.1780 C.3    56  SER56       0.2020
     24  C          1.7650   14.3800   19.6760 C.2    56  SER56       0.2619
     25  O          1.0350   15.1880   20.2450 O.2    56  SER56      -0.2717
     26  CB         3.0340   15.6550   17.8990 C.3    56  SER56       0.2103
     27  OG         2.3680   14.9220   16.8780 O.3    56  SER56      -0.2182
     28  N          1.4280   13.1190   19.4910 N.am   57  PHE57      -0.1962
     29  CA         0.1100   12.5690   19.9000 C.3    57  PHE57       0.1756
     30  C          0.1020   12.3730   21.4110 C.2    57  PHE57       0.2461
     31  O          1.1270   12.0660   22.0230 O.2    57  PHE57      -0.2730
     32  CB        -0.2140   11.2440   19.1920 C.3    57  PHE57       0.0574
     33  CG        -0.7340   11.3740   17.7820 C.ar   57  PHE57      -0.0200
     34  CD1        0.1350   11.4620   16.7110 C.ar   57  PHE57      -0.0042
     35  CD2       -2.1020   11.4210   17.5260 C.ar   57  PHE57      -0.0042
     36  CE1       -0.3380   11.5990   15.4140 C.ar   57  PHE57      -0.0003
     37  CE2       -2.5800   11.5280   16.2200 C.ar   57  PHE57      -0.0003
     38  CZ        -1.6950   11.6510   15.1690 C.ar   57  PHE57      -0.0000
     39  N         -1.0620   12.5320   22.0630 N.am   58  PRO58      -0.2727
     40  CA        -1.1900   12.1480   23.4620 C.3    58  PRO58       0.1402
     41  C         -1.2120   10.6100   23.5310 C.2    58  PRO58       0.2269
     42  O         -1.6950   10.0020   22.6050 O.2    58  PRO58      -0.2865
     43  CB        -2.4840   12.8480   23.9050 C.3    58  PRO58       0.0296
     44  CG        -3.2970   13.0030   22.6260 C.3    58  PRO58       0.0237
     45  CD        -2.2920   13.1040   21.5020 C.3    58  PRO58       0.0939
     46  N         -0.1050    3.1520   21.6480 N.3    62  ARG62      -0.1245
     47  CA        -1.5130    2.6990   21.5860 C.3    62  ARG62       0.1563
     48  C         -1.5380    1.1740   21.5100 C.2    62  ARG62       0.2260
     49  O         -0.9660    0.6050   20.5700 O.2    62  ARG62      -0.2867
     50  CB        -2.2100    3.3030   20.3680 C.3    62  ARG62       0.0307
     51  CG        -2.2370    4.8240   20.3680 C.3    62  ARG62       0.0489
     52  CD        -3.0500    5.4120   21.4820 C.3    62  ARG62       0.2205
     53  NE        -2.9870    6.8580   21.4320 N.pl3  62  ARG62      -0.0865
     54  CZ        -3.7780    7.6290   20.6800 C.cat  62  ARG62       0.5346
     55  NH1       -3.5960    8.9360   20.6780 N.pl3  62  ARG62       0.1354
     56  NH2       -4.6710    7.0920   19.8690 N.pl3  62  ARG62       0.1354
     57  N         -7.8390    4.8250   15.4920 N.3    72  GLU72      -0.1231
     58  CA        -8.6020    5.8280   14.7380 C.3    72  GLU72       0.1699
     59  C         -8.1920    7.1870   15.2920 C.2    72  GLU72       0.2592
     60  O         -8.3090    7.3810   16.5020 O.2    72  GLU72      -0.2718
     61  CB       -10.1070    5.5770   14.8710 C.3    72  GLU72       0.0402
     62  CG       -10.5400    4.3700   14.0810 C.3    72  GLU72       0.1161
     63  CD       -11.9030    3.7940   14.4470 C.2    72  GLU72       0.3649
     64  OE1      -12.2890    3.8540   15.6500 O.co2  72  GLU72      -0.2457
     65  OE2      -12.5180    3.1950   13.5520 O.co2  72  GLU72      -0.2457
     66  N         -7.6930    8.0620   14.4350 N.am   73  GLU73      -0.1966
     67  CA        -7.1870    9.3730   14.8870 C.3    73  GLU73       0.1733
     68  C         -7.5550   10.4650   13.8960 C.2    73  GLU73       0.2617
     69  O         -7.8670   10.1750   12.7380 O.2    73  GLU73      -0.2715
     70  CB        -5.6590    9.3210   15.1020 C.3    73  GLU73       0.0429
     71  CG        -5.2380    9.1220   16.5500 C.3    73  GLU73       0.1163
     72  CD        -5.6360   10.2040   17.5200 C.2    73  GLU73       0.3649
     73  OE1       -6.1460   11.2910   17.0670 O.co2  73  GLU73      -0.2457
     74  OE2       -5.4210    9.9880   18.7260 O.co2  73  GLU73      -0.2457
     75  N         -7.3480   11.6750   14.3500 N.am   74  SER74      -0.1936
     76  CA        -7.2920   12.9010   13.5380 C.3    74  SER74       0.2055
     77  C         -5.8380   13.4170   13.5320 C.2    74  SER74       0.2644
     78  O         -5.1030   13.1410   14.5060 O.2    74  SER74      -0.2714
     79  CB        -8.2600   13.9010   14.0700 C.3    74  SER74       0.2130
     80  OG        -7.9240   14.2880   15.4150 O.3    74  SER74      -0.2179
     81  N         -5.3990   14.0690   12.4480 N.am   75  GLY75      -0.1939
     82  CA        -4.0290   14.5970   12.4430 C.3    75  GLY75       0.2014
     83  C         -3.7810   15.5730   11.3340 C.2    75  GLY75       0.2639
     84  O         -4.7120   15.8970   10.5830 O.2    75  GLY75      -0.2714
     85  N         -2.5720   16.1030   11.2730 N.am   76  TYR76      -0.1959
     86  CA        -2.2480   17.1630   10.2960 C.3    76  TYR76       0.1771
     87  C         -1.0630   16.7570    9.4130 C.2    76  TYR76       0.2619
     88  O         -0.7580   17.5250    8.5500 O.2    76  TYR76      -0.2715
     89  CB        -2.0530   18.5140   10.9990 C.3    76  TYR76       0.0574
     90  CG        -1.1910   18.4870   12.2400 C.ar   76  TYR76      -0.0198
     91  CD1        0.1950   18.3840   12.1510 C.ar   76  TYR76      -0.0009
     92  CD2       -1.7320   18.6730   13.5130 C.ar   76  TYR76      -0.0009
     93  CE1        1.0140   18.4740   13.2810 C.ar   76  TYR76       0.0417
     94  CE2       -0.9400   18.6960   14.6610 C.ar   76  TYR76       0.0417
     95  CZ         0.4460   18.6050   14.5520 C.ar   76  TYR76       0.1957
     96  OH         1.2430   18.5030   15.6740 O.3    76  TYR76      -0.2866
     97  N         -0.4720   15.5600    9.5800 N.am   77  ALA77      -0.1963
     98  CA         0.6730   15.1140    8.7720 C.3    77  ALA77       0.1728
     99  C          0.8140   13.5810    8.8620 C.2    77  ALA77       0.2617
    100  O          0.4190   12.9820    9.8840 O.2    77  ALA77      -0.2715
    101  CB         1.9220   15.8250    9.2340 C.3    77  ALA77       0.0334
    102  N          1.3820   12.9960    7.8180 N.am   78  GLY78      -0.1940
    103  CA         1.8080   11.6040    7.7900 C.3    78  GLY78       0.2014
    104  C          3.0580   11.4250    8.6070 C.2    78  GLY78       0.2638
    105  O          3.7340   12.4100    8.8940 O.2    78  GLY78      -0.2714
    106  N          3.3890   10.1870    8.9510 N.am   79  PHE79      -0.1973
    107  CA         4.6310    9.8630    9.6790 C.3    79  PHE79       0.1639
    108  C          4.8550    8.3710    9.5270 C.2    79  PHE79       0.2290
    109  O          3.9550    7.6510    9.0390 O.2    79  PHE79      -0.2864
    110  CB         4.5370   10.2550   11.1610 C.3    79  PHE79       0.0560
    111  CG         3.3390    9.7070   11.8790 C.ar   79  PHE79      -0.0200
    112  CD1        2.0840   10.2750   11.7080 C.ar   79  PHE79      -0.0042
    113  CD2        3.4220    8.5540   12.6680 C.ar   79  PHE79      -0.0042
    114  CE1        0.9640    9.7270   12.3240 C.ar   79  PHE79      -0.0003
    115  CE2        2.2910    7.9980   13.2510 C.ar   79  PHE79      -0.0003
    116  CZ         1.0710    8.6160   13.1130 C.ar   79  PHE79      -0.0000
@<TRIPOS>BOND
     1   103   102    1
     2   103   104    1
     3   102    99   am
     4    88    87    2
     5   104   105    2
     6   104   106   am
     7    98    99    1
     8    98   101    1
     9    98    97    1
    10    99   100    2
    11   106   107    1
    12   109   108    2
    13    87    97   am
    14    87    86    1
    15   108   107    1
    16   107   110    1
    17    86    89    1
    18    86    85    1
    19    84    83    2
    20     4     3    1
    21     3     2    1
    22    89    90    1
    23   110   111    1
    24    85    83   am
    25    83    82    1
    26   112   111   ar
    27   112   114   ar
    28   111   113   ar
    29    91    90   ar
    30    91    93   ar
    31     2     1    1
    32     2     5    1
    33    90    92   ar
    34   114   116   ar
    35    82    81    1
    36    81    77   am
    37   113   115   ar
    38    69    68    2
    39   116   115   ar
    40     5     6    1
    41    93    95   ar
    42    92    94   ar
    43    77    76    1
    44    77    78    2
    45    76    79    1
    46    76    75    1
    47    65    63   ar
    48    68    75   am
    49    68    67    1
    50    79    80    1
    51    62    63    1
    52    62    61    1
    53    66    67    1
    54    66    59   am
    55    63    64   ar
    56    19    21   ar
    57    19    17   ar
    58     6     7   ar
    59     6     8   ar
    60    95    94   ar
    61    95    96    1
    62    58    61    1
    63    58    59    1
    64    58    57    1
    65     7     9   ar
    66    21    20   ar
    67    67    70    1
    68    70    71    1
    69    38    36   ar
    70    38    37   ar
    71    17    16    1
    72    17    18   ar
    73    59    60    2
    74    16    13    1
    75    36    34   ar
    76     8    10   ar
    77    20    18   ar
    78     9    11   ar
    79    37    35   ar
    80    12    13    1
    81    13    14    1
    82    71    72    1
    83    34    33   ar
    84    27    26    1
    85    10    11   ar
    86    73    72   ar
    87    72    74   ar
    88    35    33   ar
    89    33    32    1
    90    14    15    2
    91    26    23    1
    92    22    23    1
    93    23    24    1
    94    32    29    1
    95    28    24   am
    96    28    29    1
    97    24    25    2
    98    56    54    1
    99    29    30    1
   100    50    51    1
   101    50    47    1
   102    51    52    1
   103    49    48    2
   104    55    54    1
   105    54    53    2
   106    30    31    2
   107    30    39   am
   108    53    52    1
   109    45    39    1
   110    45    44    1
   111    48    47    1
   112    47    46    1
   113    39    40    1
   114    42    41    2
   115    44    43    1
   116    40    41    1
   117    40    43    1
