@<TRIPOS>MOLECULE
tmp/6hpxA00.pdb
 81 83 0 0 0
SMALL
GASTEIGER

@<TRIPOS>ATOM
      1  N         -7.6920   20.1930   12.6810 N.3    27  PHE27      -0.1241
      2  CA        -7.3430   18.9030   12.0190 C.3    27  PHE27       0.1605
      3  C         -8.0150   18.8540   10.6390 C.2    27  PHE27       0.2264
      4  O         -9.2100   19.1260   10.5270 O.2    27  PHE27      -0.2867
      5  CB        -7.7480   17.7020   12.8760 C.3    27  PHE27       0.0534
      6  CG        -7.0960   17.6490   14.2290 C.ar   27  PHE27      -0.0203
      7  CD1       -5.7360   17.8520   14.3720 C.ar   27  PHE27      -0.0042
      8  CD2       -7.8430   17.3670   15.3630 C.ar   27  PHE27      -0.0042
      9  CE1       -5.1360   17.7900   15.6230 C.ar   27  PHE27      -0.0003
     10  CE2       -7.2410   17.3250   16.6170 C.ar   27  PHE27      -0.0003
     11  CZ        -5.8850   17.5300   16.7410 C.ar   27  PHE27      -0.0000
     12  N          3.1800    9.9510   15.7800 N.3    55  HIS55      -0.1241
     13  CA         3.9990   11.1850   15.8810 C.3    55  HIS55       0.1621
     14  C          3.8480   11.7880   17.2850 C.2    55  HIS55       0.2264
     15  O          2.7140   11.7360   17.8300 O.2    55  HIS55      -0.2867
     16  CB         3.5740   12.1520   14.7950 C.3    55  HIS55       0.0745
     17  CG         4.4710   13.3090   14.6670 C.ar   55  HIS55       0.0817
     18  ND1        4.4860   14.3020   15.5860 N.ar   55  HIS55      -0.2268
     19  CD2        5.3740   13.6330   13.7240 C.ar   55  HIS55       0.1154
     20  CE1        5.3800   15.2080   15.2340 C.ar   55  HIS55       0.1986
     21  NE2        5.9300   14.8260   14.0850 N.ar   55  HIS55      -0.2212
     22  N          3.7600   14.5600   18.6190 N.3    57  SER57      -0.1202
     23  CA         2.7570   15.6610   18.6880 C.3    57  SER57       0.2020
     24  C          1.4120   15.1330   19.2240 C.2    57  SER57       0.2619
     25  O          0.6710   15.9230   19.8350 O.2    57  SER57      -0.2717
     26  CB         2.5870   16.3340   17.3360 C.3    57  SER57       0.2103
     27  OG         1.8180   15.5300   16.4590 O.3    57  SER57      -0.2182
     28  N          1.1090   13.8540   19.0130 N.am   58  PHE58      -0.1962
     29  CA        -0.1260   13.2070   19.5300 C.3    58  PHE58       0.1756
     30  C          0.0020   13.0020   21.0330 C.2    58  PHE58       0.2461
     31  O          1.0610   12.6010   21.5210 O.2    58  PHE58      -0.2730
     32  CB        -0.4180   11.8790   18.8240 C.3    58  PHE58       0.0574
     33  CG        -1.0650   12.0340   17.4780 C.ar   58  PHE58      -0.0200
     34  CD1       -2.4340   12.2270   17.3710 C.ar   58  PHE58      -0.0042
     35  CD2       -0.2980   12.0720   16.3230 C.ar   58  PHE58      -0.0042
     36  CE1       -3.0250   12.3880   16.1240 C.ar   58  PHE58      -0.0003
     37  CE2       -0.8900   12.2520   15.0860 C.ar   58  PHE58      -0.0003
     38  CZ        -2.2510   12.3980   14.9890 C.ar   58  PHE58      -0.0000
     39  N         -1.0860   13.2530   21.8000 N.am   59  PRO59      -0.2727
     40  CA        -1.1370   12.8600   23.2100 C.3    59  PRO59       0.1402
     41  C         -1.0920   11.3290   23.3820 C.2    59  PRO59       0.2269
     42  O         -1.6070   10.6370   22.5310 O.2    59  PRO59      -0.2865
     43  CB        -2.4690   13.4630   23.7440 C.3    59  PRO59       0.0296
     44  CG        -3.3060   13.8080   22.4810 C.3    59  PRO59       0.0237
     45  CD        -2.3180   13.9120   21.3260 C.3    59  PRO59       0.0939
     46  N         -5.7940   14.5250   12.2490 N.3    76  GLY76      -0.1210
     47  CA        -4.4980   15.2030   12.3230 C.3    76  GLY76       0.1956
     48  C         -4.2650   16.0720   11.1350 C.2    76  GLY76       0.2612
     49  O         -5.2400   16.3120   10.3740 O.2    76  GLY76      -0.2717
     50  N         -3.0210   16.5420   10.9940 N.am   77  TYR77      -0.1962
     51  CA        -2.6120   17.6180   10.0610 C.3    77  TYR77       0.1771
     52  C         -1.8160   17.0000    8.9180 C.2    77  TYR77       0.2619
     53  O         -1.9130   17.4920    7.8060 O.2    77  TYR77      -0.2715
     54  CB        -1.8010   18.6950   10.7900 C.3    77  TYR77       0.0574
     55  CG        -2.5190   19.4210   11.9070 C.ar   77  TYR77      -0.0198
     56  CD1       -3.5360   20.3430   11.6530 C.ar   77  TYR77      -0.0009
     57  CD2       -2.1430   19.2340   13.2350 C.ar   77  TYR77      -0.0009
     58  CE1       -4.1890   21.0140   12.6890 C.ar   77  TYR77       0.0417
     59  CE2       -2.7770   19.9000   14.2750 C.ar   77  TYR77       0.0417
     60  CZ        -3.8190   20.7840   14.0100 C.ar   77  TYR77       0.1957
     61  OH        -4.4260   21.4620   15.0620 O.3    77  TYR77      -0.2866
     62  N         -1.0300   15.9620    9.1940 N.am   78  ALA78      -0.1963
     63  CA        -0.0540   15.4060    8.2350 C.3    78  ALA78       0.1728
     64  C          0.1730   13.9120    8.4870 C.2    78  ALA78       0.2617
     65  O         -0.0980   13.4370    9.6000 O.2    78  ALA78      -0.2715
     66  CB         1.2360   16.1700    8.3290 C.3    78  ALA78       0.0334
     67  N          0.7020   13.2200    7.4810 N.am   79  GLY79      -0.1940
     68  CA         1.2520   11.8710    7.6060 C.3    79  GLY79       0.2014
     69  C          2.6200   11.8810    8.2520 C.2    79  GLY79       0.2638
     70  O          3.2010   12.9680    8.4170 O.2    79  GLY79      -0.2714
     71  N          3.1330   10.6930    8.5570 N.am   80  PHE80      -0.1973
     72  CA         4.4150   10.4470    9.2480 C.3    80  PHE80       0.1639
     73  C          4.7220    8.9580    9.1550 C.2    80  PHE80       0.2290
     74  O          3.8330    8.1890    8.7000 O.2    80  PHE80      -0.2864
     75  CB         4.3150   10.9160   10.7010 C.3    80  PHE80       0.0560
     76  CG         3.1770   10.2900   11.4740 C.ar   80  PHE80      -0.0200
     77  CD1        1.9030   10.8390   11.4320 C.ar   80  PHE80      -0.0042
     78  CD2        3.3830    9.1590   12.2470 C.ar   80  PHE80      -0.0042
     79  CE1        0.8470   10.2290   12.0940 C.ar   80  PHE80      -0.0003
     80  CE2        2.3310    8.5650   12.9260 C.ar   80  PHE80      -0.0003
     81  CZ         1.0630    9.1020   12.8490 C.ar   80  PHE80      -0.0000
@<TRIPOS>BOND
     1    67    68    1
     2    67    64   am
     3    68    69    1
     4    53    52    2
     5    63    66    1
     6    63    64    1
     7    63    62    1
     8    69    70    2
     9    69    71   am
    10    64    65    2
    11    71    72    1
    12    74    73    2
    13    52    62   am
    14    52    51    1
    15    73    72    1
    16    72    75    1
    17    51    54    1
    18    51    50    1
    19    49    48    2
    20     4     3    2
    21     3     2    1
    22    75    76    1
    23    54    55    1
    24    50    48   am
    25    48    47    1
    26    77    76   ar
    27    77    79   ar
    28    76    78   ar
    29    56    55   ar
    30    56    58   ar
    31    55    57   ar
    32     2     1    1
    33     2     5    1
    34    79    81   ar
    35    78    80   ar
    36    46    47    1
    37    58    60   ar
    38    81    80   ar
    39     5     6    1
    40    57    59   ar
    41    19    21   ar
    42    19    17   ar
    43    60    59   ar
    44    60    61    1
    45    21    20   ar
    46     6     7   ar
    47     6     8   ar
    48     7     9   ar
    49    17    16    1
    50    17    18   ar
    51    16    13    1
    52    38    37   ar
    53    38    36   ar
    54    37    35   ar
    55    20    18   ar
    56     8    10   ar
    57     9    11   ar
    58    12    13    1
    59    13    14    1
    60    36    34   ar
    61    35    33   ar
    62    27    26    1
    63    10    11   ar
    64    14    15    2
    65    26    23    1
    66    34    33   ar
    67    33    32    1
    68    22    23    1
    69    23    24    1
    70    32    29    1
    71    28    24   am
    72    28    29    1
    73    24    25    2
    74    29    30    1
    75    30    31    2
    76    30    39   am
    77    45    39    1
    78    45    44    1
    79    39    40    1
    80    44    43    1
    81    42    41    2
    82    40    41    1
    83    40    43    1
