@<TRIPOS>MOLECULE
tmp/6hpyA00.pdb
 119 120 0 0 0
SMALL
GASTEIGER

@<TRIPOS>ATOM
      1  N         -9.8410   20.2300   13.8290 N.3    22  THR22      -0.1203
      2  CA       -10.0210   20.0550   15.3020 C.3    22  THR22       0.1994
      3  C         -9.6190   21.3240   16.0780 C.2    22  THR22       0.2619
      4  O         -9.1180   22.3020   15.4470 O.2    22  THR22      -0.2717
      5  CB        -9.1860   18.8700   15.8140 C.3    22  THR22       0.1784
      6  OG1       -9.2340   17.8050   14.8610 O.3    22  THR22      -0.2211
      7  CG2       -9.6290   18.3360   17.1610 C.3    22  THR22       0.0376
      8  N         -9.7890   21.2730   17.4060 N.am   23  THR23      -0.1938
      9  CA        -9.3890   22.3100   18.4000 C.3    23  THR23       0.2028
     10  C         -7.8630   22.5250   18.4000 C.2    23  THR23       0.2638
     11  O         -7.4100   23.4120   19.1380 O.2    23  THR23      -0.2714
     12  CB        -9.8770   21.9350   19.8130 C.3    23  THR23       0.1808
     13  OG1       -9.5690   20.5530   20.0230 O.3    23  THR23      -0.2208
     14  CG2      -11.3600   22.1670   20.0230 C.3    23  THR23       0.0379
     15  N         -7.0900   21.7570   17.6190 N.am   24  GLU24      -0.2030
     16  CA        -5.6540   22.0680   17.3720 C.3    24  GLU24       0.1288
     17  C         -5.3650   22.1320   15.8530 C.3    24  GLU24       0.2036
     18  O         -4.1220   22.0780   15.4490 O.3    24  GLU24      -0.2185
     19  CB        -4.7640   21.0640   18.1040 C.3    24  GLU24       0.0362
     20  CG        -4.6610   21.3140   19.6000 C.3    24  GLU24       0.1159
     21  CD        -4.3460   22.7520   20.0010 C.2    24  GLU24       0.3649
     22  OE1       -3.8450   23.5090   19.1440 O.co2  24  GLU24      -0.2457
     23  OE2       -4.6120   23.1180   21.1710 O.co2  24  GLU24      -0.2457
     24  N         -6.4220   20.1410   13.2010 N.3    26  PHE26      -0.1241
     25  CA        -6.1530   18.8280   12.5500 C.3    26  PHE26       0.1605
     26  C         -6.9610   18.7630   11.2480 C.2    26  PHE26       0.2264
     27  O         -8.1860   18.8800   11.2780 O.2    26  PHE26      -0.2867
     28  CB        -6.4430   17.6660   13.5160 C.3    26  PHE26       0.0534
     29  CG        -5.6990   17.7730   14.8280 C.ar   26  PHE26      -0.0203
     30  CD1       -4.3070   17.7740   14.8550 C.ar   26  PHE26      -0.0042
     31  CD2       -6.3800   17.9610   16.0310 C.ar   26  PHE26      -0.0042
     32  CE1       -3.6180   17.9350   16.0530 C.ar   26  PHE26      -0.0003
     33  CE2       -5.6940   18.1170   17.2280 C.ar   26  PHE26      -0.0003
     34  CZ        -4.3120   18.0970   17.2390 C.ar   26  PHE26      -0.0000
     35  N          3.4290    9.3070   16.7500 N.3    54  HIS54      -0.1241
     36  CA         4.2970   10.5010   16.8540 C.3    54  HIS54       0.1621
     37  C          4.3550   10.9350   18.3180 C.2    54  HIS54       0.2264
     38  O          3.3000   10.8910   18.9700 O.2    54  HIS54      -0.2867
     39  CB         3.7870   11.6250   15.9560 C.3    54  HIS54       0.0745
     40  CG         4.8420   12.6260   15.6750 C.ar   54  HIS54       0.0817
     41  ND1        5.0030   13.7720   16.4490 N.ar   54  HIS54      -0.2268
     42  CD2        5.8350   12.6250   14.7590 C.ar   54  HIS54       0.1154
     43  CE1        6.0350   14.4480   15.9810 C.ar   54  HIS54       0.1986
     44  NE2        6.5610   13.7520   14.9420 N.ar   54  HIS54      -0.2212
     45  N          4.1430   13.6010   19.5880 N.3    56  SER56      -0.1202
     46  CA         3.2390   14.7690   19.8100 C.3    56  SER56       0.2020
     47  C          1.8490   14.3100   20.2610 C.2    56  SER56       0.2619
     48  O          1.0620   15.1680   20.7480 O.2    56  SER56      -0.2717
     49  CB         3.1470   15.6460   18.5900 C.3    56  SER56       0.2103
     50  OG         2.4700   14.9850   17.5270 O.3    56  SER56      -0.2182
     51  N          1.5320   13.0230   20.1270 N.am   57  PHE57      -0.1962
     52  CA         0.2340   12.4710   20.5860 C.3    57  PHE57       0.1756
     53  C          0.2800   12.2690   22.0940 C.2    57  PHE57       0.2461
     54  O          1.3310   11.9400   22.6490 O.2    57  PHE57      -0.2730
     55  CB        -0.1060   11.1820   19.8380 C.3    57  PHE57       0.0574
     56  CG        -0.5700   11.4420   18.4390 C.ar   57  PHE57      -0.0200
     57  CD1       -1.8870   11.7900   18.1870 C.ar   57  PHE57      -0.0042
     58  CD2        0.3240   11.4080   17.3840 C.ar   57  PHE57      -0.0042
     59  CE1       -2.3130   12.0410   16.8910 C.ar   57  PHE57      -0.0003
     60  CE2       -0.1100   11.6400   16.0920 C.ar   57  PHE57      -0.0003
     61  CZ        -1.4200   11.9980   15.8560 C.ar   57  PHE57      -0.0000
     62  N         -0.8530   12.4790   22.8090 N.am   58  PRO58      -0.2727
     63  CA        -0.9760   12.0090   24.1840 C.3    58  PRO58       0.1402
     64  C         -0.8850   10.4740   24.2060 C.2    58  PRO58       0.2269
     65  O         -1.4650    9.8280   23.3060 O.2    58  PRO58      -0.2865
     66  CB        -2.3570   12.5260   24.6300 C.3    58  PRO58       0.0296
     67  CG        -3.1320   12.6640   23.3110 C.3    58  PRO58       0.0237
     68  CD        -2.0840   13.1160   22.3190 C.3    58  PRO58       0.0939
     69  N         -7.0970    8.2990   14.8320 N.3    73  GLU73      -0.1231
     70  CA        -6.6400    9.6090   15.3360 C.3    73  GLU73       0.1699
     71  C         -6.9160   10.6610   14.2860 C.2    73  GLU73       0.2593
     72  O         -7.3690   10.3190   13.2010 O.2    73  GLU73      -0.2718
     73  CB        -5.1590    9.5600   15.7010 C.3    73  GLU73       0.0402
     74  CG        -4.8870    9.0180   17.0810 C.3    73  GLU73       0.1161
     75  CD        -5.5810    9.7740   18.1910 C.2    73  GLU73       0.3649
     76  OE1       -5.8330   10.9940   18.0180 O.co2  73  GLU73      -0.2457
     77  OE2       -5.9110    9.1310   19.2160 O.co2  73  GLU73      -0.2457
     78  N         -6.7000   11.9090   14.6600 N.am   74  SER74      -0.1938
     79  CA        -6.6920   13.0840   13.7670 C.3    74  SER74       0.2055
     80  C         -5.2900   13.6410   13.7290 C.2    74  SER74       0.2644
     81  O         -4.5270   13.3860   14.6940 O.2    74  SER74      -0.2714
     82  CB        -7.6490   14.0850   14.2360 C.3    74  SER74       0.2130
     83  OG        -8.8870   13.4690   14.4210 O.3    74  SER74      -0.2179
     84  N         -4.9340   14.3400   12.6500 N.am   75  GLY75      -0.1939
     85  CA        -3.5890   14.8870   12.5210 C.3    75  GLY75       0.2014
     86  C         -3.5010   15.9450   11.4550 C.2    75  GLY75       0.2639
     87  O         -4.5030   16.2300   10.7770 O.2    75  GLY75      -0.2714
     88  N         -2.3170   16.4820   11.2870 N.am   76  TYR76      -0.1959
     89  CA        -2.0360   17.4200   10.1900 C.3    76  TYR76       0.1771
     90  C         -1.0260   16.7980    9.2140 C.2    76  TYR76       0.2619
     91  O         -1.0070   17.2590    8.0640 O.2    76  TYR76      -0.2715
     92  CB        -1.6330   18.7790   10.7440 C.3    76  TYR76       0.0574
     93  CG        -0.8580   18.7640   12.0320 C.ar   76  TYR76      -0.0198
     94  CD1        0.5140   18.5670   12.0360 C.ar   76  TYR76      -0.0009
     95  CD2       -1.4780   19.0370   13.2400 C.ar   76  TYR76      -0.0009
     96  CE1        1.2530   18.6230   13.2080 C.ar   76  TYR76       0.0417
     97  CE2       -0.7590   19.0820   14.4290 C.ar   76  TYR76       0.0417
     98  CZ         0.6110   18.8660   14.4130 C.ar   76  TYR76       0.1957
     99  OH         1.3340   18.9110   15.5660 O.3    76  TYR76      -0.2866
    100  N         -0.2300   15.8050    9.6330 N.am   77  ALA77      -0.1963
    101  CA         0.8890   15.2710    8.8180 C.3    77  ALA77       0.1728
    102  C          1.0080   13.7560    8.9980 C.2    77  ALA77       0.2617
    103  O          0.6000   13.2530   10.0580 O.2    77  ALA77      -0.2715
    104  CB         2.1870   15.9710    9.1720 C.3    77  ALA77       0.0334
    105  N          1.5160   13.0750    7.9620 N.am   78  GLY78      -0.1940
    106  CA         1.8930   11.6610    8.0250 C.3    78  GLY78       0.2014
    107  C          3.1760   11.5260    8.7990 C.2    78  GLY78       0.2638
    108  O          3.8320   12.5290    8.9940 O.2    78  GLY78      -0.2714
    109  N          3.5210   10.3330    9.2420 N.am   79  PHE79      -0.1973
    110  CA         4.8010   10.0660    9.9400 C.3    79  PHE79       0.1639
    111  C          5.0850    8.5900    9.8340 C.2    79  PHE79       0.2290
    112  O          4.2040    7.8550    9.4070 O.2    79  PHE79      -0.2864
    113  CB         4.7120   10.4780   11.4120 C.3    79  PHE79       0.0560
    114  CG         3.5450    9.8790   12.1520 C.ar   79  PHE79      -0.0200
    115  CD1        2.2910   10.4790   12.1170 C.ar   79  PHE79      -0.0042
    116  CD2        3.6900    8.7070   12.8700 C.ar   79  PHE79      -0.0042
    117  CE1        1.2180    9.9390   12.8200 C.ar   79  PHE79      -0.0003
    118  CE2        2.6180    8.1800   13.5720 C.ar   79  PHE79      -0.0003
    119  CZ         1.3820    8.7900   13.5380 C.ar   79  PHE79      -0.0000
@<TRIPOS>BOND
     1   105   106    1
     2   105   102   am
     3   106   107    1
     4    91    90    2
     5   107   108    2
     6   107   109   am
     7   101   102    1
     8   101   104    1
     9   101   100    1
    10   102   103    2
    11    90   100   am
    12    90    89    1
    13   109   110    1
    14   112   111    2
    15   111   110    1
    16   110   113    1
    17    89    92    1
    18    89    88    1
    19    92    93    1
    20    87    86    2
    21    26    27    2
    22    26    25    1
    23    88    86   am
    24   113   114    1
    25    86    85    1
    26    93    94   ar
    27    93    95   ar
    28    94    96   ar
    29   115   114   ar
    30   115   117   ar
    31   114   116   ar
    32    85    84    1
    33    25    24    1
    34    25    28    1
    35    84    80   am
    36   117   119   ar
    37   116   118   ar
    38    72    71    2
    39    96    98   ar
    40    95    97   ar
    41    28    29    1
    42   119   118   ar
    43    80    79    1
    44    80    81    2
    45    79    82    1
    46    79    78    1
    47     1     2    1
    48    82    83    1
    49    71    78   am
    50    71    70    1
    51    98    97   ar
    52    98    99    1
    53    42    44   ar
    54    42    40   ar
    55    29    30   ar
    56    29    31   ar
    57    69    70    1
    58    30    32   ar
    59     6     5    1
    60    44    43   ar
    61     2     5    1
    62     2     3    1
    63    70    73    1
    64     4     3    2
    65    18    17    1
    66    40    39    1
    67    40    41   ar
    68    73    74    1
    69     5     7    1
    70    17    16    1
    71    61    60   ar
    72    61    59   ar
    73    39    36    1
    74    43    41   ar
    75    31    33   ar
    76    32    34   ar
    77     3     8   am
    78    60    58   ar
    79    35    36    1
    80    36    37    1
    81    59    57   ar
    82    74    75    1
    83    33    34   ar
    84    16    15    1
    85    16    19    1
    86    58    56   ar
    87     8     9    1
    88    50    49    1
    89    15    10   am
    90    76    75   ar
    91    19    20    1
    92    57    56   ar
    93    75    77   ar
    94    37    38    2
    95    10     9    1
    96    10    11    2
    97     9    12    1
    98    56    55    1
    99    49    46    1
   100    22    21   ar
   101    45    46    1
   102    20    21    1
   103    46    47    1
   104    12    13    1
   105    12    14    1
   106    55    52    1
   107    21    23   ar
   108    51    47   am
   109    51    52    1
   110    47    48    2
   111    52    53    1
   112    53    54    2
   113    53    62   am
   114    68    62    1
   115    68    67    1
   116    62    63    1
   117    65    64    2
   118    67    66    1
   119    63    64    1
   120    63    66    1
