@<TRIPOS>MOLECULE
tmp/6hpzA00.pdb
 102 104 0 0 0
SMALL
GASTEIGER

@<TRIPOS>ATOM
      1  N         -5.9170   19.9070   13.7640 N.3    25  PHE25      -0.1241
      2  CA        -5.4990   18.7300   12.9570 C.3    25  PHE25       0.1605
      3  C         -6.4280   18.6140   11.7430 C.2    25  PHE25       0.2264
      4  O         -7.6470   18.6990   11.9240 O.2    25  PHE25      -0.2867
      5  CB        -5.5210   17.4380   13.7830 C.3    25  PHE25       0.0534
      6  CG        -4.6100   17.4020   14.9890 C.ar   25  PHE25      -0.0203
      7  CD1       -3.3710   18.0250   14.9790 C.ar   25  PHE25      -0.0042
      8  CD2       -4.9830   16.7060   16.1310 C.ar   25  PHE25      -0.0042
      9  CE1       -2.5430   17.9800   16.0900 C.ar   25  PHE25      -0.0003
     10  CE2       -4.1510   16.6530   17.2380 C.ar   25  PHE25      -0.0003
     11  CZ        -2.9340   17.2920   17.2170 C.ar   25  PHE25      -0.0000
     12  N         -6.9790    9.6930   10.5620 N.3    29  TRP29      -0.1241
     13  CA        -6.3040    8.5070   10.0040 C.3    29  TRP29       0.1605
     14  C         -6.4930    7.3300   10.9380 C.2    29  TRP29       0.2264
     15  O         -6.7650    7.5310   12.1350 O.2    29  TRP29      -0.2867
     16  CB        -4.8210    8.7830    9.6980 C.3    29  TRP29       0.0550
     17  CG        -3.9890    9.2200   10.8630 C.ar   29  TRP29       0.0003
     18  CD1       -3.5180   10.4800   11.0960 C.ar   29  TRP29       0.0946
     19  CD2       -3.4810    8.4000   11.9360 C.ar   29  TRP29       0.0152
     20  NE1       -2.7730   10.5080   12.2480 N.ar   29  TRP29      -0.2442
     21  CE2       -2.7350    9.2510   12.7870 C.ar   29  TRP29       0.0810
     22  CE3       -3.5740    7.0380   12.2640 C.ar   29  TRP29       0.0012
     23  CZ2       -2.0890    8.7830   13.9300 C.ar   29  TRP29       0.0191
     24  CZ3       -2.9450    6.5790   13.4040 C.ar   29  TRP29       0.0001
     25  CH2       -2.2090    7.4410   14.2210 C.ar   29  TRP29       0.0015
     26  N          3.8750    9.1190   16.9940 N.3    53  HIS53      -0.1241
     27  CA         4.7190   10.3360   17.0540 C.3    53  HIS53       0.1621
     28  C          4.7180   10.8780   18.4940 C.2    53  HIS53       0.2264
     29  O          3.6730   10.7640   19.1840 O.2    53  HIS53      -0.2867
     30  CB         4.2400   11.3640   16.0190 C.3    53  HIS53       0.0745
     31  CG         5.1110   12.5670   15.9560 C.ar   53  HIS53       0.0817
     32  ND1        4.6400   13.8450   16.2480 N.ar   53  HIS53      -0.2268
     33  CD2        6.4300   12.6960   15.6820 C.ar   53  HIS53       0.1154
     34  CE1        5.6320   14.7080   16.1340 C.ar   53  HIS53       0.1986
     35  NE2        6.7430   14.0260   15.7900 N.ar   53  HIS53      -0.2212
     36  N          4.5580   13.7040   19.7630 N.3    55  SER55      -0.1202
     37  CA         3.5460   14.7760   19.9660 C.3    55  SER55       0.2020
     38  C          2.3140   14.2070   20.6820 C.2    55  SER55       0.2618
     39  O          1.9460   14.7510   21.7180 O.2    55  SER55      -0.2717
     40  CB         3.1850   15.4600   18.6530 C.3    55  SER55       0.2103
     41  OG         2.4390   14.6130   17.8020 O.3    55  SER55      -0.2182
     42  N          1.7330   13.1320   20.1560 N.am   56  PHE56      -0.1975
     43  CA         0.5840   12.3990   20.7570 C.3    56  PHE56       0.1639
     44  C          0.9360   11.9720   22.1770 C.2    56  PHE56       0.2290
     45  O          2.0420   11.4940   22.4230 O.2    56  PHE56      -0.2864
     46  CB         0.2270   11.1480   19.9500 C.3    56  PHE56       0.0560
     47  CG        -0.2550   11.4090   18.5480 C.ar   56  PHE56      -0.0200
     48  CD1       -1.5870   11.7110   18.2980 C.ar   56  PHE56      -0.0042
     49  CD2        0.6220   11.3370   17.4710 C.ar   56  PHE56      -0.0042
     50  CE1       -2.0230   11.9420   17.0030 C.ar   56  PHE56      -0.0003
     51  CE2        0.1800   11.5690   16.1760 C.ar   56  PHE56      -0.0003
     52  CZ        -1.1400   11.8690   15.9450 C.ar   56  PHE56      -0.0000
     53  N         -6.2010   11.8320   14.9230 N.3    73  SER73      -0.1202
     54  CA        -6.2280   12.9820   14.0000 C.3    73  SER73       0.2020
     55  C         -4.8150   13.5480   13.9170 C.2    73  SER73       0.2619
     56  O         -4.0410   13.3300   14.8670 O.2    73  SER73      -0.2717
     57  CB        -7.2230   13.9910   14.4560 C.3    73  SER73       0.2103
     58  OG        -8.4710   13.3740   14.6870 O.3    73  SER73      -0.2182
     59  N         -4.4820   14.2260   12.8260 N.am   74  GLY74      -0.1942
     60  CA        -3.1170   14.7210   12.6100 C.3    74  GLY74       0.2014
     61  C         -3.0340   15.8240   11.5850 C.2    74  GLY74       0.2639
     62  O         -4.0600   16.1090   10.9030 O.2    74  GLY74      -0.2714
     63  N         -1.8360   16.4030   11.4740 N.am   75  TYR75      -0.1959
     64  CA        -1.5450   17.4920   10.5110 C.3    75  TYR75       0.1771
     65  C         -0.5900   16.9790    9.4230 C.2    75  TYR75       0.2619
     66  O         -0.6480   17.5240    8.3240 O.2    75  TYR75      -0.2715
     67  CB        -1.0900   18.7630   11.2520 C.3    75  TYR75       0.0574
     68  CG         0.2030   18.6880   12.0340 C.ar   75  TYR75      -0.0198
     69  CD1        1.4160   18.9940   11.4310 C.ar   75  TYR75      -0.0009
     70  CD2        0.2160   18.3840   13.3890 C.ar   75  TYR75      -0.0009
     71  CE1        2.6090   18.9640   12.1360 C.ar   75  TYR75       0.0417
     72  CE2        1.4020   18.3410   14.1070 C.ar   75  TYR75       0.0417
     73  CZ         2.6030   18.6390   13.4810 C.ar   75  TYR75       0.1957
     74  OH         3.7760   18.6010   14.1750 O.3    75  TYR75      -0.2866
     75  N          0.2210   15.9570    9.7190 N.am   76  ALA76      -0.1963
     76  CA         1.1950   15.3740    8.7600 C.3    76  ALA76       0.1728
     77  C          1.4650   13.8920    9.0730 C.2    76  ALA76       0.2617
     78  O          1.2630   13.4620   10.2390 O.2    76  ALA76      -0.2715
     79  CB         2.4700   16.1810    8.7660 C.3    76  ALA76       0.0334
     80  N          1.9020   13.1500    8.0460 N.am   77  GLY77      -0.1940
     81  CA         2.3590   11.7570    8.1400 C.3    77  GLY77       0.2014
     82  C          3.6500   11.6310    8.9370 C.2    77  GLY77       0.2639
     83  O          4.3180   12.6810    9.1990 O.2    77  GLY77      -0.2714
     84  N          3.9940   10.4040    9.3190 N.am   78  PHE78      -0.1959
     85  CA         5.2400   10.0700   10.0450 C.3    78  PHE78       0.1771
     86  C          5.5530    8.5840    9.8670 C.2    78  PHE78       0.2619
     87  O          4.7600    7.8810    9.2570 O.2    78  PHE78      -0.2715
     88  CB         5.1280   10.4700   11.5220 C.3    78  PHE78       0.0574
     89  CG         3.9740    9.8630   12.2850 C.ar   78  PHE78      -0.0200
     90  CD1        2.6990   10.4260   12.2240 C.ar   78  PHE78      -0.0042
     91  CD2        4.1620    8.7490   13.0930 C.ar   78  PHE78      -0.0042
     92  CE1        1.6430    9.8760   12.9400 C.ar   78  PHE78      -0.0003
     93  CE2        3.1070    8.2080   13.8110 C.ar   78  PHE78      -0.0003
     94  CZ         1.8510    8.7710   13.7340 C.ar   78  PHE78      -0.0000
     95  N          6.7150    8.1570   10.3650 N.am   79  ILE79      -0.1977
     96  CA         7.1630    6.7400   10.3950 C.3    79  ILE79       0.1596
     97  C          6.6920    6.1330   11.7100 C.2    79  ILE79       0.2287
     98  O          7.1790    6.5690   12.7530 O.2    79  ILE79      -0.2864
     99  CB         8.6960    6.6220   10.2400 C.3    79  ILE79       0.0276
    100  CG1        9.2080    7.3240    8.9760 C.3    79  ILE79       0.0022
    101  CG2        9.1280    5.1570   10.2890 C.3    79  ILE79       0.0022
    102  CD1        8.5490    6.8560    7.6850 C.3    79  ILE79       0.0001
@<TRIPOS>BOND
     1   102   100    1
     2    80    81    1
     3    80    77   am
     4    81    82    1
     5    66    65    2
     6    76    79    1
     7    76    77    1
     8    76    75    1
     9    82    83    2
    10    82    84   am
    11   100    99    1
    12    77    78    2
    13    87    86    2
    14    84    85    1
    15    65    75   am
    16    65    64    1
    17    16    13    1
    18    16    17    1
    19    86    85    1
    20    86    95   am
    21    13    12    1
    22    13    14    1
    23    85    88    1
    24    99   101    1
    25    99    96    1
    26    95    96    1
    27    96    97    1
    28    64    67    1
    29    64    63    1
    30    17    18   ar
    31    17    19   ar
    32    62    61    2
    33    14    15    2
    34    18    20   ar
    35    67    68    1
    36    69    68   ar
    37    69    71   ar
    38    63    61   am
    39    88    89    1
    40    61    60    1
    41    97    98    2
    42     3     4    2
    43     3     2    1
    44    19    22   ar
    45    19    21   ar
    46    68    70   ar
    47    71    73   ar
    48    90    89   ar
    49    90    92   ar
    50    20    21   ar
    51    22    24   ar
    52    89    91   ar
    53    60    59    1
    54    21    23   ar
    55    59    55   am
    56    92    94   ar
    57     2     1    1
    58     2     5    1
    59    91    93   ar
    60    70    72   ar
    61    24    25   ar
    62    73    72   ar
    63    73    74    1
    64    94    93   ar
    65     5     6    1
    66    55    54    1
    67    55    56    2
    68    23    25   ar
    69    54    57    1
    70    54    53    1
    71    57    58    1
    72     7     6   ar
    73     7     9   ar
    74     6     8   ar
    75    33    35   ar
    76    33    31   ar
    77    35    34   ar
    78    52    51   ar
    79    52    50   ar
    80    31    30    1
    81    31    32   ar
    82    30    27    1
    83     9    11   ar
    84     8    10   ar
    85    34    32   ar
    86    51    49   ar
    87    26    27    1
    88    50    48   ar
    89    27    28    1
    90    11    10   ar
    91    49    47   ar
    92    41    40    1
    93    48    47   ar
    94    28    29    2
    95    47    46    1
    96    40    37    1
    97    36    37    1
    98    46    43    1
    99    37    38    1
   100    42    38   am
   101    42    43    1
   102    38    39    2
   103    43    44    1
   104    44    45    2
