@<TRIPOS>MOLECULE
tmp/6hqbA42.pdb
 105 103 0 0 0
SMALL
GASTEIGER

@<TRIPOS>ATOM
      1  N        -21.2230  -15.3370  -35.8820 N.3   607  PHE607     -0.1241
      2  CA       -21.3900  -13.9590  -35.4290 C.3   607  PHE607      0.1605
      3  C        -20.2000  -13.5040  -34.5930 C.2   607  PHE607      0.2264
      4  O        -19.7550  -12.3560  -34.7120 O.2   607  PHE607     -0.2867
      5  CB       -22.6880  -13.8150  -34.6380 C.3   607  PHE607      0.0534
      6  CG       -23.9240  -13.8850  -35.4830 C.ar  607  PHE607     -0.0203
      7  CD1      -23.8370  -13.8650  -36.8650 C.ar  607  PHE607     -0.0042
      8  CD2      -25.1750  -13.9620  -34.8960 C.ar  607  PHE607     -0.0042
      9  CE1      -24.9750  -13.9280  -37.6460 C.ar  607  PHE607     -0.0003
     10  CE2      -26.3180  -14.0250  -35.6710 C.ar  607  PHE607     -0.0003
     11  CZ       -26.2170  -14.0080  -37.0480 C.ar  607  PHE607     -0.0000
     12  N        -27.7270   -7.0730  -30.2530 N.3   646  LEU646     -0.1231
     13  CA       -28.9820   -6.7230  -30.9110 C.3   646  LEU646      0.1693
     14  C        -28.8680   -5.3970  -31.6550 C.2   646  LEU646      0.2591
     15  O        -29.4400   -5.2360  -32.7400 O.2   646  LEU646     -0.2718
     16  CB       -30.1120   -6.6610  -29.8840 C.3   646  LEU646      0.0284
     17  CG       -31.5050   -6.3000  -30.4090 C.3   646  LEU646      0.0019
     18  CD1      -32.1430   -7.4830  -31.1280 C.3   646  LEU646      0.0001
     19  CD2      -32.4020   -5.7870  -29.2880 C.3   646  LEU646      0.0001
     20  N        -28.1320   -4.4390  -31.0900 N.am  647  ARG647     -0.1980
     21  CA       -28.0360   -3.0890  -31.6350 C.3   647  ARG647      0.1597
     22  C        -26.7720   -2.8860  -32.4630 C.2   647  ARG647      0.2287
     23  O        -26.8480   -2.6420  -33.6710 O.2   647  ARG647     -0.2864
     24  CB       -28.0890   -2.0660  -30.4900 C.3   647  ARG647      0.0334
     25  CG       -27.7320   -0.6430  -30.8990 C.3   647  ARG647      0.0492
     26  CD       -27.5190    0.2580  -29.6850 C.3   647  ARG647      0.2205
     27  NE       -26.2570   -0.0190  -29.0010 N.pl3 647  ARG647     -0.0865
     28  CZ       -26.1400   -0.7760  -27.9140 C.cat 647  ARG647      0.5346
     29  NH1      -27.2120   -1.3380  -27.3720 N.pl3 647  ARG647      0.1354
     30  NH2      -24.9480   -0.9710  -27.3660 N.pl3 647  ARG647      0.1354
     31  N        -26.3600   -6.6150  -34.9530 N.3   650  LEU650     -0.1231
     32  CA       -27.4370   -6.8600  -35.9040 C.3   650  LEU650      0.1693
     33  C        -27.9620   -5.5560  -36.4920 C.2   650  LEU650      0.2592
     34  O        -27.7520   -5.2800  -37.6760 O.2   650  LEU650     -0.2718
     35  CB       -28.5760   -7.6390  -35.2430 C.3   650  LEU650      0.0284
     36  CG       -28.2910   -9.0980  -34.8850 C.3   650  LEU650      0.0019
     37  CD1      -29.5820   -9.8120  -34.5170 C.3   650  LEU650      0.0001
     38  CD2      -27.5810   -9.8130  -36.0260 C.3   650  LEU650      0.0001
     39  N        -28.6370   -4.7480  -35.6670 N.am  651  TRP651     -0.1976
     40  CA       -29.2650   -3.5260  -36.1640 C.3   651  TRP651      0.1640
     41  C        -28.2630   -2.6270  -36.8760 C.2   651  TRP651      0.2290
     42  O        -28.5930   -2.0000  -37.8900 O.2   651  TRP651     -0.2864
     43  CB       -29.9270   -2.7700  -35.0120 C.3   651  TRP651      0.0576
     44  CG       -30.6060   -1.4960  -35.4380 C.ar  651  TRP651      0.0006
     45  CD1      -31.9180   -1.3430  -35.7810 C.ar  651  TRP651      0.0946
     46  CD2      -30.0070   -0.2000  -35.5650 C.ar  651  TRP651      0.0152
     47  NE1      -32.1740   -0.0350  -36.1130 N.ar  651  TRP651     -0.2442
     48  CE2      -31.0170    0.6870  -35.9900 C.ar  651  TRP651      0.0810
     49  CE3      -28.7160    0.2960  -35.3620 C.ar  651  TRP651      0.0012
     50  CZ2      -30.7770    2.0400  -36.2150 C.ar  651  TRP651      0.0191
     51  CZ3      -28.4790    1.6390  -35.5870 C.ar  651  TRP651      0.0001
     52  CH2      -29.5050    2.4960  -36.0080 C.ar  651  TRP651      0.0015
     53  N        -26.8530   -4.5970  -40.1970 N.3   654  ALA654     -0.1245
     54  CA       -27.8730   -5.0140  -41.1530 C.3   654  ALA654      0.1562
     55  C        -28.3100   -3.8890  -42.0790 C.2   654  ALA654      0.2260
     56  O        -29.0610   -4.1460  -43.0260 O.2   654  ALA654     -0.2867
     57  CB       -29.0990   -5.5660  -40.4230 C.3   654  ALA654      0.0290
     58  N        -34.8930  -10.8810  -47.1110 N.3   673  LEU673     -0.1245
     59  CA       -36.3200  -10.9900  -46.8260 C.3   673  LEU673      0.1561
     60  C        -36.8580  -12.3690  -47.1950 C.2   673  LEU673      0.2260
     61  O        -37.7560  -12.8860  -46.5230 O.2   673  LEU673     -0.2867
     62  CB       -37.0960   -9.8900  -47.5520 C.3   673  LEU673      0.0270
     63  CG       -36.9220   -8.4680  -47.0000 C.3   673  LEU673      0.0019
     64  CD1      -38.0400   -7.5390  -47.4650 C.3   673  LEU673      0.0001
     65  CD2      -36.8260   -8.4750  -45.4800 C.3   673  LEU673      0.0001
     66  N        -36.0530  -14.6420  -44.3910 N.3   676  HIS676     -0.1226
     67  CA       -37.0190  -14.3120  -43.3460 C.3   676  HIS676      0.1752
     68  C        -38.3770  -14.9450  -43.6240 C.2   676  HIS676      0.2596
     69  O        -39.0940  -15.3220  -42.6900 O.2   676  HIS676     -0.2718
     70  CB       -37.1610  -12.7960  -43.2140 C.3   676  HIS676      0.0759
     71  CG       -36.1760  -12.1790  -42.2720 C.ar  676  HIS676      0.0818
     72  ND1      -34.8190  -12.1620  -42.5160 N.ar  676  HIS676     -0.2268
     73  CD2      -36.3500  -11.5640  -41.0790 C.ar  676  HIS676      0.1154
     74  CE1      -34.2020  -11.5590  -41.5160 C.ar  676  HIS676      0.1986
     75  NE2      -35.1080  -11.1870  -40.6310 N.ar  676  HIS676     -0.2212
     76  N        -38.7410  -15.0660  -44.9000 N.am  677  PHE677     -0.1976
     77  CA       -40.0000  -15.7050  -45.2710 C.3   677  PHE677      0.1639
     78  C        -39.9540  -17.2080  -45.0240 C.2   677  PHE677      0.2290
     79  O        -40.8610  -17.7730  -44.4010 O.2   677  PHE677     -0.2864
     80  CB       -40.3110  -15.4120  -46.7380 C.3   677  PHE677      0.0560
     81  CG       -41.5640  -16.0660  -47.2390 C.ar  677  PHE677     -0.0200
     82  CD1      -42.8060  -15.5260  -46.9460 C.ar  677  PHE677     -0.0042
     83  CD2      -41.5000  -17.2120  -48.0180 C.ar  677  PHE677     -0.0042
     84  CE1      -43.9640  -16.1230  -47.4130 C.ar  677  PHE677     -0.0003
     85  CE2      -42.6530  -17.8150  -48.4890 C.ar  677  PHE677     -0.0003
     86  CZ       -43.8870  -17.2710  -48.1870 C.ar  677  PHE677     -0.0000
     87  N        -38.0170  -19.0000  -43.1610 N.3   679  PHE679     -0.1241
     88  CA       -37.9380  -19.3040  -41.7370 C.3   679  PHE679      0.1605
     89  C        -39.3250  -19.4290  -41.1270 C.2   679  PHE679      0.2264
     90  O        -39.6420  -20.4230  -40.4650 O.2   679  PHE679     -0.2867
     91  CB       -37.1430  -18.2190  -41.0100 C.3   679  PHE679      0.0534
     92  CG       -37.5090  -18.0750  -39.5580 C.ar  679  PHE679     -0.0203
     93  CD1      -36.9520  -18.9110  -38.6020 C.ar  679  PHE679     -0.0042
     94  CD2      -38.4150  -17.1060  -39.1460 C.ar  679  PHE679     -0.0042
     95  CE1      -37.2890  -18.7810  -37.2650 C.ar  679  PHE679     -0.0003
     96  CE2      -38.7530  -16.9750  -37.8110 C.ar  679  PHE679     -0.0003
     97  CZ       -38.1890  -17.8140  -36.8700 C.ar  679  PHE679     -0.0000
     98  N        -42.3050  -22.7420  -39.6310 N.3   683  LEU683     -0.1245
     99  CA       -42.9770  -22.8330  -38.3380 C.3   683  LEU683      0.1561
    100  C        -44.3680  -23.4410  -38.4670 C.2   683  LEU683      0.2260
    101  O        -44.8580  -24.0710  -37.5200 O.2   683  LEU683     -0.2867
    102  CB       -43.0560  -21.4500  -37.6930 C.3   683  LEU683      0.0270
    103  CG       -41.7530  -20.6480  -37.7200 C.3   683  LEU683      0.0019
    104  CD1      -41.9220  -19.2960  -37.0410 C.3   683  LEU683      0.0001
    105  CD2      -40.6310  -21.4440  -37.0740 C.3   683  LEU683      0.0001
@<TRIPOS>BOND
     1    85    86   ar
     2    85    83   ar
     3    86    84   ar
     4    83    81   ar
     5    62    63    1
     6    62    59    1
     7    64    63    1
     8    84    82   ar
     9    81    82   ar
    10    81    80    1
    11    60    59    1
    12    60    61    2
    13    58    59    1
    14    63    65    1
    15    80    77    1
    16    77    78    1
    17    77    76    1
    18    78    79    2
    19    76    68   am
    20    66    67    1
    21    68    67    1
    22    68    69    2
    23    67    70    1
    24    70    71    1
    25    87    88    1
    26    56    55    2
    27    72    71   ar
    28    72    74   ar
    29    71    73   ar
    30    55    54    1
    31    88    89    1
    32    88    91    1
    33    74    75   ar
    34    54    57    1
    35    54    53    1
    36    89    90    2
    37    73    75   ar
    38    91    92    1
    39    98    99    1
    40    92    94   ar
    41    92    93   ar
    42    94    96   ar
    43    93    95   ar
    44   100    99    1
    45   100   101    2
    46    99   102    1
    47    42    41    2
    48    96    97   ar
    49   103   102    1
    50   103   105    1
    51   103   104    1
    52    34    33    2
    53     9    11   ar
    54     9     7   ar
    55    95    97   ar
    56    11    10   ar
    57    41    40    1
    58     7     6   ar
    59    33    32    1
    60    33    39   am
    61    50    52   ar
    62    50    48   ar
    63    40    39    1
    64    40    43    1
    65    47    48   ar
    66    47    45   ar
    67    38    36    1
    68    52    51   ar
    69    48    46   ar
    70    32    35    1
    71    32    31    1
    72     1     2    1
    73    45    44   ar
    74    10     8   ar
    75    51    49   ar
    76    46    44   ar
    77    46    49   ar
    78     6     8   ar
    79     6     5    1
    80    44    43    1
    81     2     5    1
    82     2     3    1
    83    35    36    1
    84    36    37    1
    85     4     3    2
    86    23    22    2
    87    15    14    2
    88    22    21    1
    89    14    20   am
    90    14    13    1
    91    21    20    1
    92    21    24    1
    93    18    17    1
    94    13    12    1
    95    13    16    1
    96    25    24    1
    97    25    26    1
    98    17    16    1
    99    17    19    1
   100    26    27    1
   101    27    28    2
   102    28    29    1
   103    28    30    1
