@<TRIPOS>MOLECULE
tmp/6hqbA36.pdb
 190 181 0 0 0
SMALL
GASTEIGER

@<TRIPOS>ATOM
      1  N        -38.0480  -50.5880  -54.4140 N.3    35  ASP35      -0.1239
      2  CA       -38.7450  -50.9580  -53.1910 C.3    35  ASP35       0.1674
      3  C        -39.9260  -51.8530  -53.5400 C.2    35  ASP35       0.2266
      4  O        -40.6770  -51.5590  -54.4760 O.2    35  ASP35      -0.2867
      5  CB       -39.2220  -49.7120  -52.4400 C.3    35  ASP35       0.1410
      6  CG       -39.5870  -50.0010  -50.9970 C.2    35  ASP35       0.3668
      7  OD1      -39.9550  -51.1530  -50.6860 O.co2  35  ASP35      -0.2456
      8  OD2      -39.5050  -49.0690  -50.1700 O.co2  35  ASP35      -0.2456
      9  N        -42.5210  -52.3330  -51.5980 N.3    37  THR37      -0.1203
     10  CA       -43.7500  -51.7090  -51.1240 C.3    37  THR37       0.1994
     11  C        -44.2770  -50.6530  -52.0860 C.2    37  THR37       0.2617
     12  O        -45.4630  -50.3120  -52.0220 O.2    37  THR37      -0.2717
     13  CB       -43.5210  -51.0830  -49.7490 C.3    37  THR37       0.1784
     14  OG1      -42.5450  -50.0400  -49.8550 O.3    37  THR37      -0.2211
     15  CG2      -43.0220  -52.1310  -48.7660 C.3    37  THR37       0.0376
     16  N        -43.4320  -50.1340  -52.9760 N.am   38  LEU38      -0.1979
     17  CA       -43.8160  -49.0570  -53.8770 C.3    38  LEU38       0.1596
     18  C        -44.0440  -49.5200  -55.3090 C.2    38  LEU38       0.2287
     19  O        -44.5810  -48.7510  -56.1130 O.2    38  LEU38      -0.2864
     20  CB       -42.7490  -47.9570  -53.8690 C.3    38  LEU38       0.0297
     21  CG       -42.3050  -47.4340  -52.4980 C.3    38  LEU38       0.0022
     22  CD1      -41.2130  -46.3870  -52.6510 C.3    38  LEU38       0.0001
     23  CD2      -43.4840  -46.8700  -51.7200 C.3    38  LEU38       0.0001
     24  N        -43.9490  -39.2660  -51.8980 N.3    49  TRP49      -0.1227
     25  CA       -42.9460  -38.8070  -50.9410 C.3    49  TRP49       0.1737
     26  C        -42.0600  -39.9600  -50.4840 C.2    49  TRP49       0.2595
     27  O        -40.8270  -39.8620  -50.5150 O.2    49  TRP49      -0.2718
     28  CB       -43.6270  -38.1440  -49.7430 C.3    49  TRP49       0.0564
     29  CG       -44.5640  -37.0220  -50.0990 C.ar   49  TRP49       0.0003
     30  CD1      -45.9070  -36.9620  -49.8470 C.ar   49  TRP49       0.0946
     31  CD2      -44.2260  -35.8020  -50.7680 C.ar   49  TRP49       0.0152
     32  NE1      -46.4230  -35.7760  -50.3160 N.ar   49  TRP49      -0.2442
     33  CE2      -45.4110  -35.0460  -50.8840 C.ar   49  TRP49       0.0810
     34  CE3      -43.0350  -35.2720  -51.2730 C.ar   49  TRP49       0.0012
     35  CZ2      -45.4390  -33.7910  -51.4910 C.ar   49  TRP49       0.0191
     36  CZ3      -43.0660  -34.0260  -51.8750 C.ar   49  TRP49       0.0001
     37  CH2      -44.2590  -33.3000  -51.9800 C.ar   49  TRP49       0.0015
     38  N        -42.6760  -41.0720  -50.0710 N.am   50  ASN50      -0.1974
     39  CA       -41.9130  -42.2480  -49.6650 C.3    50  ASN50       0.1688
     40  C        -41.0040  -42.7580  -50.7750 C.2    50  ASN50       0.2292
     41  O        -40.0600  -43.5050  -50.4920 O.2    50  ASN50      -0.2864
     42  CB       -42.8590  -43.3650  -49.2190 C.3    50  ASN50       0.1181
     43  CG       -43.8250  -42.9180  -48.1400 C.2    50  ASN50       0.2629
     44  OD1      -45.0150  -43.2290  -48.1910 O.2    50  ASN50      -0.2716
     45  ND2      -43.3190  -42.1800  -47.1590 N.am   50  ASN50      -0.0877
     46  N        -39.0350  -40.7510  -52.6500 N.3    52  HIS52      -0.1226
     47  CA       -37.7850  -40.0170  -52.5070 C.3    52  HIS52       0.1752
     48  C        -37.1460  -40.2430  -51.1430 C.2    52  HIS52       0.2596
     49  O        -35.9160  -40.2300  -51.0290 O.2    52  HIS52      -0.2718
     50  CB       -38.0220  -38.5250  -52.7350 C.3    52  HIS52       0.0759
     51  CG       -38.6990  -38.2100  -54.0320 C.ar   52  HIS52       0.0818
     52  ND1      -40.0540  -38.3720  -54.2240 N.ar   52  HIS52      -0.2268
     53  CD2      -38.2070  -37.7400  -55.2030 C.ar   52  HIS52       0.1154
     54  CE1      -40.3680  -38.0150  -55.4570 C.ar   52  HIS52       0.1986
     55  NE2      -39.2660  -37.6280  -56.0720 N.ar   52  HIS52      -0.2212
     56  N        -37.9580  -40.4610  -50.1070 N.am   53  ALA53      -0.1966
     57  CA       -37.4250  -40.6670  -48.7660 C.3    53  ALA53       0.1728
     58  C        -36.5910  -41.9370  -48.6590 C.2    53  ALA53       0.2616
     59  O        -35.8070  -42.0720  -47.7130 O.2    53  ALA53      -0.2715
     60  CB       -38.5700  -40.7090  -47.7530 C.3    53  ALA53       0.0334
     61  N        -36.7340  -42.8660  -49.6060 N.am   54  ASN54      -0.1972
     62  CA       -36.0260  -44.1400  -49.5600 C.3    54  ASN54       0.1688
     63  C        -35.3090  -44.4270  -50.8740 C.2    54  ASN54       0.2292
     64  O        -35.0770  -45.5890  -51.2180 O.2    54  ASN54      -0.2864
     65  CB       -36.9850  -45.2810  -49.2190 C.3    54  ASN54       0.1181
     66  CG       -37.6150  -45.1230  -47.8490 C.2    54  ASN54       0.2629
     67  OD1      -36.9780  -44.6490  -46.9080 O.2    54  ASN54      -0.2716
     68  ND2      -38.8750  -45.5230  -47.7300 N.am   54  ASN54      -0.0877
     69  N        -22.8220  -29.7090  -40.9610 N.3   399  PHE399     -0.1241
     70  CA       -23.7630  -30.7150  -41.4500 C.3   399  PHE399      0.1605
     71  C        -23.1440  -32.1110  -41.4250 C.2   399  PHE399      0.2264
     72  O        -23.7700  -33.0770  -40.9540 O.2   399  PHE399     -0.2867
     73  CB       -24.2300  -30.3570  -42.8610 C.3   399  PHE399      0.0534
     74  CG       -25.3310  -29.3370  -42.8950 C.ar  399  PHE399     -0.0203
     75  CD1      -26.6570  -29.7280  -42.7880 C.ar  399  PHE399     -0.0042
     76  CD2      -25.0450  -27.9900  -43.0380 C.ar  399  PHE399     -0.0042
     77  CE1      -27.6800  -28.7940  -42.8210 C.ar  399  PHE399     -0.0003
     78  CE2      -26.0610  -27.0490  -43.0730 C.ar  399  PHE399     -0.0003
     79  CZ       -27.3810  -27.4530  -42.9640 C.ar  399  PHE399     -0.0000
     80  N        -36.1340  -44.7630  -38.3990 N.3   571  ARG571     -0.1245
     81  CA       -37.0040  -43.6180  -38.6410 C.3   571  ARG571      0.1563
     82  C        -38.4440  -44.0070  -38.3250 C.2   571  ARG571      0.2260
     83  O        -39.0570  -44.7940  -39.0540 O.2   571  ARG571     -0.2867
     84  CB       -36.8700  -43.1320  -40.0840 C.3   571  ARG571      0.0307
     85  CG       -37.8330  -42.0140  -40.4450 C.3   571  ARG571      0.0489
     86  CD       -37.5220  -41.4020  -41.8040 C.3   571  ARG571      0.2205
     87  NE       -37.6980  -42.3390  -42.9080 N.pl3 571  ARG571     -0.0865
     88  CZ       -36.7240  -42.7020  -43.7340 C.cat 571  ARG571      0.5346
     89  NH1      -35.5090  -42.1950  -43.5850 N.pl3 571  ARG571      0.1354
     90  NH2      -36.9650  -43.5630  -44.7140 N.pl3 571  ARG571      0.1354
     91  N        -33.9090  -40.8920  -35.5240 N.3   588  TRP588     -0.1241
     92  CA       -34.2510  -39.9210  -36.5570 C.3   588  TRP588      0.1605
     93  C        -34.7340  -38.6140  -35.9420 C.2   588  TRP588      0.2264
     94  O        -34.3230  -37.5280  -36.3690 O.2   588  TRP588     -0.2867
     95  CB       -35.3180  -40.4990  -37.4860 C.3   588  TRP588      0.0550
     96  CG       -35.4680  -39.7470  -38.7700 C.ar  588  TRP588      0.0003
     97  CD1      -34.9350  -40.0830  -39.9770 C.ar  588  TRP588      0.0946
     98  CD2      -36.1920  -38.5280  -38.9760 C.ar  588  TRP588      0.0152
     99  NE1      -35.2850  -39.1540  -40.9260 N.ar  588  TRP588     -0.2442
    100  CE2      -36.0560  -38.1870  -40.3360 C.ar  588  TRP588      0.0810
    101  CE3      -36.9440  -37.6940  -38.1440 C.ar  588  TRP588      0.0012
    102  CZ2      -36.6420  -37.0480  -40.8830 C.ar  588  TRP588      0.0191
    103  CZ3      -37.5240  -36.5630  -38.6870 C.ar  588  TRP588      0.0001
    104  CH2      -37.3710  -36.2510  -40.0430 C.ar  588  TRP588      0.0015
    105  N        -31.8060  -36.7010  -34.5090 N.3   591  VAL591     -0.1245
    106  CA       -31.0740  -35.9480  -35.5250 C.3   591  VAL591      0.1561
    107  C        -31.8720  -34.7220  -35.9540 C.2   591  VAL591      0.2260
    108  O        -31.3080  -33.6450  -36.1950 O.2   591  VAL591     -0.2867
    109  CB       -30.7380  -36.8560  -36.7210 C.3   591  VAL591      0.0252
    110  CG1      -29.8980  -36.1050  -37.7400 C.3   591  VAL591      0.0019
    111  CG2      -30.0140  -38.0950  -36.2440 C.3   591  VAL591      0.0019
    112  N        -30.1160  -31.0380  -35.5640 N.3   595  LEU595     -0.1245
    113  CA       -29.9370  -30.0720  -36.6490 C.3   595  LEU595      0.1561
    114  C        -30.1270  -28.6430  -36.1470 C.2   595  LEU595      0.2260
    115  O        -29.3170  -27.7500  -36.4360 O.2   595  LEU595     -0.2867
    116  CB       -30.9110  -30.3730  -37.7900 C.3   595  LEU595      0.0270
    117  CG       -30.6520  -31.6410  -38.6050 C.3   595  LEU595      0.0019
    118  CD1      -31.8670  -32.0000  -39.4480 C.3   595  LEU595      0.0001
    119  CD2      -29.4250  -31.4520  -39.4800 C.3   595  LEU595      0.0001
    120  N        -46.6000  -37.4250  -43.9160 N.3   719  SER719     -0.1217
    121  CA       -46.4470  -38.2060  -42.7010 C.3   719  SER719      0.1889
    122  C        -45.8460  -37.3380  -41.5990 C.2   719  SER719      0.2288
    123  O        -45.2810  -36.2690  -41.8500 O.2   719  SER719     -0.2866
    124  CB       -45.5740  -39.4390  -42.9550 C.3   719  SER719      0.2089
    125  OG       -44.2830  -39.0830  -43.4190 O.3   719  SER719     -0.2183
    126  N        -43.2310  -37.8660  -39.7130 N.3   721  ILE721     -0.1231
    127  CA       -41.7990  -37.7190  -39.9440 C.3   721  ILE721      0.1692
    128  C        -41.5320  -36.7390  -41.0780 C.2   721  ILE721      0.2591
    129  O        -40.6540  -35.8750  -40.9720 O.2   721  ILE721     -0.2718
    130  CB       -41.1580  -39.0890  -40.2210 C.3   721  ILE721      0.0266
    131  CG1      -41.0720  -39.9130  -38.9370 C.3   721  ILE721      0.0019
    132  CG2      -39.7810  -38.9070  -40.8310 C.3   721  ILE721      0.0020
    133  CD1      -40.1770  -39.3030  -37.8790 C.3   721  ILE721      0.0001
    134  N        -42.2760  -36.8550  -42.1820 N.am  722  GLN722     -0.1979
    135  CA       -42.0490  -35.9470  -43.3030 C.3   722  GLN722      0.1601
    136  C        -42.4560  -34.5210  -42.9570 C.2   722  GLN722      0.2287
    137  O        -41.8250  -33.5630  -43.4190 O.2   722  GLN722     -0.2864
    138  CB       -42.7970  -36.4140  -44.5490 C.3   722  GLN722      0.0394
    139  CG       -42.5690  -35.4840  -45.7270 C.3   722  GLN722      0.0908
    140  CD       -43.3800  -35.8480  -46.9420 C.2   722  GLN722      0.2608
    141  OE1      -44.2180  -36.7500  -46.9020 O.2   722  GLN722     -0.2717
    142  NE2      -43.1380  -35.1430  -48.0370 N.am  722  GLN722     -0.0878
    143  N        -39.5890  -33.2200  -41.1330 N.3   725  ALA725     -0.1231
    144  CA       -38.4470  -33.0630  -42.0280 C.3   725  ALA725      0.1694
    145  C        -38.5730  -31.8030  -42.8750 C.2   725  ALA725      0.2591
    146  O        -37.6030  -31.0510  -43.0240 O.2   725  ALA725     -0.2718
    147  CB       -38.3050  -34.2990  -42.9150 C.3   725  ALA725      0.0304
    148  N        -39.7550  -31.5600  -43.4420 N.am  726  VAL726     -0.1980
    149  CA       -39.9790  -30.3310  -44.2000 C.3   726  VAL726      0.1595
    150  C        -39.8270  -29.1180  -43.2940 C.2   726  VAL726      0.2287
    151  O        -39.2470  -28.0960  -43.6890 O.2   726  VAL726     -0.2864
    152  CB       -41.3610  -30.3610  -44.8800 C.3   726  VAL726      0.0276
    153  CG1      -41.6270  -29.0490  -45.6010 C.3   726  VAL726      0.0022
    154  CG2      -41.4530  -31.5350  -45.8450 C.3   726  VAL726      0.0022
    155  N        -37.8900  -28.7560  -40.5140 N.3   728  VAL728     -0.1231
    156  CA       -36.4900  -28.4680  -40.2050 C.3   728  VAL728      0.1692
    157  C        -35.7330  -28.0380  -41.4600 C.2   728  VAL728      0.2591
    158  O        -34.8580  -27.1610  -41.4030 O.2   728  VAL728     -0.2718
    159  CB       -35.8220  -29.6740  -39.5170 C.3   728  VAL728      0.0266
    160  CG1      -35.8170  -30.8910  -40.4250 C.3   728  VAL728      0.0020
    161  CG2      -34.4040  -29.3200  -39.0940 C.3   728  VAL728      0.0020
    162  N        -36.0680  -28.6250  -42.6150 N.am  729  ALA729     -0.1980
    163  CA       -35.4100  -28.2460  -43.8590 C.3   729  ALA729      0.1597
    164  C        -35.6560  -26.7790  -44.1820 C.2   729  ALA729      0.2287
    165  O        -34.7150  -26.0320  -44.4770 O.2   729  ALA729     -0.2864
    166  CB       -35.8950  -29.1400  -45.0020 C.3   729  ALA729      0.0319
    167  N        -33.8140  -24.3890  -41.6030 N.3   732  LEU732     -0.1231
    168  CA       -32.4020  -24.2160  -41.9250 C.3   732  LEU732      0.1693
    169  C        -32.2160  -23.4200  -43.2100 C.2   732  LEU732      0.2591
    170  O        -31.3300  -22.5620  -43.2890 O.2   732  LEU732     -0.2718
    171  CB       -31.7130  -25.5760  -42.0350 C.3   732  LEU732      0.0284
    172  CG       -31.6720  -26.4150  -40.7560 C.3   732  LEU732      0.0019
    173  CD1      -30.7770  -27.6350  -40.9390 C.3   732  LEU732      0.0001
    174  CD2      -31.2210  -25.5730  -39.5700 C.3   732  LEU732      0.0001
    175  N        -33.0490  -23.6760  -44.2240 N.am  733  LEU733     -0.1980
    176  CA       -32.8970  -22.9740  -45.4950 C.3   733  LEU733      0.1596
    177  C        -33.1290  -21.4770  -45.3290 C.2   733  LEU733      0.2287
    178  O        -32.3190  -20.6610  -45.7770 O.2   733  LEU733     -0.2864
    179  CB       -33.8510  -23.5530  -46.5400 C.3   733  LEU733      0.0297
    180  CG       -33.6470  -23.0280  -47.9660 C.3   733  LEU733      0.0022
    181  CD1      -32.4610  -23.7130  -48.6420 C.3   733  LEU733      0.0001
    182  CD2      -34.9140  -23.1770  -48.7950 C.3   733  LEU733      0.0001
    183  N        -30.2590  -19.8840  -43.1030 N.3   736  ILE736     -0.1245
    184  CA       -28.9660  -19.7990  -43.7640 C.3   736  ILE736      0.1561
    185  C        -29.0170  -18.8400  -44.9470 C.2   736  ILE736      0.2260
    186  O        -28.0360  -18.1440  -45.2190 O.2   736  ILE736     -0.2867
    187  CB       -28.4970  -21.2070  -44.1620 C.3   736  ILE736      0.0252
    188  CG1      -28.2440  -22.0240  -42.8960 C.3   736  ILE736      0.0019
    189  CG2      -27.2400  -21.1400  -45.0090 C.3   736  ILE736      0.0019
    190  CD1      -27.9080  -23.4630  -43.1470 C.3   736  ILE736      0.0001
@<TRIPOS>BOND
     1    19    18    2
     2    55    54   ar
     3    55    53   ar
     4    54    52   ar
     5    18    17    1
     6    53    51   ar
     7     4     3    2
     8     1     2    1
     9    52    51   ar
    10    51    50    1
    11    17    20    1
    12    17    16    1
    13    20    21    1
    14     3     2    1
    15     2     5    1
    16    16    11   am
    17    50    47    1
    18    22    21    1
    19    46    47    1
    20    47    48    1
    21    21    23    1
    22     5     6    1
    23    11    12    2
    24    11    10    1
    25    37    36   ar
    26    37    35   ar
    27    24    25    1
    28    36    34   ar
    29     9    10    1
    30    35    33   ar
    31    34    31   ar
    32    64    63    2
    33    48    49    2
    34    48    56   am
    35    10    13    1
    36     6     7   ar
    37     6     8   ar
    38    25    26    1
    39    25    28    1
    40    33    31   ar
    41    33    32   ar
    42    63    62    1
    43    40    41    2
    44    40    39    1
    45    31    29   ar
    46    27    26    2
    47    26    38   am
    48    32    30   ar
    49    56    57    1
    50    29    30   ar
    51    29    28    1
    52    38    39    1
    53    14    13    1
    54    13    15    1
    55    39    42    1
    56    61    62    1
    57    61    58   am
    58    62    65    1
    59    65    66    1
    60    42    43    1
    61   182   180    1
    62    57    58    1
    63    57    60    1
    64    58    59    2
    65   181   180    1
    66    44    43    2
    67    43    45   am
    68   142   140   am
    69   180   179    1
    70    66    68   am
    71    66    67    2
    72   140   141    2
    73   140   139    1
    74   179   176    1
    75   154   152    1
    76   178   177    2
    77   139   138    1
    78   153   152    1
    79   176   177    1
    80   176   175    1
    81   186   185    2
    82   189   187    1
    83   166   163    1
    84   185   184    1
    85   152   149    1
    86    90    88    1
    87   138   135    1
    88   165   164    2
    89   175   169   am
    90   149   148    1
    91   149   150    1
    92   164   163    1
    93   187   184    1
    94   187   188    1
    95   120   121    1
    96   163   162    1
    97   184   183    1
    98    88    89    1
    99    88    87    2
   100   151   150    2
   101   148   145   am
   102   137   136    2
   103   125   124    1
   104   135   136    1
   105   135   134    1
   106   170   169    2
   107   169   168    1
   108   190   188    1
   109    78    76   ar
   110    78    79   ar
   111    76    74   ar
   112   146   145    2
   113    79    77   ar
   114   124   121    1
   115   147   144    1
   116    87    86    1
   117    74    73    1
   118    74    75   ar
   119   145   144    1
   120    73    70    1
   121    77    75   ar
   122   121   122    1
   123   162   157   am
   124   134   128   am
   125   171   168    1
   126   171   172    1
   127   144   143    1
   128   168   167    1
   129   123   122    2
   130    86    85    1
   131   157   158    2
   132   157   156    1
   133    70    71    1
   134    70    69    1
   135    71    72    2
   136   128   129    2
   137   128   127    1
   138   173   172    1
   139    99   100   ar
   140    99    97   ar
   141   102   100   ar
   142   102   104   ar
   143   132   130    1
   144   172   174    1
   145   155   156    1
   146    85    84    1
   147   160   159    1
   148   100    98   ar
   149   130   127    1
   150   130   131    1
   151   156   159    1
   152    84    81    1
   153   104   103   ar
   154    97    96   ar
   155   127   126    1
   156   159   161    1
   157   119   117    1
   158   118   117    1
   159    83    82    2
   160    98    96   ar
   161    98   101   ar
   162   131   133    1
   163    96    95    1
   164   103   101   ar
   165    81    80    1
   166    81    82    1
   167   117   116    1
   168   116   113    1
   169   110   109    1
   170    95    92    1
   171   109   111    1
   172   109   106    1
   173   113   114    1
   174   113   112    1
   175    92    93    1
   176    92    91    1
   177   115   114    2
   178    94    93    2
   179   108   107    2
   180   107   106    1
   181   106   105    1
