@<TRIPOS>MOLECULE
tmp/6hqbA01.pdb
 133 129 0 0 0
SMALL
GASTEIGER

@<TRIPOS>ATOM
      1  N         -7.4020  -57.9100  -66.7040 N.3     8  ARG8       -0.1245
      2  CA        -6.8440  -56.8230  -65.8950 C.3     8  ARG8        0.1563
      3  C         -6.6050  -57.2770  -64.4500 C.2     8  ARG8        0.2260
      4  O         -7.3190  -56.9060  -63.5160 O.2     8  ARG8       -0.2867
      5  CB        -7.7490  -55.5840  -65.9430 C.3     8  ARG8        0.0307
      6  CG        -7.2550  -54.4800  -66.8650 C.3     8  ARG8        0.0489
      7  CD        -6.0240  -53.7850  -66.2960 C.3     8  ARG8        0.2205
      8  NE        -6.3240  -53.0280  -65.0810 N.pl3   8  ARG8       -0.0865
      9  CZ        -6.6820  -51.7480  -65.0680 C.cat   8  ARG8        0.5346
     10  NH1       -6.9350  -51.1370  -63.9180 N.pl3   8  ARG8        0.1354
     11  NH2       -6.7890  -51.0750  -66.2050 N.pl3   8  ARG8        0.1354
     12  N         -2.9890  -59.2470  -62.0390 N.3    10  ALA10      -0.1231
     13  CA        -1.6320  -59.8000  -62.0440 C.3    10  ALA10       0.1694
     14  C         -1.3430  -60.3460  -60.6410 C.2    10  ALA10       0.2592
     15  O         -0.6280  -59.7370  -59.8410 O.2    10  ALA10      -0.2718
     16  CB        -0.5920  -58.7630  -62.4660 C.3    10  ALA10       0.0304
     17  N         -1.9100  -61.5180  -60.3570 N.am   11  LYS11      -0.1966
     18  CA        -1.7760  -62.1880  -59.0630 C.3    11  LYS11       0.1728
     19  C         -2.2030  -61.2570  -57.9280 C.2    11  LYS11       0.2616
     20  O         -1.4300  -60.9180  -57.0300 O.2    11  LYS11      -0.2715
     21  CB        -0.3470  -62.6980  -58.8550 C.3    11  LYS11       0.0311
     22  CG        -0.2420  -64.0670  -58.1820 C.3    11  LYS11       0.0038
     23  CD        -0.6450  -64.0310  -56.7120 C.3    11  LYS11       0.0206
     24  CE        -2.0260  -64.6320  -56.4910 C.3    11  LYS11       0.1093
     25  NZ        -2.4360  -64.5750  -55.0610 N.3    11  LYS11      -0.1314
     26  N         -3.4630  -60.8470  -57.9870 N.am   12  ALA12      -0.1963
     27  CA        -4.0340  -59.8810  -57.0600 C.3    12  ALA12       0.1728
     28  C         -5.2430  -60.4850  -56.3540 C.2    12  ALA12       0.2616
     29  O         -5.6760  -61.6020  -56.6540 O.2    12  ALA12      -0.2715
     30  CB        -4.4190  -58.5930  -57.7920 C.3    12  ALA12       0.0334
     31  N         -5.7810  -59.7310  -55.3970 N.am   13  LYS13      -0.1963
     32  CA        -7.0420  -60.0610  -54.7480 C.3    13  LYS13       0.1728
     33  C         -8.2510  -59.5810  -55.5450 C.2    13  LYS13       0.2616
     34  O         -9.3300  -59.3950  -54.9670 O.2    13  LYS13      -0.2715
     35  CB        -7.0810  -59.4740  -53.3340 C.3    13  LYS13       0.0311
     36  CG        -6.0760  -60.0860  -52.3700 C.3    13  LYS13       0.0038
     37  CD        -6.2460  -59.5060  -50.9750 C.3    13  LYS13       0.0206
     38  CE        -5.3460  -60.1980  -49.9660 C.3    13  LYS13       0.1093
     39  NZ        -5.6040  -61.6610  -49.8940 N.3    13  LYS13      -0.1314
     40  N         -8.0890  -59.3730  -56.8520 N.am   14  VAL14      -0.1977
     41  CA        -9.1840  -58.8970  -57.6870 C.3    14  VAL14       0.1596
     42  C        -10.2240  -59.9980  -57.8380 C.2    14  VAL14       0.2287
     43  O         -9.8910  -61.1620  -58.1000 O.2    14  VAL14      -0.2864
     44  CB        -8.6550  -58.4360  -59.0540 C.3    14  VAL14       0.0276
     45  CG1       -9.8040  -58.0430  -59.9690 C.3    14  VAL14       0.0022
     46  CG2       -7.6870  -57.2760  -58.8810 C.3    14  VAL14       0.0022
     47  N        -12.5500  -58.2500  -53.0200 N.3   189  TRP189     -0.1241
     48  CA       -11.8140  -57.0430  -53.3720 C.3   189  TRP189      0.1605
     49  C        -11.9910  -55.9210  -52.3560 C.2   189  TRP189      0.2264
     50  O        -11.1230  -55.0460  -52.2650 O.2   189  TRP189     -0.2867
     51  CB       -12.2390  -56.5490  -54.7570 C.3   189  TRP189      0.0550
     52  CG       -11.5250  -55.3050  -55.1740 C.ar  189  TRP189      0.0003
     53  CD1      -10.2480  -55.2140  -55.6440 C.ar  189  TRP189      0.0946
     54  CD2      -12.0380  -53.9680  -55.1460 C.ar  189  TRP189      0.0152
     55  NE1       -9.9340  -53.9040  -55.9110 N.ar  189  TRP189     -0.2442
     56  CE2      -11.0160  -53.1190  -55.6130 C.ar  189  TRP189      0.0810
     57  CE3      -13.2620  -53.4060  -54.7710 C.ar  189  TRP189      0.0012
     58  CZ2      -11.1830  -51.7410  -55.7250 C.ar  189  TRP189      0.0191
     59  CZ3      -13.4230  -52.0360  -54.8780 C.ar  189  TRP189      0.0001
     60  CH2      -12.3890  -51.2190  -55.3500 C.ar  189  TRP189      0.0015
     61  N        -10.4800  -55.5670  -47.6010 N.3   192  ASN192     -0.1240
     62  CA        -9.0570  -55.4740  -47.2910 C.3   192  ASN192      0.1653
     63  C         -8.7550  -54.0760  -46.7540 C.2   192  ASN192      0.2266
     64  O         -8.1600  -53.2270  -47.4200 O.2   192  ASN192     -0.2867
     65  CB        -8.2250  -55.8020  -48.5270 C.3   192  ASN192      0.1155
     66  CG        -8.6950  -57.0620  -49.2250 C.2   192  ASN192      0.2627
     67  OD1       -8.2890  -58.1690  -48.8740 O.2   192  ASN192     -0.2716
     68  ND2       -9.5580  -56.8980  -50.2220 N.am  192  ASN192     -0.0877
     69  N         -5.0950  -53.3060  -46.6740 N.3   195  SER195     -0.1202
     70  CA        -4.6390  -52.9650  -48.0160 C.3   195  SER195      0.2020
     71  C         -5.2110  -51.6290  -48.4730 C.2   195  SER195      0.2618
     72  O         -4.5020  -50.8150  -49.0810 O.2   195  SER195     -0.2717
     73  CB        -5.0260  -54.0810  -48.9870 C.3   195  SER195      0.2103
     74  OG        -4.7610  -53.7170  -50.3280 O.3   195  SER195     -0.2182
     75  N         -6.4930  -51.3800  -48.1880 N.am  196  MET196     -0.1979
     76  CA        -7.0960  -50.1170  -48.6040 C.3   196  MET196      0.1605
     77  C         -6.4520  -48.9390  -47.8890 C.2   196  MET196      0.2287
     78  O         -6.2530  -47.8800  -48.4910 O.2   196  MET196     -0.2864
     79  CB        -8.6040  -50.1220  -48.3570 C.3   196  MET196      0.0413
     80  CG        -9.3090  -48.9300  -49.0040 C.3   196  MET196      0.0598
     81  SD       -11.0700  -48.7800  -48.6420 S.3   196  MET196     -0.1393
     82  CE       -11.6750  -50.3660  -49.2070 C.3   196  MET196      0.0692
     83  N         -3.0840  -48.2720  -49.4880 N.3   199  HIS199     -0.1241
     84  CA        -3.1920  -47.6250  -50.7920 C.3   199  HIS199      0.1621
     85  C         -3.6820  -46.1860  -50.6710 C.2   199  HIS199      0.2264
     86  O         -3.2520  -45.3140  -51.4350 O.2   199  HIS199     -0.2867
     87  CB        -4.1120  -48.4340  -51.7020 C.3   199  HIS199      0.0745
     88  CG        -3.5620  -49.7750  -52.0690 C.ar  199  HIS199      0.0817
     89  ND1       -3.5250  -50.8310  -51.1850 N.ar  199  HIS199     -0.2268
     90  CD2       -3.0110  -50.2270  -53.2200 C.ar  199  HIS199      0.1154
     91  CE1       -2.9820  -51.8790  -51.7780 C.ar  199  HIS199      0.1986
     92  NE2       -2.6630  -51.5390  -53.0130 N.ar  199  HIS199     -0.2212
     93  N         -0.5320  -43.8210  -51.7860 N.3   203  GLY203     -0.1225
     94  CA        -0.7800  -43.3760  -53.1430 C.3   203  GLY203      0.1811
     95  C         -1.6100  -42.1160  -53.2720 C.2   203  GLY203      0.2280
     96  O         -1.2710  -41.2230  -54.0540 O.2   203  GLY203     -0.2866
     97  N          1.3970  -39.3430  -52.7990 N.3   207  LEU207     -0.1245
     98  CA         1.7750  -38.9670  -54.1550 C.3   207  LEU207      0.1561
     99  C          1.0290  -37.7260  -54.6240 C.2   207  LEU207      0.2260
    100  O          1.5340  -36.9900  -55.4750 O.2   207  LEU207     -0.2867
    101  CB         1.5260  -40.1320  -55.1120 C.3   207  LEU207      0.0270
    102  CG         2.3080  -41.4110  -54.8150 C.3   207  LEU207      0.0019
    103  CD1        1.9570  -42.4960  -55.8180 C.3   207  LEU207      0.0001
    104  CD2        3.8010  -41.1330  -54.8210 C.3   207  LEU207      0.0001
    105  N         -0.5360  -56.8390  -46.2590 N.3   313  THR313     -0.1203
    106  CA        -1.2300  -57.0730  -47.5150 C.3   313  THR313      0.1994
    107  C         -0.9440  -58.4990  -47.9510 C.2   313  THR313      0.2618
    108  O         -1.5500  -59.4420  -47.4240 O.2   313  THR313     -0.2717
    109  CB        -0.8240  -56.0330  -48.5660 C.3   313  THR313      0.1784
    110  OG1        0.5870  -56.1130  -48.8000 O.3   313  THR313     -0.2211
    111  CG2       -1.1840  -54.6310  -48.1010 C.3   313  THR313      0.0376
    112  N         -0.0330  -58.7100  -48.9050 N.am  314  ASN314     -0.1960
    113  CA         0.2290  -60.0340  -49.4490 C.3   314  ASN314      0.1819
    114  C          1.6260  -60.5650  -49.1680 C.2   314  ASN314      0.2621
    115  O          1.8150  -61.7860  -49.2040 O.2   314  ASN314     -0.2715
    116  CB         0.0070  -60.0430  -50.9700 C.3   314  ASN314      0.1195
    117  CG        -1.3830  -59.5890  -51.3580 C.2   314  ASN314      0.2630
    118  OD1       -2.3100  -59.6400  -50.5520 O.2   314  ASN314     -0.2716
    119  ND2       -1.5370  -59.1450  -52.5990 N.am  314  ASN314     -0.0877
    120  N          2.6050  -59.6990  -48.8970 N.am  315  TRP315     -0.1974
    121  CA         3.9840  -60.1260  -48.6950 C.3   315  TRP315      0.1640
    122  C          4.3130  -60.3860  -47.2310 C.2   315  TRP315      0.2290
    123  O          5.4780  -60.2680  -46.8290 O.2   315  TRP315     -0.2864
    124  CB         4.9400  -59.0910  -49.2880 C.3   315  TRP315      0.0576
    125  CG         4.8020  -58.9680  -50.7720 C.ar  315  TRP315      0.0006
    126  CD1        5.4410  -59.7130  -51.7200 C.ar  315  TRP315      0.0946
    127  CD2        3.9580  -58.0560  -51.4820 C.ar  315  TRP315      0.0152
    128  NE1        5.0530  -59.3170  -52.9760 N.ar  315  TRP315     -0.2442
    129  CE2        4.1420  -58.3010  -52.8580 C.ar  315  TRP315      0.0810
    130  CE3        3.0660  -57.0540  -51.0890 C.ar  315  TRP315      0.0012
    131  CZ2        3.4680  -57.5810  -53.8410 C.ar  315  TRP315      0.0191
    132  CZ3        2.3990  -56.3400  -52.0660 C.ar  315  TRP315      0.0001
    133  CH2        2.6020  -56.6070  -53.4260 C.ar  315  TRP315      0.0015
@<TRIPOS>BOND
     1     6     7    1
     2     6     5    1
     3     1     2    1
     4     7     8    1
     5    11     9    1
     6     5     2    1
     7     2     3    1
     8     8     9    2
     9     9    10    1
    10     3     4    2
    11    16    13    1
    12    13    12    1
    13    13    14    1
    14    14    17   am
    15    14    15    2
    16    17    18    1
    17    45    44    1
    18    18    21    1
    19    18    19    1
    20    44    46    1
    21    44    41    1
    22    21    22    1
    23    22    23    1
    24    43    42    2
    25    26    19   am
    26    26    27    1
    27    19    20    2
    28    42    41    1
    29    30    27    1
    30    41    40    1
    31    27    28    1
    32    40    33   am
    33    23    24    1
    34    29    28    2
    35    24    25    1
    36    28    31   am
    37    55    53   ar
    38    55    56   ar
    39   103   102    1
    40    58    56   ar
    41    58    60   ar
    42    53    52   ar
    43    56    54   ar
    44    33    34    2
    45    33    32    1
    46   100    99    2
    47    31    32    1
    48    60    59   ar
    49    52    54   ar
    50    52    51    1
    51    54    57   ar
    52   101   102    1
    53   101    98    1
    54    59    57   ar
    55   104   102    1
    56    51    48    1
    57    32    35    1
    58    99    98    1
    59    98    97    1
    60    96    95    2
    61   131   133   ar
    62   131   129   ar
    63   133   132   ar
    64    48    47    1
    65    48    49    1
    66    35    36    1
    67    95    94    1
    68    90    92   ar
    69    90    88   ar
    70    94    93    1
    71    92    91   ar
    72   128   129   ar
    73   128   126   ar
    74   129   127   ar
    75   119   117   am
    76    36    37    1
    77    49    50    2
    78    88    87    1
    79    88    89   ar
    80   132   130   ar
    81    91    89   ar
    82   126   125   ar
    83    87    84    1
    84   127   130   ar
    85   127   125   ar
    86    86    85    2
    87   117   116    1
    88   117   118    2
    89    37    38    1
    90   116   113    1
    91    84    85    1
    92    84    83    1
    93   125   124    1
    94    74    73    1
    95    68    66   am
    96    38    39    1
    97   113   114    1
    98   113   112    1
    99   124   121    1
   100    66    67    2
   101    66    65    1
   102    82    81    1
   103   115   114    2
   104   114   120   am
   105    72    71    2
   106    80    81    1
   107    80    79    1
   108    73    70    1
   109   112   107   am
   110   120   121    1
   111   110   109    1
   112   121   122    1
   113    76    79    1
   114    76    75    1
   115    76    77    1
   116   109   111    1
   117   109   106    1
   118    65    62    1
   119    78    77    2
   120    71    75   am
   121    71    70    1
   122    70    69    1
   123   107   106    1
   124   107   108    2
   125    61    62    1
   126   106   105    1
   127    64    63    2
   128    62    63    1
   129   122   123    2
