@<TRIPOS>MOLECULE
tmp/6hqbA48.pdb
 194 191 0 0 0
SMALL
GASTEIGER

@<TRIPOS>ATOM
      1  N        -27.2780  -25.6720  -35.8900 N.3   599  TYR599     -0.1227
      2  CA       -27.5280  -24.3520  -36.4600 C.3   599  TYR599      0.1736
      3  C        -27.3660  -23.2570  -35.4150 C.2   599  TYR599      0.2595
      4  O        -26.7460  -22.2240  -35.6810 O.2   599  TYR599     -0.2718
      5  CB       -28.9280  -24.3010  -37.0720 C.3   599  TYR599      0.0548
      6  CG       -29.4070  -22.9030  -37.4070 C.ar  599  TYR599     -0.0200
      7  CD1      -28.9680  -22.2540  -38.5550 C.ar  599  TYR599     -0.0009
      8  CD2      -30.3030  -22.2360  -36.5800 C.ar  599  TYR599     -0.0009
      9  CE1      -29.4020  -20.9790  -38.8670 C.ar  599  TYR599      0.0417
     10  CE2      -30.7430  -20.9610  -36.8840 C.ar  599  TYR599      0.0417
     11  CZ       -30.2890  -20.3380  -38.0300 C.ar  599  TYR599      0.1957
     12  OH       -30.7210  -19.0700  -38.3420 O.3   599  TYR599     -0.2866
     13  N        -27.9170  -23.4680  -34.2190 N.am  600  ASN600     -0.1974
     14  CA       -27.8690  -22.4490  -33.1750 C.3   600  ASN600      0.1688
     15  C        -26.4510  -22.2300  -32.6620 C.2   600  ASN600      0.2292
     16  O        -26.0990  -21.1080  -32.2790 O.2   600  ASN600     -0.2864
     17  CB       -28.8040  -22.8430  -32.0300 C.3   600  ASN600      0.1181
     18  CG       -28.6730  -21.9310  -30.8280 C.2   600  ASN600      0.2629
     19  OD1      -29.1440  -20.7930  -30.8400 O.2   600  ASN600     -0.2716
     20  ND2      -28.0370  -22.4320  -29.7760 N.am  600  ASN600     -0.0877
     21  N        -24.5830  -20.3930  -35.4630 N.3   603  SER603     -0.1202
     22  CA       -25.0880  -19.0290  -35.5750 C.3   603  SER603      0.2020
     23  C        -24.3280  -18.0860  -34.6530 C.2   603  SER603      0.2618
     24  O        -24.0800  -16.9260  -35.0010 O.2   603  SER603     -0.2717
     25  CB       -26.5830  -19.0030  -35.2570 C.3   603  SER603      0.2103
     26  OG       -27.2730  -20.0200  -35.9640 O.3   603  SER603     -0.2182
     27  N        -23.9550  -18.5660  -33.4680 N.am  604  ILE604     -0.1979
     28  CA       -23.1500  -17.7450  -32.5750 C.3   604  ILE604      0.1595
     29  C        -21.6830  -17.7890  -32.9830 C.2   604  ILE604      0.2287
     30  O        -20.9680  -16.7950  -32.8290 O.2   604  ILE604     -0.2864
     31  CB       -23.3520  -18.1850  -31.1150 C.3   604  ILE604      0.0276
     32  CG1      -24.8350  -18.1270  -30.7510 C.3   604  ILE604      0.0022
     33  CG2      -22.5670  -17.2920  -30.1700 C.3   604  ILE604      0.0022
     34  CD1      -25.4570  -16.7620  -30.9620 C.3   604  ILE604      0.0001
     35  N        -21.2230  -15.3370  -35.8820 N.3   607  PHE607     -0.1241
     36  CA       -21.3900  -13.9590  -35.4290 C.3   607  PHE607      0.1605
     37  C        -20.2000  -13.5040  -34.5930 C.2   607  PHE607      0.2264
     38  O        -19.7550  -12.3560  -34.7120 O.2   607  PHE607     -0.2867
     39  CB       -22.6880  -13.8150  -34.6380 C.3   607  PHE607      0.0534
     40  CG       -23.9240  -13.8850  -35.4830 C.ar  607  PHE607     -0.0203
     41  CD1      -23.8370  -13.8650  -36.8650 C.ar  607  PHE607     -0.0042
     42  CD2      -25.1750  -13.9620  -34.8960 C.ar  607  PHE607     -0.0042
     43  CE1      -24.9750  -13.9280  -37.6460 C.ar  607  PHE607     -0.0003
     44  CE2      -26.3180  -14.0250  -35.6710 C.ar  607  PHE607     -0.0003
     45  CZ       -26.2170  -14.0080  -37.0480 C.ar  607  PHE607     -0.0000
     46  N        -26.4290   -8.7890  -24.4480 N.3   642  ILE642     -0.1245
     47  CA       -27.3140   -9.1900  -25.5380 C.3   642  ILE642      0.1561
     48  C        -27.7980   -7.9730  -26.3100 C.2   642  ILE642      0.2260
     49  O        -27.9790   -8.0340  -27.5330 O.2   642  ILE642     -0.2867
     50  CB       -28.4930  -10.0240  -24.9950 C.3   642  ILE642      0.0252
     51  CG1      -27.9790  -11.2230  -24.1950 C.3   642  ILE642      0.0019
     52  CG2      -29.3830  -10.5000  -26.1300 C.3   642  ILE642      0.0019
     53  CD1      -27.0890  -12.1500  -24.9910 C.3   642  ILE642      0.0001
     54  N        -25.2610   -7.0460  -28.9960 N.3   645  TRP645     -0.1227
     55  CA       -25.3960   -7.8180  -30.2250 C.3   645  TRP645      0.1737
     56  C        -26.6740   -7.4650  -30.9730 C.2   645  TRP645      0.2595
     57  O        -26.7100   -7.5460  -32.2060 O.2   645  TRP645     -0.2718
     58  CB       -25.3570   -9.3120  -29.9100 C.3   645  TRP645      0.0564
     59  CG       -24.0100   -9.7930  -29.4670 C.ar  645  TRP645      0.0003
     60  CD1      -23.4430   -9.6300  -28.2370 C.ar  645  TRP645      0.0946
     61  CD2      -23.0590  -10.5240  -30.2530 C.ar  645  TRP645      0.0152
     62  NE1      -22.1980  -10.2110  -28.2090 N.ar  645  TRP645     -0.2442
     63  CE2      -21.9390  -10.7670  -29.4340 C.ar  645  TRP645      0.0810
     64  CE3      -23.0470  -10.9950  -31.5700 C.ar  645  TRP645      0.0012
     65  CZ2      -20.8190  -11.4610  -29.8890 C.ar  645  TRP645      0.0191
     66  CZ3      -21.9330  -11.6830  -32.0190 C.ar  645  TRP645      0.0001
     67  CH2      -20.8350  -11.9090  -31.1810 C.ar  645  TRP645      0.0015
     68  N        -27.7270   -7.0730  -30.2530 N.am  646  LEU646     -0.1980
     69  CA       -28.9820   -6.7230  -30.9110 C.3   646  LEU646      0.1596
     70  C        -28.8680   -5.3970  -31.6550 C.2   646  LEU646      0.2287
     71  O        -29.4400   -5.2360  -32.7400 O.2   646  LEU646     -0.2864
     72  CB       -30.1120   -6.6610  -29.8840 C.3   646  LEU646      0.0297
     73  CG       -31.5050   -6.3000  -30.4090 C.3   646  LEU646      0.0022
     74  CD1      -32.1430   -7.4830  -31.1280 C.3   646  LEU646      0.0001
     75  CD2      -32.4020   -5.7870  -29.2880 C.3   646  LEU646      0.0001
     76  N        -24.4380   -4.9310  -33.3850 N.3   649  PHE649     -0.1227
     77  CA       -24.0820   -5.9880  -34.3240 C.3   649  PHE649      0.1736
     78  C        -25.1660   -6.2050  -35.3740 C.2   649  PHE649      0.2595
     79  O        -24.9250   -6.0050  -36.5670 O.2   649  PHE649     -0.2718
     80  CB       -23.7930   -7.2990  -33.5840 C.3   649  PHE649      0.0547
     81  CG       -23.4500   -8.4360  -34.5000 C.ar  649  PHE649     -0.0202
     82  CD1      -22.2420   -8.4540  -35.1770 C.ar  649  PHE649     -0.0042
     83  CD2      -24.3370   -9.4820  -34.6940 C.ar  649  PHE649     -0.0042
     84  CE1      -21.9210   -9.4980  -36.0260 C.ar  649  PHE649     -0.0003
     85  CE2      -24.0240  -10.5290  -35.5420 C.ar  649  PHE649     -0.0003
     86  CZ       -22.8140  -10.5370  -36.2090 C.ar  649  PHE649     -0.0000
     87  N        -26.3600   -6.6150  -34.9530 N.am  650  LEU650     -0.1966
     88  CA       -27.4370   -6.8600  -35.9040 C.3   650  LEU650      0.1728
     89  C        -27.9620   -5.5560  -36.4920 C.2   650  LEU650      0.2616
     90  O        -27.7520   -5.2800  -37.6760 O.2   650  LEU650     -0.2715
     91  CB       -28.5760   -7.6390  -35.2430 C.3   650  LEU650      0.0311
     92  CG       -28.2910   -9.0980  -34.8850 C.3   650  LEU650      0.0022
     93  CD1      -29.5820   -9.8120  -34.5170 C.3   650  LEU650      0.0001
     94  CD2      -27.5810   -9.8130  -36.0260 C.3   650  LEU650      0.0001
     95  N        -28.6370   -4.7480  -35.6670 N.am  651  TRP651     -0.1974
     96  CA       -29.2650   -3.5260  -36.1640 C.3   651  TRP651      0.1640
     97  C        -28.2630   -2.6270  -36.8760 C.2   651  TRP651      0.2290
     98  O        -28.5930   -2.0000  -37.8900 O.2   651  TRP651     -0.2864
     99  CB       -29.9270   -2.7700  -35.0120 C.3   651  TRP651      0.0576
    100  CG       -30.6060   -1.4960  -35.4380 C.ar  651  TRP651      0.0006
    101  CD1      -31.9180   -1.3430  -35.7810 C.ar  651  TRP651      0.0946
    102  CD2      -30.0070   -0.2000  -35.5650 C.ar  651  TRP651      0.0152
    103  NE1      -32.1740   -0.0350  -36.1130 N.ar  651  TRP651     -0.2442
    104  CE2      -31.0170    0.6870  -35.9900 C.ar  651  TRP651      0.0810
    105  CE3      -28.7160    0.2960  -35.3620 C.ar  651  TRP651      0.0012
    106  CZ2      -30.7770    2.0400  -36.2150 C.ar  651  TRP651      0.0191
    107  CZ3      -28.4790    1.6390  -35.5870 C.ar  651  TRP651      0.0001
    108  CH2      -29.5050    2.4960  -36.0080 C.ar  651  TRP651      0.0015
    109  N        -26.8530   -4.5970  -40.1970 N.3   654  ALA654     -0.1245
    110  CA       -27.8730   -5.0140  -41.1530 C.3   654  ALA654      0.1562
    111  C        -28.3100   -3.8890  -42.0790 C.2   654  ALA654      0.2260
    112  O        -29.0610   -4.1460  -43.0260 O.2   654  ALA654     -0.2867
    113  CB       -29.0990   -5.5660  -40.4230 C.3   654  ALA654      0.0290
    114  N        -30.7650   -3.8660  -45.9990 N.3   658  ILE658     -0.1245
    115  CA       -32.0800   -3.2810  -46.2480 C.3   658  ILE658      0.1561
    116  C        -31.9750   -2.0720  -47.1670 C.2   658  ILE658      0.2260
    117  O        -32.9050   -1.7830  -47.9310 O.2   658  ILE658     -0.2867
    118  CB       -32.7690   -2.9160  -44.9200 C.3   658  ILE658      0.0252
    119  CG1      -31.8240   -2.0970  -44.0410 C.3   658  ILE658      0.0019
    120  CG2      -33.2460   -4.1680  -44.1960 C.3   658  ILE658      0.0019
    121  CD1      -32.4290   -1.6890  -42.7340 C.3   658  ILE658      0.0001
    122  N        -32.4080  -11.7330  -48.2840 N.3   672  PHE672     -0.1241
    123  CA       -32.5650  -11.5320  -46.8480 C.3   672  PHE672      0.1605
    124  C        -34.0290  -11.6540  -46.4490 C.2   672  PHE672      0.2264
    125  O        -34.3920  -12.4540  -45.5720 O.2   672  PHE672     -0.2867
    126  CB       -31.9990  -10.1590  -46.4790 C.3   672  PHE672      0.0534
    127  CG       -32.0140   -9.8520  -45.0110 C.ar  672  PHE672     -0.0203
    128  CD1      -31.0120  -10.3250  -44.1810 C.ar  672  PHE672     -0.0042
    129  CD2      -33.0070   -9.0510  -44.4680 C.ar  672  PHE672     -0.0042
    130  CE1      -31.0150  -10.0290  -42.8320 C.ar  672  PHE672     -0.0003
    131  CE2      -33.0150   -8.7520  -43.1200 C.ar  672  PHE672     -0.0003
    132  CZ       -32.0180   -9.2400  -42.3010 C.ar  672  PHE672     -0.0000
    133  N        -36.0530  -14.6420  -44.3910 N.3   676  HIS676     -0.1241
    134  CA       -37.0190  -14.3120  -43.3460 C.3   676  HIS676      0.1621
    135  C        -38.3770  -14.9450  -43.6240 C.2   676  HIS676      0.2264
    136  O        -39.0940  -15.3220  -42.6900 O.2   676  HIS676     -0.2867
    137  CB       -37.1610  -12.7960  -43.2140 C.3   676  HIS676      0.0745
    138  CG       -36.1760  -12.1790  -42.2720 C.ar  676  HIS676      0.0817
    139  ND1      -34.8190  -12.1620  -42.5160 N.ar  676  HIS676     -0.2268
    140  CD2      -36.3500  -11.5640  -41.0790 C.ar  676  HIS676      0.1154
    141  CE1      -34.2020  -11.5590  -41.5160 C.ar  676  HIS676      0.1986
    142  NE2      -35.1080  -11.1870  -40.6310 N.ar  676  HIS676     -0.2212
    143  N        -38.0170  -19.0000  -43.1610 N.3   679  PHE679     -0.1241
    144  CA       -37.9380  -19.3040  -41.7370 C.3   679  PHE679      0.1605
    145  C        -39.3250  -19.4290  -41.1270 C.2   679  PHE679      0.2264
    146  O        -39.6420  -20.4230  -40.4650 O.2   679  PHE679     -0.2867
    147  CB       -37.1430  -18.2190  -41.0100 C.3   679  PHE679      0.0534
    148  CG       -37.5090  -18.0750  -39.5580 C.ar  679  PHE679     -0.0203
    149  CD1      -36.9520  -18.9110  -38.6020 C.ar  679  PHE679     -0.0042
    150  CD2      -38.4150  -17.1060  -39.1460 C.ar  679  PHE679     -0.0042
    151  CE1      -37.2890  -18.7810  -37.2650 C.ar  679  PHE679     -0.0003
    152  CE2      -38.7530  -16.9750  -37.8110 C.ar  679  PHE679     -0.0003
    153  CZ       -38.1890  -17.8140  -36.8700 C.ar  679  PHE679     -0.0000
    154  N        -36.6610  -24.4330  -42.0790 N.3   731  TYR731     -0.1241
    155  CA       -36.0520  -23.6280  -41.0270 C.3   731  TYR731      0.1605
    156  C        -34.5940  -23.3300  -41.3550 C.2   731  TYR731      0.2264
    157  O        -34.1720  -22.1640  -41.4100 O.2   731  TYR731     -0.2867
    158  CB       -36.1730  -24.3650  -39.6910 C.3   731  TYR731      0.0534
    159  CG       -35.9180  -23.5230  -38.4630 C.ar  731  TYR731     -0.0201
    160  CD1      -36.9540  -22.8410  -37.8400 C.ar  731  TYR731     -0.0009
    161  CD2      -34.6470  -23.4280  -37.9130 C.ar  731  TYR731     -0.0009
    162  CE1      -36.7310  -22.0770  -36.7080 C.ar  731  TYR731      0.0417
    163  CE2      -34.4120  -22.6650  -36.7800 C.ar  731  TYR731      0.0417
    164  CZ       -35.4580  -21.9910  -36.1820 C.ar  731  TYR731      0.1957
    165  OH       -35.2320  -21.2290  -35.0560 O.3   731  TYR731     -0.2866
    166  N        -33.0530  -19.6360  -42.5400 N.3   735  GLY735     -0.1225
    167  CA       -32.0400  -19.0310  -41.6880 C.3   735  GLY735      0.1811
    168  C        -30.7160  -18.8450  -42.4030 C.2   735  GLY735      0.2280
    169  O        -30.1030  -17.7750  -42.3440 O.2   735  GLY735     -0.2866
    170  N        -30.9470  -16.1130  -45.0490 N.3   738  THR738     -0.1203
    171  CA       -30.9020  -14.8060  -44.4020 C.3   738  THR738      0.1994
    172  C        -29.4760  -14.4340  -44.0180 C.2   738  THR738      0.2618
    173  O        -29.0010  -13.3360  -44.3340 O.2   738  THR738     -0.2717
    174  CB       -31.8010  -14.7950  -43.1660 C.3   738  THR738      0.1784
    175  OG1      -33.1690  -14.9530  -43.5560 O.3   738  THR738     -0.2211
    176  CG2      -31.6380  -13.4890  -42.4100 C.3   738  THR738      0.0376
    177  N        -28.7750  -15.3450  -43.3350 N.am  739  THR739     -0.1952
    178  CA       -27.4260  -15.0330  -42.8720 C.3   739  THR739      0.1897
    179  C        -26.4580  -14.8950  -44.0420 C.2   739  THR739      0.2313
    180  O        -25.5570  -14.0540  -44.0060 O.2   739  THR739     -0.2863
    181  CB       -26.9370  -16.0990  -41.8900 C.3   739  THR739      0.1794
    182  OG1      -27.7700  -16.0890  -40.7280 O.3   739  THR739     -0.2208
    183  CG2      -25.5080  -15.8180  -41.4610 C.3   739  THR739      0.0378
    184  N        -27.1620  -11.4760  -45.6160 N.3   742  PHE742     -0.1241
    185  CA       -26.7000  -10.4420  -44.6960 C.3   742  PHE742      0.1605
    186  C        -25.1790  -10.3490  -44.6860 C.2   742  PHE742      0.2264
    187  O        -24.6120   -9.2570  -44.8070 O.2   742  PHE742     -0.2867
    188  CB       -27.2440  -10.7270  -43.2950 C.3   742  PHE742      0.0534
    189  CG       -26.4490  -10.0920  -42.1880 C.ar  742  PHE742     -0.0203
    190  CD1      -26.3480   -8.7130  -42.0850 C.ar  742  PHE742     -0.0042
    191  CD2      -25.8210  -10.8780  -41.2350 C.ar  742  PHE742     -0.0042
    192  CE1      -25.6200   -8.1300  -41.0610 C.ar  742  PHE742     -0.0003
    193  CE2      -25.0940  -10.3030  -40.2080 C.ar  742  PHE742     -0.0003
    194  CZ       -24.9940   -8.9270  -40.1210 C.ar  742  PHE742     -0.0000
@<TRIPOS>BOND
     1   122   123    1
     2   117   116    2
     3   116   115    1
     4   123   126    1
     5   123   124    1
     6   126   127    1
     7   124   125    2
     8   115   114    1
     9   115   118    1
    10   184   185    1
    11   170   171    1
    12   127   129   ar
    13   127   128   ar
    14   118   120    1
    15   118   119    1
    16   187   186    2
    17   185   186    1
    18   185   188    1
    19   129   131   ar
    20   171   172    1
    21   171   174    1
    22   133   134    1
    23   173   172    2
    24   128   130   ar
    25   179   180    2
    26   179   178    1
    27   119   121    1
    28   172   177   am
    29   135   134    1
    30   135   136    2
    31   175   174    1
    32   134   137    1
    33   177   178    1
    34   188   189    1
    35   137   138    1
    36   174   176    1
    37   143   144    1
    38   131   132   ar
    39   112   111    2
    40   178   181    1
    41   130   132   ar
    42   166   167    1
    43   139   138   ar
    44   139   141   ar
    45   168   169    2
    46   168   167    1
    47   138   140   ar
    48   189   190   ar
    49   189   191   ar
    50   190   192   ar
    51   111   110    1
    52   154   155    1
    53   181   183    1
    54   181   182    1
    55   144   145    1
    56   144   147    1
    57   141   142   ar
    58   157   156    2
    59   156   155    1
    60   191   193   ar
    61   110   113    1
    62   110   109    1
    63   145   146    2
    64   140   142   ar
    65   192   194   ar
    66   155   158    1
    67   147   148    1
    68   193   194   ar
    69   158   159    1
    70   148   150   ar
    71   148   149   ar
    72   150   152   ar
    73     9     7   ar
    74     9    11   ar
    75   149   151   ar
    76     7     6   ar
    77   159   161   ar
    78   159   160   ar
    79    12    11    1
    80    11    10   ar
    81   161   163   ar
    82    98    97    2
    83   160   162   ar
    84   152   153   ar
    85    90    89    2
    86    43    45   ar
    87    43    41   ar
    88     6     5    1
    89     6     8   ar
    90   151   153   ar
    91     5     2    1
    92    45    44   ar
    93    10     8   ar
    94    97    96    1
    95    41    40   ar
    96   163   164   ar
    97   162   164   ar
    98    79    78    2
    99    89    88    1
   100    89    95   am
   101     2     1    1
   102     2     3    1
   103   106   108   ar
   104   106   104   ar
   105    86    84   ar
   106    86    85   ar
   107   164   165    1
   108    96    95    1
   109    96    99    1
   110   103   104   ar
   111   103   101   ar
   112    94    92    1
   113    84    82   ar
   114   108   107   ar
   115   104   102   ar
   116    26    25    1
   117    88    91    1
   118    88    87    1
   119    35    36    1
   120   101   100   ar
   121     4     3    2
   122    44    42   ar
   123   107   105   ar
   124    22    21    1
   125    22    25    1
   126    22    23    1
   127   102   100   ar
   128   102   105   ar
   129    85    83   ar
   130    40    42   ar
   131    40    39    1
   132   100    99    1
   133    36    39    1
   134    36    37    1
   135     3    13   am
   136    78    87   am
   137    78    77    1
   138    91    92    1
   139    82    81   ar
   140    24    23    2
   141    92    93    1
   142    38    37    2
   143    83    81   ar
   144    23    27   am
   145    81    80    1
   146    77    80    1
   147    77    76    1
   148    13    14    1
   149    27    28    1
   150    14    15    1
   151    14    17    1
   152    29    30    2
   153    29    28    1
   154    71    70    2
   155    15    16    2
   156    28    31    1
   157    57    56    2
   158    17    18    1
   159    66    64   ar
   160    66    67   ar
   161    70    69    1
   162    64    61   ar
   163    67    65   ar
   164    74    73    1
   165    31    32    1
   166    31    33    1
   167    56    68   am
   168    56    55    1
   169    34    32    1
   170    69    68    1
   171    69    72    1
   172    19    18    2
   173    18    20   am
   174    73    72    1
   175    73    75    1
   176    61    59   ar
   177    61    63   ar
   178    55    58    1
   179    55    54    1
   180    58    59    1
   181    65    63   ar
   182    59    60   ar
   183    63    62   ar
   184    60    62   ar
   185    49    48    2
   186    48    47    1
   187    52    50    1
   188    47    50    1
   189    47    46    1
   190    50    51    1
   191    53    51    1
