@<TRIPOS>MOLECULE
tmp/6hqbA51.pdb
 158 156 0 0 0
SMALL
GASTEIGER

@<TRIPOS>ATOM
      1  N        -36.3420  -47.4950  -66.0860 N.3    28  TRP28      -0.1241
      2  CA       -36.3830  -46.0460  -65.9260 C.3    28  TRP28       0.1605
      3  C        -37.8180  -45.5380  -65.8940 C.2    28  TRP28       0.2264
      4  O        -38.1420  -44.6210  -65.1310 O.2    28  TRP28      -0.2867
      5  CB       -35.6010  -45.3670  -67.0480 C.3    28  TRP28       0.0550
      6  CG       -34.1150  -45.5460  -66.9530 C.ar   28  TRP28       0.0003
      7  CD1      -33.4460  -46.6310  -66.4650 C.ar   28  TRP28       0.0946
      8  CD2      -33.1130  -44.6010  -67.3460 C.ar   28  TRP28       0.0152
      9  NE1      -32.0910  -46.4220  -66.5350 N.ar   28  TRP28      -0.2442
     10  CE2      -31.8600  -45.1830  -67.0730 C.ar   28  TRP28       0.0810
     11  CE3      -33.1530  -43.3200  -67.9060 C.ar   28  TRP28       0.0012
     12  CZ2      -30.6580  -44.5300  -67.3400 C.ar   28  TRP28       0.0191
     13  CZ3      -31.9600  -42.6730  -68.1700 C.ar   28  TRP28       0.0001
     14  CH2      -30.7290  -43.2780  -67.8870 C.ar   28  TRP28       0.0015
     15  N        -40.9910  -45.9780  -61.7500 N.3    31  PRO31      -0.2102
     16  CA       -40.4860  -45.3340  -60.5340 C.3    31  PRO31       0.1504
     17  C        -40.7920  -46.1590  -59.2960 C.2    31  PRO31       0.2576
     18  O        -41.8220  -46.8310  -59.2040 O.2    31  PRO31      -0.2718
     19  CB       -41.2330  -43.9970  -60.5090 C.3    31  PRO31       0.0282
     20  CG       -42.5060  -44.2800  -61.2330 C.3    31  PRO31       0.0208
     21  CD       -42.1600  -45.2760  -62.3070 C.3    31  PRO31       0.0893
     22  N        -39.8750  -46.0980  -58.3330 N.am   32  GLY32      -0.1943
     23  CA       -40.0450  -46.8410  -57.1000 C.3    32  GLY32       0.2014
     24  C        -39.9060  -48.3370  -57.2400 C.2    32  GLY32       0.2639
     25  O        -40.4040  -49.0790  -56.3890 O.2    32  GLY32      -0.2714
     26  N        -39.2390  -48.8070  -58.2970 N.am   33  HIS33      -0.1959
     27  CA       -39.0810  -50.2440  -58.4910 C.3    33  HIS33       0.1787
     28  C        -38.1070  -50.8460  -57.4880 C.2    33  HIS33       0.2620
     29  O        -38.1890  -52.0430  -57.1920 O.2    33  HIS33      -0.2715
     30  CB       -38.6070  -50.5290  -59.9160 C.3    33  HIS33       0.0785
     31  CG       -37.2250  -50.0320  -60.1980 C.ar   33  HIS33       0.0821
     32  ND1      -36.0950  -50.7510  -59.8740 N.ar   33  HIS33      -0.2267
     33  CD2      -36.7900  -48.8820  -60.7650 C.ar   33  HIS33       0.1154
     34  CE1      -35.0230  -50.0680  -60.2350 C.ar   33  HIS33       0.1986
     35  NE2      -35.4180  -48.9310  -60.7780 N.ar   33  HIS33      -0.2212
     36  N        -37.1820  -50.0410  -56.9600 N.am   34  PHE34      -0.1974
     37  CA       -36.1950  -50.5540  -56.0170 C.3    34  PHE34       0.1639
     38  C        -36.8210  -51.0100  -54.7050 C.2    34  PHE34       0.2290
     39  O        -36.1830  -51.7570  -53.9560 O.2    34  PHE34      -0.2864
     40  CB       -35.1240  -49.4940  -55.7450 C.3    34  PHE34       0.0560
     41  CG       -35.6780  -48.1340  -55.4210 C.ar   34  PHE34      -0.0200
     42  CD1      -36.0960  -47.8270  -54.1360 C.ar   34  PHE34      -0.0042
     43  CD2      -35.7700  -47.1580  -56.3990 C.ar   34  PHE34      -0.0042
     44  CE1      -36.6040  -46.5770  -53.8360 C.ar   34  PHE34      -0.0003
     45  CE2      -36.2770  -45.9050  -56.1050 C.ar   34  PHE34      -0.0003
     46  CZ       -36.6940  -45.6140  -54.8220 C.ar   34  PHE34      -0.0000
     47  N        -41.2700  -42.3780  -52.0280 N.3    51  LEU51      -0.1231
     48  CA       -40.3680  -42.7460  -53.1140 C.3    51  LEU51       0.1693
     49  C        -39.0220  -42.0470  -52.9690 C.2    51  LEU51       0.2592
     50  O        -37.9690  -42.6720  -53.1400 O.2    51  LEU51      -0.2718
     51  CB       -41.0070  -42.4120  -54.4630 C.3    51  LEU51       0.0284
     52  CG       -40.1770  -42.6850  -55.7190 C.3    51  LEU51       0.0019
     53  CD1      -41.0700  -43.2310  -56.8130 C.3    51  LEU51       0.0001
     54  CD2      -39.4660  -41.4260  -56.2000 C.3    51  LEU51       0.0001
     55  N        -39.0350  -40.7510  -52.6500 N.am   52  HIS52      -0.1976
     56  CA       -37.7850  -40.0170  -52.5070 C.3    52  HIS52       0.1656
     57  C        -37.1460  -40.2430  -51.1430 C.2    52  HIS52       0.2291
     58  O        -35.9160  -40.2300  -51.0290 O.2    52  HIS52      -0.2864
     59  CB       -38.0220  -38.5250  -52.7350 C.3    52  HIS52       0.0771
     60  CG       -38.6990  -38.2100  -54.0320 C.ar   52  HIS52       0.0820
     61  ND1      -40.0540  -38.3720  -54.2240 N.ar   52  HIS52      -0.2267
     62  CD2      -38.2070  -37.7400  -55.2030 C.ar   52  HIS52       0.1154
     63  CE1      -40.3680  -38.0150  -55.4570 C.ar   52  HIS52       0.1986
     64  NE2      -39.2660  -37.6280  -56.0720 N.ar   52  HIS52      -0.2212
     65  N        -34.9420  -43.3820  -51.6160 N.3    55  ALA55      -0.1231
     66  CA       -34.3040  -43.5930  -52.9110 C.3    55  ALA55       0.1694
     67  C        -32.8930  -44.1520  -52.7570 C.2    55  ALA55       0.2592
     68  O        -32.4660  -44.9990  -53.5490 O.2    55  ALA55      -0.2718
     69  CB       -34.2820  -42.2870  -53.7040 C.3    55  ALA55       0.0304
     70  N        -32.1560  -43.6950  -51.7440 N.am   56  HIS56      -0.1976
     71  CA       -30.7770  -44.1180  -51.5470 C.3    56  HIS56       0.1656
     72  C        -30.6050  -45.0960  -50.3910 C.2    56  HIS56       0.2291
     73  O        -29.4960  -45.6010  -50.1920 O.2    56  HIS56      -0.2864
     74  CB       -29.8730  -42.9020  -51.3160 C.3    56  HIS56       0.0771
     75  CG       -29.6540  -42.0700  -52.5430 C.ar   56  HIS56       0.0820
     76  ND1      -29.0070  -40.8530  -52.5120 N.ar   56  HIS56      -0.2267
     77  CD2      -29.9900  -42.2840  -53.8380 C.ar   56  HIS56       0.1154
     78  CE1      -28.9580  -40.3510  -53.7340 C.ar   56  HIS56       0.1986
     79  NE2      -29.5460  -41.2000  -54.5570 N.ar   56  HIS56      -0.2212
     80  N        -30.3050  -48.2760  -49.2390 N.3    58  PHE58      -0.1241
     81  CA       -30.1100  -49.5690  -49.8830 C.3    58  PHE58       0.1605
     82  C        -30.3490  -50.7490  -48.9500 C.2    58  PHE58       0.2264
     83  O        -30.4690  -51.8800  -49.4340 O.2    58  PHE58      -0.2867
     84  CB       -28.6960  -49.6590  -50.4680 C.3    58  PHE58       0.0534
     85  CG       -28.4170  -48.6480  -51.5470 C.ar   58  PHE58      -0.0203
     86  CD1      -29.4530  -48.0610  -52.2570 C.ar   58  PHE58      -0.0042
     87  CD2      -27.1160  -48.2840  -51.8530 C.ar   58  PHE58      -0.0042
     88  CE1      -29.1960  -47.1280  -53.2480 C.ar   58  PHE58      -0.0003
     89  CE2      -26.8530  -47.3530  -52.8440 C.ar   58  PHE58      -0.0003
     90  CZ       -27.8940  -46.7750  -53.5420 C.ar   58  PHE58      -0.0000
     91  N        -33.9820  -51.7470  -49.3560 N.3    61  GLN61      -0.1245
     92  CA       -34.1500  -52.3100  -50.6900 C.3    61  GLN61       0.1566
     93  C        -33.7480  -53.7790  -50.7020 C.2    61  GLN61       0.2260
     94  O        -34.6060  -54.6630  -50.7940 O.2    61  GLN61      -0.2867
     95  CB       -33.3290  -51.5260  -51.7160 C.3    61  GLN61       0.0367
     96  CG       -33.7330  -50.0700  -51.8570 C.3    61  GLN61       0.0905
     97  CD       -32.9370  -49.3470  -52.9250 C.2    61  GLN61       0.2608
     98  OE1      -32.2320  -49.9720  -53.7170 O.2    61  GLN61      -0.2717
     99  NE2      -33.0460  -48.0240  -52.9520 N.am   61  GLN61      -0.0878
    100  N        -23.3730  -51.1150  -55.3450 N.3    71  LYS71      -0.1245
    101  CA       -24.1490  -49.8990  -55.5750 C.3    71  LYS71       0.1561
    102  C        -23.3970  -48.6640  -55.0880 C.2    71  LYS71       0.2260
    103  O        -23.3590  -47.6370  -55.7790 O.2    71  LYS71      -0.2867
    104  CB       -25.5090  -49.9990  -54.8830 C.3    71  LYS71       0.0271
    105  CG       -26.4470  -51.0430  -55.4650 C.3    71  LYS71       0.0035
    106  CD       -27.8450  -50.9060  -54.8800 C.3    71  LYS71       0.0206
    107  CE       -28.8110  -51.8950  -55.5110 C.3    71  LYS71       0.1093
    108  NZ       -30.2160  -51.6500  -55.0840 N.3    71  LYS71      -0.1314
    109  N        -20.3590  -47.3820  -57.4460 N.3    74  SER74      -0.1202
    110  CA       -20.8220  -46.6210  -58.6000 C.3    74  SER74       0.2020
    111  C        -21.4900  -45.3160  -58.1850 C.2    74  SER74       0.2618
    112  O        -21.4250  -44.3290  -58.9260 O.2    74  SER74      -0.2717
    113  CB       -21.7780  -47.4710  -59.4350 C.3    74  SER74       0.2103
    114  OG       -21.1120  -48.6070  -59.9580 O.3    74  SER74      -0.2182
    115  N        -22.1290  -45.2840  -57.0110 N.am   75  ALA75      -0.1979
    116  CA       -22.6900  -44.0290  -56.5210 C.3    75  ALA75       0.1597
    117  C        -21.5940  -42.9980  -56.2780 C.2    75  ALA75       0.2287
    118  O        -21.7500  -41.8180  -56.6170 O.2    75  ALA75      -0.2864
    119  CB       -23.4900  -44.2760  -55.2430 C.3    75  ALA75       0.0319
    120  N        -20.4670  -41.6840  -59.6080 N.3    78  GLY78      -0.1210
    121  CA       -21.3990  -40.6870  -60.1100 C.3    78  GLY78       0.1956
    122  C        -21.2640  -39.3540  -59.3980 C.2    78  GLY78       0.2611
    123  O        -21.3510  -38.2910  -60.0220 O.2    78  GLY78      -0.2717
    124  N        -21.0500  -39.3910  -58.0800 N.am   79  HIS79      -0.1975
    125  CA       -20.8310  -38.1520  -57.3420 C.3    79  HIS79       0.1656
    126  C        -19.5790  -37.4370  -57.8320 C.2    79  HIS79       0.2291
    127  O        -19.5590  -36.2060  -57.9450 O.2    79  HIS79      -0.2864
    128  CB       -20.7290  -38.4290  -55.8430 C.3    79  HIS79       0.0771
    129  CG       -20.3720  -37.2180  -55.0360 C.ar   79  HIS79       0.0820
    130  ND1      -19.0680  -36.8280  -54.8170 N.ar   79  HIS79      -0.2267
    131  CD2      -21.1490  -36.3020  -54.4130 C.ar   79  HIS79       0.1154
    132  CE1      -19.0570  -35.7260  -54.0890 C.ar   79  HIS79       0.1986
    133  NE2      -20.3070  -35.3870  -53.8280 N.ar   79  HIS79      -0.2212
    134  N        -20.3860  -35.6910  -60.9960 N.3    82  VAL82      -0.1245
    135  CA       -21.1010  -34.4540  -60.6730 C.3    82  VAL82       0.1561
    136  C        -20.1200  -33.3610  -60.2600 C.2    82  VAL82       0.2260
    137  O        -20.2020  -32.2100  -60.7160 O.2    82  VAL82      -0.2867
    138  CB       -22.1390  -34.7140  -59.5660 C.3    82  VAL82       0.0252
    139  CG1      -22.7860  -33.4140  -59.1260 C.3    82  VAL82       0.0019
    140  CG2      -23.1880  -35.7060  -60.0330 C.3    82  VAL82       0.0019
    141  N        -18.2140  -40.9140  -64.5610 N.3   173  LEU173     -0.1245
    142  CA       -19.5310  -41.4170  -64.9290 C.3   173  LEU173      0.1561
    143  C        -19.4270  -42.7710  -65.6190 C.2   173  LEU173      0.2260
    144  O        -20.2340  -43.6710  -65.3640 O.2   173  LEU173     -0.2867
    145  CB       -20.2380  -40.4020  -65.8280 C.3   173  LEU173      0.0270
    146  CG       -21.7110  -40.6440  -66.1520 C.3   173  LEU173      0.0019
    147  CD1      -22.5440  -40.6070  -64.8830 C.3   173  LEU173      0.0001
    148  CD2      -22.2080  -39.6160  -67.1530 C.3   173  LEU173      0.0001
    149  N        -22.2610  -52.7810  -64.1090 N.3   181  HIS181     -0.1241
    150  CA       -22.9240  -53.3850  -65.2540 C.3   181  HIS181      0.1621
    151  C        -22.0140  -54.2430  -66.1170 C.2   181  HIS181      0.2264
    152  O        -22.5250  -55.0210  -66.9310 O.2   181  HIS181     -0.2867
    153  CB       -23.5630  -52.2990  -66.1350 C.3   181  HIS181      0.0745
    154  CG       -24.5180  -51.4140  -65.3970 C.ar  181  HIS181      0.0817
    155  ND1      -24.1010  -50.4550  -64.4980 N.ar  181  HIS181     -0.2268
    156  CD2      -25.8700  -51.3500  -65.4150 C.ar  181  HIS181      0.1154
    157  CE1      -25.1550  -49.8360  -63.9990 C.ar  181  HIS181      0.1986
    158  NE2      -26.2410  -50.3600  -64.5380 N.ar  181  HIS181     -0.2212
@<TRIPOS>BOND
     1    13    11   ar
     2    13    14   ar
     3    11     8   ar
     4    14    12   ar
     5     8    10   ar
     6     8     6   ar
     7    12    10   ar
     8   148   146    1
     9    10     9   ar
    10     5     6    1
    11     5     2    1
    12     6     7   ar
    13   152   151    2
    14     9     7   ar
    15   146   145    1
    16   146   147    1
    17   153   154    1
    18   153   150    1
    19   151   150    1
    20     1     2    1
    21     2     3    1
    22     3     4    2
    23   145   142    1
    24   143   144    2
    25   143   142    1
    26   156   154   ar
    27   156   158   ar
    28   154   155   ar
    29   150   149    1
    30   142   141    1
    31   158   157   ar
    32   155   157   ar
    33    21    15    1
    34    21    20    1
    35    15    16    1
    36    20    19    1
    37   134   135    1
    38    35    33   ar
    39    35    34   ar
    40    33    31   ar
    41   137   136    2
    42   135   136    1
    43   135   138    1
    44    16    19    1
    45    16    17    1
    46    34    32   ar
    47    31    30    1
    48    31    32   ar
    49   121   120    1
    50   121   122    1
    51   140   138    1
    52   123   122    2
    53   114   113    1
    54    30    27    1
    55   138   139    1
    56   113   110    1
    57   122   124   am
    58    17    18    2
    59    17    22   am
    60   112   111    2
    61   110   111    1
    62   110   109    1
    63    27    26    1
    64    27    28    1
    65    22    23    1
    66    26    24   am
    67   111   115   am
    68   124   125    1
    69   127   126    2
    70   126   125    1
    71    28    29    2
    72    28    36   am
    73   125   128    1
    74    24    23    1
    75    24    25    2
    76   115   116    1
    77    36    37    1
    78    53    52    1
    79   118   117    2
    80   116   117    1
    81   116   119    1
    82    43    45   ar
    83    43    41   ar
    84    54    52    1
    85    45    46   ar
    86    64    63   ar
    87    64    62   ar
    88    37    40    1
    89    37    38    1
    90   128   129    1
    91   103   102    2
    92    40    41    1
    93    52    51    1
    94   101   100    1
    95   101   102    1
    96   101   104    1
    97   107   108    1
    98   107   106    1
    99   105   104    1
   100   105   106    1
   101    63    61   ar
   102    41    42   ar
   103    62    60   ar
   104   129   130   ar
   105   129   131   ar
   106    46    44   ar
   107   130   132   ar
   108    38    39    2
   109    79    77   ar
   110    79    78   ar
   111    51    48    1
   112   131   133   ar
   113    61    60   ar
   114    42    44   ar
   115   132   133   ar
   116    60    59    1
   117    77    75   ar
   118    78    76   ar
   119    98    97    2
   120    69    66    1
   121    68    67    2
   122    90    88   ar
   123    90    89   ar
   124    88    86   ar
   125    50    49    2
   126    48    49    1
   127    48    47    1
   128    49    55   am
   129    99    97   am
   130    97    96    1
   131    66    67    1
   132    66    65    1
   133    89    87   ar
   134    67    70   am
   135    59    56    1
   136    55    56    1
   137    75    76   ar
   138    75    74    1
   139    56    57    1
   140    86    85   ar
   141    96    95    1
   142    87    85   ar
   143    70    71    1
   144    95    92    1
   145    71    74    1
   146    71    72    1
   147    85    84    1
   148    57    58    2
   149    94    93    2
   150    93    92    1
   151    92    91    1
   152    84    81    1
   153    72    73    2
   154    81    80    1
   155    81    82    1
   156    83    82    2
