@<TRIPOS>MOLECULE
tmp/6hqbA05.pdb
 89 86 0 0 0
SMALL
GASTEIGER

@<TRIPOS>ATOM
      1  N         -2.1120  -19.6540  -63.0220 N.3   152  PHE152     -0.1241
      2  CA        -2.9380  -19.3170  -64.1740 C.3   152  PHE152      0.1605
      3  C         -2.7200  -17.8640  -64.5730 C.2   152  PHE152      0.2264
      4  O         -2.7570  -16.9630  -63.7290 O.2   152  PHE152     -0.2867
      5  CB        -4.4140  -19.5670  -63.8670 C.3   152  PHE152      0.0534
      6  CG        -4.7920  -21.0190  -63.8460 C.ar  152  PHE152     -0.0203
      7  CD1       -5.0550  -21.6940  -65.0250 C.ar  152  PHE152     -0.0042
      8  CD2       -4.8880  -21.7080  -62.6490 C.ar  152  PHE152     -0.0042
      9  CE1       -5.4040  -23.0280  -65.0130 C.ar  152  PHE152     -0.0003
     10  CE2       -5.2360  -23.0440  -62.6300 C.ar  152  PHE152     -0.0003
     11  CZ        -5.4950  -23.7050  -63.8140 C.ar  152  PHE152     -0.0000
     12  N         -7.0020  -19.2120  -71.8960 N.3   156  TYR156     -0.1227
     13  CA        -6.9130  -20.5330  -72.5080 C.3   156  TYR156      0.1736
     14  C         -6.5310  -21.5960  -71.4860 C.2   156  TYR156      0.2595
     15  O         -6.9450  -22.7550  -71.6110 O.2   156  TYR156     -0.2718
     16  CB        -5.9080  -20.5040  -73.6600 C.3   156  TYR156      0.0548
     17  CG        -5.8440  -21.7840  -74.4640 C.ar  156  TYR156     -0.0200
     18  CD1       -6.8830  -22.1480  -75.3100 C.ar  156  TYR156     -0.0009
     19  CD2       -4.7370  -22.6190  -74.3880 C.ar  156  TYR156     -0.0009
     20  CE1       -6.8270  -23.3140  -76.0510 C.ar  156  TYR156      0.0417
     21  CE2       -4.6710  -23.7870  -75.1250 C.ar  156  TYR156      0.0417
     22  CZ        -5.7180  -24.1290  -75.9540 C.ar  156  TYR156      0.1957
     23  OH        -5.6570  -25.2910  -76.6900 O.3   156  TYR156     -0.2866
     24  N         -5.7620  -21.2200  -70.4630 N.am  157  GLN157     -0.1979
     25  CA        -5.4150  -22.1640  -69.4060 C.3   157  GLN157      0.1601
     26  C         -6.6570  -22.6150  -68.6460 C.2   157  GLN157      0.2287
     27  O         -6.8680  -23.8150  -68.4290 O.2   157  GLN157     -0.2864
     28  CB        -4.3980  -21.5260  -68.4600 C.3   157  GLN157      0.0394
     29  CG        -3.1060  -21.1020  -69.1390 C.3   157  GLN157      0.0908
     30  CD        -2.2610  -20.1930  -68.2690 C.2   157  GLN157      0.2608
     31  OE1       -2.7840  -19.4570  -67.4320 O.2   157  GLN157     -0.2717
     32  NE2       -0.9480  -20.2400  -68.4610 N.am  157  GLN157     -0.0878
     33  N         -8.7700  -24.9010  -70.9180 N.3   160  CYS160     -0.1221
     34  CA        -8.2850  -26.2760  -70.9470 C.3   160  CYS160      0.1808
     35  C         -8.5170  -26.9810  -69.6170 C.2   160  CYS160      0.2601
     36  O         -8.7520  -28.1940  -69.5950 O.2   160  CYS160     -0.2717
     37  CB        -6.8050  -26.3080  -71.3200 C.3   160  CYS160      0.0970
     38  SG        -6.4890  -25.9310  -73.0540 S.3   160  CYS160     -0.0800
     39  N         -8.4660  -26.2430  -68.5050 N.am  161  THR161     -0.1953
     40  CA        -8.7920  -26.8450  -67.2160 C.3   161  THR161      0.1897
     41  C        -10.2430  -27.3090  -67.1820 C.2   161  THR161      0.2313
     42  O        -10.5430  -28.4030  -66.6910 O.2   161  THR161     -0.2863
     43  CB        -8.5250  -25.8540  -66.0850 C.3   161  THR161      0.1794
     44  OG1       -7.3160  -25.1350  -66.3530 O.3   161  THR161     -0.2208
     45  CG2       -8.3840  -26.5960  -64.7670 C.3   161  THR161      0.0378
     46  N          4.5210  -29.5850  -59.0530 N.3   215  HIS215     -0.1241
     47  CA         3.8690  -28.5370  -59.8310 C.3   215  HIS215      0.1621
     48  C          4.2750  -27.1540  -59.3430 C.2   215  HIS215      0.2264
     49  O          4.6970  -26.3020  -60.1310 O.2   215  HIS215     -0.2867
     50  CB         2.3510  -28.7010  -59.7530 C.3   215  HIS215      0.0745
     51  CG         1.5890  -27.4970  -60.2120 C.ar  215  HIS215      0.0817
     52  ND1        0.9750  -26.6270  -59.3380 N.ar  215  HIS215     -0.2268
     53  CD2        1.3450  -27.0170  -61.4530 C.ar  215  HIS215      0.1154
     54  CE1        0.3840  -25.6640  -60.0220 C.ar  215  HIS215      0.1986
     55  NE2        0.5920  -25.8780  -61.3080 N.ar  215  HIS215     -0.2212
     56  N          6.0540  -19.0270  -69.5900 N.3   238  LEU238     -0.1245
     57  CA         5.1160  -20.1190  -69.3910 C.3   238  LEU238      0.1561
     58  C          5.7260  -21.1940  -68.5010 C.2   238  LEU238      0.2260
     59  O          6.9510  -21.2940  -68.3780 O.2   238  LEU238     -0.2867
     60  CB         4.7170  -20.7130  -70.7400 C.3   238  LEU238      0.0270
     61  CG         4.1340  -19.7150  -71.7430 C.3   238  LEU238      0.0019
     62  CD1        3.7840  -20.4040  -73.0520 C.3   238  LEU238      0.0001
     63  CD2        2.9170  -19.0130  -71.1590 C.3   238  LEU238      0.0001
     64  N          5.9900  -24.4360  -68.9030 N.3   240  HIS240     -0.1241
     65  CA         6.7750  -25.4460  -69.6030 C.3   240  HIS240      0.1621
     66  C          8.0650  -24.8900  -70.1920 C.2   240  HIS240      0.2264
     67  O          8.9790  -25.6680  -70.4920 O.2   240  HIS240     -0.2867
     68  CB         5.9360  -26.1040  -70.7010 C.3   240  HIS240      0.0745
     69  CG         5.2110  -25.1320  -71.5780 C.ar  240  HIS240      0.0817
     70  ND1        5.7990  -24.5320  -72.6700 N.ar  240  HIS240     -0.2268
     71  CD2        3.9430  -24.6590  -71.5260 C.ar  240  HIS240      0.1154
     72  CE1        4.9260  -23.7300  -73.2520 C.ar  240  HIS240      0.1986
     73  NE2        3.7920  -23.7890  -72.5770 N.ar  240  HIS240     -0.2212
     74  N         10.8850  -26.1000  -67.9210 N.3   243  ILE243     -0.1231
     75  CA        11.4440  -27.4360  -68.1030 C.3   243  ILE243      0.1692
     76  C         12.1530  -27.5540  -69.4470 C.2   243  ILE243      0.2591
     77  O         13.1810  -28.2290  -69.5550 O.2   243  ILE243     -0.2718
     78  CB        10.3400  -28.5050  -67.9430 C.3   243  ILE243      0.0266
     79  CG1        9.9020  -28.6200  -66.4790 C.3   243  ILE243      0.0019
     80  CG2       10.8200  -29.8610  -68.4350 C.3   243  ILE243      0.0020
     81  CD1        8.8210  -27.6430  -66.0620 C.3   243  ILE243      0.0001
     82  N         11.6310  -26.8920  -70.4850 N.am  244  LEU244     -0.1980
     83  CA        12.3480  -26.8420  -71.7550 C.3   244  LEU244      0.1596
     84  C         13.7070  -26.1730  -71.6000 C.2   244  LEU244      0.2287
     85  O         14.6370  -26.4690  -72.3590 O.2   244  LEU244     -0.2864
     86  CB        11.5160  -26.1110  -72.8080 C.3   244  LEU244      0.0297
     87  CG        10.3280  -26.8690  -73.3980 C.3   244  LEU244      0.0022
     88  CD1        9.6490  -26.0320  -74.4700 C.3   244  LEU244      0.0001
     89  CD2       10.7800  -28.2070  -73.9610 C.3   244  LEU244      0.0001
@<TRIPOS>BOND
     1    23    22    1
     2    20    22   ar
     3    20    18   ar
     4    22    21   ar
     5    18    17   ar
     6    21    19   ar
     7    88    87    1
     8    17    19   ar
     9    17    16    1
    10    89    87    1
    11    16    13    1
    12    87    86    1
    13    72    70   ar
    14    72    73   ar
    15    38    37    1
    16    62    61    1
    17    86    83    1
    18    70    69   ar
    19    73    71   ar
    20    13    12    1
    21    13    14    1
    22    85    84    2
    23    83    84    1
    24    83    82    1
    25    61    63    1
    26    61    60    1
    27    15    14    2
    28    69    71   ar
    29    69    68    1
    30    14    24   am
    31    37    34    1
    32    34    33    1
    33    34    35    1
    34    60    57    1
    35    68    65    1
    36    67    66    2
    37    82    76   am
    38    24    25    1
    39    66    65    1
    40    35    36    2
    41    35    39   am
    42    65    64    1
    43    56    57    1
    44    77    76    2
    45    76    75    1
    46    25    26    1
    47    25    28    1
    48    57    58    1
    49    29    28    1
    50    29    30    1
    51    26    27    2
    52    39    40    1
    53    58    59    2
    54    32    30   am
    55    80    78    1
    56    30    31    2
    57    75    78    1
    58    75    74    1
    59    78    79    1
    60    40    41    1
    61    40    43    1
    62    41    42    2
    63    79    81    1
    64    44    43    1
    65    43    45    1
    66     7     9   ar
    67     7     6   ar
    68     9    11   ar
    69     3     2    1
    70     3     4    2
    71     2     5    1
    72     2     1    1
    73     5     6    1
    74     6     8   ar
    75    11    10   ar
    76     8    10   ar
    77    53    55   ar
    78    53    51   ar
    79    55    54   ar
    80    51    50    1
    81    51    52   ar
    82    49    48    2
    83    54    52   ar
    84    47    50    1
    85    47    48    1
    86    47    46    1
