@<TRIPOS>MOLECULE
tmp/6hqbA41.pdb
 80 77 0 0 0
SMALL
GASTEIGER

@<TRIPOS>ATOM
      1  N        -32.9190  -11.6300  -50.9960 N.3   671  MET671     -0.1245
      2  CA       -32.7310  -12.9430  -50.3870 C.3   671  MET671      0.1570
      3  C        -32.7730  -12.8760  -48.8650 C.2   671  MET671      0.2261
      4  O        -33.1390  -13.8580  -48.2160 O.2   671  MET671     -0.2867
      5  CB       -31.4160  -13.5640  -50.8570 C.3   671  MET671      0.0387
      6  CG       -31.3390  -13.7430  -52.3610 C.3   671  MET671      0.0595
      7  SD       -32.9190  -14.2760  -53.0440 S.3   671  MET671     -0.1393
      8  CE       -33.0170  -15.9510  -52.4130 C.3   671  MET671      0.0692
      9  N        -34.8930  -10.8810  -47.1110 N.3   673  LEU673     -0.1231
     10  CA       -36.3200  -10.9900  -46.8260 C.3   673  LEU673      0.1693
     11  C        -36.8580  -12.3690  -47.1950 C.2   673  LEU673      0.2592
     12  O        -37.7560  -12.8860  -46.5230 O.2   673  LEU673     -0.2718
     13  CB       -37.0960   -9.8900  -47.5520 C.3   673  LEU673      0.0284
     14  CG       -36.9220   -8.4680  -47.0000 C.3   673  LEU673      0.0019
     15  CD1      -38.0400   -7.5390  -47.4650 C.3   673  LEU673      0.0001
     16  CD2      -36.8260   -8.4750  -45.4800 C.3   673  LEU673      0.0001
     17  N        -36.2950  -12.9960  -48.2290 N.am  674  ALA674     -0.1966
     18  CA       -36.7690  -14.3090  -48.6540 C.3   674  ALA674      0.1728
     19  C        -36.4520  -15.3780  -47.6150 C.2   674  ALA674      0.2616
     20  O        -37.2630  -16.2820  -47.3710 O.2   674  ALA674     -0.2715
     21  CB       -36.1490  -14.6650  -50.0020 C.3   674  ALA674      0.0334
     22  N        -35.2730  -15.2960  -47.0000 N.am  675  GLY675     -0.1955
     23  CA       -34.9540  -16.1980  -45.9090 C.3   675  GLY675      0.1869
     24  C        -35.7940  -15.9240  -44.6790 C.2   675  GLY675      0.2309
     25  O        -36.2090  -16.8550  -43.9800 O.2   675  GLY675     -0.2863
     26  N        -38.7410  -15.0660  -44.9000 N.3   677  PHE677     -0.1227
     27  CA       -40.0000  -15.7050  -45.2710 C.3   677  PHE677      0.1736
     28  C        -39.9540  -17.2080  -45.0240 C.2   677  PHE677      0.2595
     29  O        -40.8610  -17.7730  -44.4010 O.2   677  PHE677     -0.2718
     30  CB       -40.3110  -15.4120  -46.7380 C.3   677  PHE677      0.0547
     31  CG       -41.5640  -16.0660  -47.2390 C.ar  677  PHE677     -0.0202
     32  CD1      -42.8060  -15.5260  -46.9460 C.ar  677  PHE677     -0.0042
     33  CD2      -41.5000  -17.2120  -48.0180 C.ar  677  PHE677     -0.0042
     34  CE1      -43.9640  -16.1230  -47.4130 C.ar  677  PHE677     -0.0003
     35  CE2      -42.6530  -17.8150  -48.4890 C.ar  677  PHE677     -0.0003
     36  CZ       -43.8870  -17.2710  -48.1870 C.ar  677  PHE677     -0.0000
     37  N        -38.9100  -17.8710  -45.5230 N.am  678  VAL678     -0.1980
     38  CA       -38.8440  -19.3290  -45.4380 C.3   678  VAL678      0.1595
     39  C        -38.7270  -19.7780  -43.9850 C.2   678  VAL678      0.2287
     40  O        -39.2830  -20.8160  -43.5930 O.2   678  VAL678     -0.2864
     41  CB       -37.6830  -19.8650  -46.2980 C.3   678  VAL678      0.0276
     42  CG1      -37.6120  -21.3800  -46.2160 C.3   678  VAL678      0.0022
     43  CG2      -37.8550  -19.4280  -47.7410 C.3   678  VAL678      0.0022
     44  N        -33.0490  -23.6760  -44.2240 N.3   733  LEU733     -0.1245
     45  CA       -32.8970  -22.9740  -45.4950 C.3   733  LEU733      0.1561
     46  C        -33.1290  -21.4770  -45.3290 C.2   733  LEU733      0.2260
     47  O        -32.3190  -20.6610  -45.7770 O.2   733  LEU733     -0.2867
     48  CB       -33.8510  -23.5530  -46.5400 C.3   733  LEU733      0.0270
     49  CG       -33.6470  -23.0280  -47.9660 C.3   733  LEU733      0.0019
     50  CD1      -32.4610  -23.7130  -48.6420 C.3   733  LEU733      0.0001
     51  CD2      -34.9140  -23.1770  -48.7950 C.3   733  LEU733      0.0001
     52  N        -30.2590  -19.8840  -43.1030 N.3   736  ILE736     -0.1231
     53  CA       -28.9660  -19.7990  -43.7640 C.3   736  ILE736      0.1692
     54  C        -29.0170  -18.8400  -44.9470 C.2   736  ILE736      0.2591
     55  O        -28.0360  -18.1440  -45.2190 O.2   736  ILE736     -0.2718
     56  CB       -28.4970  -21.2070  -44.1620 C.3   736  ILE736      0.0266
     57  CG1      -28.2440  -22.0240  -42.8960 C.3   736  ILE736      0.0019
     58  CG2      -27.2400  -21.1400  -45.0090 C.3   736  ILE736      0.0020
     59  CD1      -27.9080  -23.4630  -43.1470 C.3   736  ILE736      0.0001
     60  N        -30.1560  -18.7440  -45.6410 N.am  737  VAL737     -0.1980
     61  CA       -30.2720  -17.7640  -46.7190 C.3   737  VAL737      0.1595
     62  C        -30.2420  -16.3470  -46.1600 C.2   737  VAL737      0.2287
     63  O        -29.5800  -15.4600  -46.7170 O.2   737  VAL737     -0.2864
     64  CB       -31.5420  -18.0250  -47.5480 C.3   737  VAL737      0.0276
     65  CG1      -31.8690  -16.8180  -48.4170 C.3   737  VAL737      0.0022
     66  CG2      -31.3610  -19.2660  -48.4130 C.3   737  VAL737      0.0022
     67  N        -26.6440  -15.6870  -45.1010 N.3   740  TRP740     -0.1241
     68  CA       -25.7950  -15.5830  -46.2830 C.3   740  TRP740      0.1605
     69  C        -25.9530  -14.2250  -46.9500 C.2   740  TRP740      0.2264
     70  O        -24.9640  -13.5370  -47.2310 O.2   740  TRP740     -0.2867
     71  CB       -26.1430  -16.7150  -47.2480 C.3   740  TRP740      0.0550
     72  CG       -25.5720  -16.5880  -48.6300 C.ar  740  TRP740      0.0003
     73  CD1      -24.3330  -16.9830  -49.0450 C.ar  740  TRP740      0.0946
     74  CD2      -26.2330  -16.0600  -49.7900 C.ar  740  TRP740      0.0152
     75  NE1      -24.1760  -16.7210  -50.3860 N.ar  740  TRP740     -0.2442
     76  CE2      -25.3280  -16.1540  -50.8670 C.ar  740  TRP740      0.0810
     77  CE3      -27.4980  -15.5090  -50.0200 C.ar  740  TRP740      0.0012
     78  CZ2      -25.6480  -15.7190  -52.1550 C.ar  740  TRP740      0.0191
     79  CZ3      -27.8150  -15.0770  -51.3020 C.ar  740  TRP740      0.0001
     80  CH2      -26.8930  -15.1850  -52.3510 C.ar  740  TRP740      0.0015
@<TRIPOS>BOND
     1     7     8    1
     2     7     6    1
     3     6     5    1
     4    80    78   ar
     5    80    79   ar
     6    78    76   ar
     7    79    77   ar
     8     1     2    1
     9    76    75   ar
    10    76    74   ar
    11     5     2    1
    12     2     3    1
    13    75    73   ar
    14    77    74   ar
    15    21    18    1
    16    74    72   ar
    17    73    72   ar
    18     3     4    2
    19    51    49    1
    20    18    17    1
    21    18    19    1
    22    50    49    1
    23    72    71    1
    24    35    36   ar
    25    35    33   ar
    26    65    64    1
    27    66    64    1
    28    17    11   am
    29    36    34   ar
    30    33    31   ar
    31    49    48    1
    32    43    41    1
    33    19    20    2
    34    19    22   am
    35    13    14    1
    36    13    10    1
    37    64    61    1
    38    15    14    1
    39    34    32   ar
    40    71    68    1
    41    31    32   ar
    42    31    30    1
    43    70    69    2
    44    11    10    1
    45    11    12    2
    46     9    10    1
    47    14    16    1
    48    22    23    1
    49    69    68    1
    50    30    27    1
    51    61    62    1
    52    61    60    1
    53    63    62    2
    54    48    45    1
    55    41    42    1
    56    41    38    1
    57    68    67    1
    58    23    24    1
    59    47    46    2
    60    60    54   am
    61    37    38    1
    62    37    28   am
    63    45    46    1
    64    45    44    1
    65    38    39    1
    66    27    28    1
    67    27    26    1
    68    55    54    2
    69    28    29    2
    70    58    56    1
    71    54    53    1
    72    24    25    2
    73    56    53    1
    74    56    57    1
    75    39    40    2
    76    53    52    1
    77    59    57    1
