@<TRIPOS>MOLECULE
tmp/6hqbA43.pdb
 156 151 0 0 0
SMALL
GASTEIGER

@<TRIPOS>ATOM
      1  N        -24.7140  -23.8610  -19.5430 N.3   448  GLY448     -0.1225
      2  CA       -25.7560  -22.9020  -19.8650 C.3   448  GLY448      0.1811
      3  C        -25.8600  -21.7960  -18.8370 C.2   448  GLY448      0.2280
      4  O        -26.0160  -20.6230  -19.1880 O.2   448  GLY448     -0.2866
      5  N        -24.2180  -18.0850  -20.5140 N.3   452  PHE452     -0.1241
      6  CA       -25.3210  -17.2420  -20.9620 C.3   452  PHE452      0.1605
      7  C        -25.8890  -16.3900  -19.8310 C.2   452  PHE452      0.2264
      8  O        -26.2180  -15.2110  -20.0380 O.2   452  PHE452     -0.2867
      9  CB       -26.4130  -18.1220  -21.5730 C.3   452  PHE452      0.0534
     10  CG       -27.7280  -17.4270  -21.7500 C.ar  452  PHE452     -0.0203
     11  CD1      -27.8970  -16.4760  -22.7420 C.ar  452  PHE452     -0.0042
     12  CD2      -28.8050  -17.7430  -20.9350 C.ar  452  PHE452     -0.0042
     13  CE1      -29.1120  -15.8420  -22.9100 C.ar  452  PHE452     -0.0003
     14  CE2      -30.0240  -17.1130  -21.0980 C.ar  452  PHE452     -0.0003
     15  CZ       -30.1790  -16.1620  -22.0890 C.ar  452  PHE452     -0.0000
     16  N        -26.8940  -12.3540  -19.4620 N.3   456  ILE456     -0.1245
     17  CA       -28.1250  -11.8230  -18.8760 C.3   456  ILE456      0.1561
     18  C        -27.8030  -10.8880  -17.7160 C.2   456  ILE456      0.2260
     19  O        -28.3980   -9.8100  -17.5780 O.2   456  ILE456     -0.2867
     20  CB       -29.0520  -12.9720  -18.4360 C.3   456  ILE456      0.0252
     21  CG1      -29.5250  -13.7600  -19.6560 C.3   456  ILE456      0.0019
     22  CG2      -30.2450  -12.4340  -17.6630 C.3   456  ILE456      0.0019
     23  CD1      -30.2020  -12.9040  -20.7030 C.3   456  ILE456      0.0001
     24  N        -26.4840   -7.5920  -19.0950 N.3   459  ASP459     -0.1225
     25  CA       -27.5670   -6.7750  -19.6330 C.3   459  ASP459      0.1805
     26  C        -28.3820   -6.1360  -18.5190 C.2   459  ASP459      0.2598
     27  O        -28.7410   -4.9560  -18.6020 O.2   459  ASP459     -0.2718
     28  CB       -28.4680   -7.6170  -20.5320 C.3   459  ASP459      0.1424
     29  CG       -27.9490   -7.7080  -21.9440 C.2   459  ASP459      0.3668
     30  OD1      -28.1010   -6.7270  -22.7020 O.co2 459  ASP459     -0.2456
     31  OD2      -27.3630   -8.7540  -22.2870 O.co2 459  ASP459     -0.2456
     32  N        -28.6760   -6.8970  -17.4630 N.am  460  THR460     -0.1953
     33  CA       -29.4530   -6.3470  -16.3560 C.3   460  THR460      0.1897
     34  C        -28.6600   -5.3080  -15.5700 C.2   460  THR460      0.2313
     35  O        -29.2360   -4.3260  -15.0870 O.2   460  THR460     -0.2863
     36  CB       -29.9260   -7.4790  -15.4430 C.3   460  THR460      0.1794
     37  OG1      -30.6220   -8.4520  -16.2290 O.3   460  THR460     -0.2208
     38  CG2      -30.8660   -6.9520  -14.3700 C.3   460  THR460      0.0378
     39  N        -19.9070  -19.6820  -24.4530 N.3   537  ILE537     -0.1245
     40  CA       -21.1770  -19.8590  -25.1560 C.3   537  ILE537      0.1561
     41  C        -21.0470  -20.9460  -26.2180 C.2   537  ILE537      0.2260
     42  O        -21.9050  -21.8350  -26.3390 O.2   537  ILE537     -0.2867
     43  CB       -21.6360  -18.5250  -25.7700 C.3   537  ILE537      0.0252
     44  CG1      -22.1330  -17.5870  -24.6760 C.3   537  ILE537      0.0019
     45  CG2      -22.7220  -18.7580  -26.8060 C.3   537  ILE537      0.0019
     46  CD1      -23.2960  -18.1450  -23.9000 C.3   537  ILE537      0.0001
     47  N        -20.8590  -24.3570  -24.6280 N.3   540  PHE540     -0.1227
     48  CA       -22.1590  -24.7990  -24.1340 C.3   540  PHE540      0.1736
     49  C        -23.0390  -25.3120  -25.2650 C.2   540  PHE540      0.2596
     50  O        -23.6740  -26.3710  -25.1480 O.2   540  PHE540     -0.2718
     51  CB       -22.8570  -23.6540  -23.4040 C.3   540  PHE540      0.0547
     52  CG       -24.3510  -23.7630  -23.4100 C.ar  540  PHE540     -0.0202
     53  CD1      -24.9910  -24.7080  -22.6260 C.ar  540  PHE540     -0.0042
     54  CD2      -25.1180  -22.9260  -24.2080 C.ar  540  PHE540     -0.0042
     55  CE1      -26.3670  -24.8100  -22.6290 C.ar  540  PHE540     -0.0003
     56  CE2      -26.4950  -23.0250  -24.2170 C.ar  540  PHE540     -0.0003
     57  CZ       -27.1200  -23.9690  -23.4270 C.ar  540  PHE540     -0.0000
     58  N        -23.1180  -24.5530  -26.3600 N.am  541  THR541     -0.1953
     59  CA       -23.9720  -24.9690  -27.4670 C.3   541  THR541      0.1897
     60  C        -23.4890  -26.2840  -28.0700 C.2   541  THR541      0.2313
     61  O        -24.2980  -27.1750  -28.3750 O.2   541  THR541     -0.2863
     62  CB       -24.0300  -23.8740  -28.5300 C.3   541  THR541      0.1794
     63  OG1      -22.7150  -23.6300  -29.0430 O.3   541  THR541     -0.2208
     64  CG2      -24.5870  -22.5890  -27.9360 C.3   541  THR541      0.0378
     65  N        -31.1920  -28.4180  -35.3720 N.3   596  PHE596     -0.1227
     66  CA       -31.4640  -27.0860  -34.8430 C.3   596  PHE596      0.1736
     67  C        -30.3410  -26.6030  -33.9370 C.2   596  PHE596      0.2595
     68  O        -29.9680  -25.4270  -33.9760 O.2   596  PHE596     -0.2718
     69  CB       -32.7840  -27.0760  -34.0730 C.3   596  PHE596      0.0547
     70  CG       -33.9970  -27.2920  -34.9270 C.ar  596  PHE596     -0.0202
     71  CD1      -34.5140  -26.2600  -35.6940 C.ar  596  PHE596     -0.0042
     72  CD2      -34.6370  -28.5190  -34.9400 C.ar  596  PHE596     -0.0042
     73  CE1      -35.6370  -26.4550  -36.4740 C.ar  596  PHE596     -0.0003
     74  CE2      -35.7600  -28.7220  -35.7170 C.ar  596  PHE596     -0.0003
     75  CZ       -36.2610  -27.6880  -36.4850 C.ar  596  PHE596     -0.0000
     76  N        -29.7940  -27.4900  -33.1060 N.am  597  TRP597     -0.1976
     77  CA       -28.7590  -27.0560  -32.1760 C.3   597  TRP597      0.1640
     78  C        -27.4160  -26.8520  -32.8630 C.2   597  TRP597      0.2290
     79  O        -26.6600  -25.9580  -32.4710 O.2   597  TRP597     -0.2864
     80  CB       -28.6380  -28.0470  -31.0210 C.3   597  TRP597      0.0576
     81  CG       -29.4790  -27.6380  -29.8540 C.ar  597  TRP597      0.0006
     82  CD1      -30.7820  -27.9720  -29.6250 C.ar  597  TRP597      0.0946
     83  CD2      -29.0860  -26.7840  -28.7710 C.ar  597  TRP597      0.0152
     84  NE1      -31.2180  -27.3950  -28.4570 N.ar  597  TRP597     -0.2442
     85  CE2      -30.1980  -26.6580  -27.9140 C.ar  597  TRP597      0.0810
     86  CE3      -27.9010  -26.1190  -28.4400 C.ar  597  TRP597      0.0012
     87  CZ2      -30.1600  -25.8960  -26.7480 C.ar  597  TRP597      0.0191
     88  CZ3      -27.8660  -25.3620  -27.2810 C.ar  597  TRP597      0.0001
     89  CH2      -28.9860  -25.2600  -26.4480 C.ar  597  TRP597      0.0015
     90  N        -27.2780  -25.6720  -35.8900 N.3   599  TYR599     -0.1227
     91  CA       -27.5280  -24.3520  -36.4600 C.3   599  TYR599      0.1736
     92  C        -27.3660  -23.2570  -35.4150 C.2   599  TYR599      0.2595
     93  O        -26.7460  -22.2240  -35.6810 O.2   599  TYR599     -0.2718
     94  CB       -28.9280  -24.3010  -37.0720 C.3   599  TYR599      0.0548
     95  CG       -29.4070  -22.9030  -37.4070 C.ar  599  TYR599     -0.0200
     96  CD1      -28.9680  -22.2540  -38.5550 C.ar  599  TYR599     -0.0009
     97  CD2      -30.3030  -22.2360  -36.5800 C.ar  599  TYR599     -0.0009
     98  CE1      -29.4020  -20.9790  -38.8670 C.ar  599  TYR599      0.0417
     99  CE2      -30.7430  -20.9610  -36.8840 C.ar  599  TYR599      0.0417
    100  CZ       -30.2890  -20.3380  -38.0300 C.ar  599  TYR599      0.1957
    101  OH       -30.7210  -19.0700  -38.3420 O.3   599  TYR599     -0.2866
    102  N        -27.9170  -23.4680  -34.2190 N.am  600  ASN600     -0.1974
    103  CA       -27.8690  -22.4490  -33.1750 C.3   600  ASN600      0.1688
    104  C        -26.4510  -22.2300  -32.6620 C.2   600  ASN600      0.2292
    105  O        -26.0990  -21.1080  -32.2790 O.2   600  ASN600     -0.2864
    106  CB       -28.8040  -22.8430  -32.0300 C.3   600  ASN600      0.1181
    107  CG       -28.6730  -21.9310  -30.8280 C.2   600  ASN600      0.2629
    108  OD1      -29.1440  -20.7930  -30.8400 O.2   600  ASN600     -0.2716
    109  ND2      -28.0370  -22.4320  -29.7760 N.am  600  ASN600     -0.0877
    110  N        -26.4290   -8.7890  -24.4480 N.3   642  ILE642     -0.1245
    111  CA       -27.3140   -9.1900  -25.5380 C.3   642  ILE642      0.1561
    112  C        -27.7980   -7.9730  -26.3100 C.2   642  ILE642      0.2260
    113  O        -27.9790   -8.0340  -27.5330 O.2   642  ILE642     -0.2867
    114  CB       -28.4930  -10.0240  -24.9950 C.3   642  ILE642      0.0252
    115  CG1      -27.9790  -11.2230  -24.1950 C.3   642  ILE642      0.0019
    116  CG2      -29.3830  -10.5000  -26.1300 C.3   642  ILE642      0.0019
    117  CD1      -27.0890  -12.1500  -24.9910 C.3   642  ILE642      0.0001
    118  N        -27.7270   -7.0730  -30.2530 N.3   646  LEU646     -0.1245
    119  CA       -28.9820   -6.7230  -30.9110 C.3   646  LEU646      0.1561
    120  C        -28.8680   -5.3970  -31.6550 C.2   646  LEU646      0.2260
    121  O        -29.4400   -5.2360  -32.7400 O.2   646  LEU646     -0.2867
    122  CB       -30.1120   -6.6610  -29.8840 C.3   646  LEU646      0.0270
    123  CG       -31.5050   -6.3000  -30.4090 C.3   646  LEU646      0.0019
    124  CD1      -32.1430   -7.4830  -31.1280 C.3   646  LEU646      0.0001
    125  CD2      -32.4020   -5.7870  -29.2880 C.3   646  LEU646      0.0001
    126  N        -26.3600   -6.6150  -34.9530 N.3   650  LEU650     -0.1245
    127  CA       -27.4370   -6.8600  -35.9040 C.3   650  LEU650      0.1561
    128  C        -27.9620   -5.5560  -36.4920 C.2   650  LEU650      0.2260
    129  O        -27.7520   -5.2800  -37.6760 O.2   650  LEU650     -0.2867
    130  CB       -28.5760   -7.6390  -35.2430 C.3   650  LEU650      0.0270
    131  CG       -28.2910   -9.0980  -34.8850 C.3   650  LEU650      0.0019
    132  CD1      -29.5820   -9.8120  -34.5170 C.3   650  LEU650      0.0001
    133  CD2      -27.5810   -9.8130  -36.0260 C.3   650  LEU650      0.0001
    134  N        -38.0170  -19.0000  -43.1610 N.3   679  PHE679     -0.1241
    135  CA       -37.9380  -19.3040  -41.7370 C.3   679  PHE679      0.1605
    136  C        -39.3250  -19.4290  -41.1270 C.2   679  PHE679      0.2264
    137  O        -39.6420  -20.4230  -40.4650 O.2   679  PHE679     -0.2867
    138  CB       -37.1430  -18.2190  -41.0100 C.3   679  PHE679      0.0534
    139  CG       -37.5090  -18.0750  -39.5580 C.ar  679  PHE679     -0.0203
    140  CD1      -36.9520  -18.9110  -38.6020 C.ar  679  PHE679     -0.0042
    141  CD2      -38.4150  -17.1060  -39.1460 C.ar  679  PHE679     -0.0042
    142  CE1      -37.2890  -18.7810  -37.2650 C.ar  679  PHE679     -0.0003
    143  CE2      -38.7530  -16.9750  -37.8110 C.ar  679  PHE679     -0.0003
    144  CZ       -38.1890  -17.8140  -36.8700 C.ar  679  PHE679     -0.0000
    145  N        -36.6610  -24.4330  -42.0790 N.3   731  TYR731     -0.1241
    146  CA       -36.0520  -23.6280  -41.0270 C.3   731  TYR731      0.1605
    147  C        -34.5940  -23.3300  -41.3550 C.2   731  TYR731      0.2264
    148  O        -34.1720  -22.1640  -41.4100 O.2   731  TYR731     -0.2867
    149  CB       -36.1730  -24.3650  -39.6910 C.3   731  TYR731      0.0534
    150  CG       -35.9180  -23.5230  -38.4630 C.ar  731  TYR731     -0.0201
    151  CD1      -36.9540  -22.8410  -37.8400 C.ar  731  TYR731     -0.0009
    152  CD2      -34.6470  -23.4280  -37.9130 C.ar  731  TYR731     -0.0009
    153  CE1      -36.7310  -22.0770  -36.7080 C.ar  731  TYR731      0.0417
    154  CE2      -34.4120  -22.6650  -36.7800 C.ar  731  TYR731      0.0417
    155  CZ       -35.4580  -21.9910  -36.1820 C.ar  731  TYR731      0.1957
    156  OH       -35.2320  -21.2290  -35.0560 O.3   731  TYR731     -0.2866
@<TRIPOS>BOND
     1   134   135    1
     2   145   146    1
     3   135   136    1
     4   135   138    1
     5   148   147    2
     6   147   146    1
     7   136   137    2
     8   146   149    1
     9   138   139    1
    10   149   150    1
    11   139   141   ar
    12   139   140   ar
    13   141   143   ar
    14    98    96   ar
    15    98   100   ar
    16   140   142   ar
    17    96    95   ar
    18   150   152   ar
    19   150   151   ar
    20   101   100    1
    21   100    99   ar
    22   152   154   ar
    23   151   153   ar
    24   143   144   ar
    25   129   128    2
    26    95    94    1
    27    95    97   ar
    28   142   144   ar
    29    94    91    1
    30    99    97   ar
    31   154   155   ar
    32   153   155   ar
    33   128   127    1
    34    75    73   ar
    35    75    74   ar
    36    73    71   ar
    37    91    90    1
    38    91    92    1
    39   155   156    1
    40   133   131    1
    41   127   130    1
    42   127   126    1
    43    74    72   ar
    44    71    70   ar
    45    93    92    2
    46    92   102   am
    47    65    66    1
    48   130   131    1
    49    72    70   ar
    50    70    69    1
    51   131   132    1
    52    66    69    1
    53    66    67    1
    54   102   103    1
    55    68    67    2
    56    67    76   am
    57   103   104    1
    58   103   106    1
    59    76    77    1
    60    78    79    2
    61    78    77    1
    62   121   120    2
    63   104   105    2
    64    77    80    1
    65   106   107    1
    66   120   119    1
    67   124   123    1
    68    80    81    1
    69   119   118    1
    70   119   122    1
    71   108   107    2
    72   107   109   am
    73   123   122    1
    74   123   125    1
    75    81    82   ar
    76    81    83   ar
    77    82    84   ar
    78    63    62    1
    79    83    86   ar
    80    83    85   ar
    81    62    64    1
    82    62    59    1
    83    84    85   ar
    84    86    88   ar
    85    61    60    2
    86    60    59    1
    87    85    87   ar
    88   113   112    2
    89    59    58    1
    90    88    89   ar
    91    45    43    1
    92    87    89   ar
    93    58    49   am
    94    42    41    2
    95   112   111    1
    96    41    40    1
    97   116   114    1
    98    43    40    1
    99    43    44    1
   100   111   114    1
   101   111   110    1
   102    49    50    2
   103    49    48    1
   104    40    39    1
   105   114   115    1
   106   117   115    1
   107    44    46    1
   108    47    48    1
   109    56    54   ar
   110    56    57   ar
   111    54    52   ar
   112    48    51    1
   113    57    55   ar
   114    52    51    1
   115    52    53   ar
   116    13    11   ar
   117    13    15   ar
   118    11    10   ar
   119    30    29   ar
   120    55    53   ar
   121    31    29   ar
   122    15    14   ar
   123    29    28    1
   124    10     9    1
   125    10    12   ar
   126     9     6    1
   127    14    12   ar
   128     6     5    1
   129     6     7    1
   130    23    21    1
   131    28    25    1
   132     8     7    2
   133     2     1    1
   134     2     3    1
   135    21    20    1
   136    25    24    1
   137    25    26    1
   138    16    17    1
   139     4     3    2
   140    17    20    1
   141    17    18    1
   142    27    26    2
   143    26    32   am
   144    20    22    1
   145    18    19    2
   146    32    33    1
   147    33    34    1
   148    33    36    1
   149    37    36    1
   150    34    35    2
   151    36    38    1
