@<TRIPOS>MOLECULE
tmp/6hqbF03.pdb
 78 77 0 0 0
SMALL
GASTEIGER

@<TRIPOS>ATOM
      1  N        -57.0890   -3.4250  -65.8190 N.3    65  PHE65      -0.1241
      2  CA       -57.4830   -4.6500  -65.1320 C.3    65  PHE65       0.1605
      3  C        -58.3200   -5.5800  -66.0030 C.2    65  PHE65       0.2264
      4  O        -58.2140   -6.8040  -65.8790 O.2    65  PHE65      -0.2867
      5  CB       -58.2540   -4.3120  -63.8550 C.3    65  PHE65       0.0534
      6  CG       -58.7080   -5.5200  -63.0860 C.ar   65  PHE65      -0.0203
      7  CD1      -57.7910   -6.3290  -62.4300 C.ar   65  PHE65      -0.0042
      8  CD2      -60.0510   -5.8470  -63.0150 C.ar   65  PHE65      -0.0042
      9  CE1      -58.2040   -7.4450  -61.7210 C.ar   65  PHE65      -0.0003
     10  CE2      -60.4710   -6.9590  -62.3070 C.ar   65  PHE65      -0.0003
     11  CZ       -59.5440   -7.7590  -61.6580 C.ar   65  PHE65      -0.0000
     12  N        -56.1080   -7.9210  -68.6140 N.3    68  PRO68      -0.2102
     13  CA       -55.4110   -9.0300  -67.9420 C.3    68  PRO68       0.1504
     14  C        -56.3540   -9.9950  -67.2510 C.2    68  PRO68       0.2576
     15  O        -56.0910  -11.2020  -67.2370 O.2    68  PRO68      -0.2718
     16  CB       -54.4960   -8.3140  -66.9410 C.3    68  PRO68       0.0282
     17  CG       -55.1290   -6.9920  -66.7230 C.3    68  PRO68       0.0208
     18  CD       -55.7160   -6.6180  -68.0440 C.3    68  PRO68       0.0893
     19  N        -57.4520   -9.4950  -66.6780 N.am   69  SER69      -0.1953
     20  CA       -58.4390  -10.3780  -66.0680 C.3    69  SER69       0.1924
     21  C        -58.9810  -11.3750  -67.0860 C.2    69  SER69       0.2314
     22  O        -59.0010  -12.5870  -66.8390 O.2    69  SER69      -0.2863
     23  CB       -59.5750   -9.5510  -65.4660 C.3    69  SER69       0.2116
     24  OG       -60.2780   -8.8410  -66.4680 O.3    69  SER69      -0.2180
     25  N        -56.0560  -13.8250  -68.3940 N.3    72  PHE72      -0.1227
     26  CA       -55.8460  -14.8420  -67.3780 C.3    72  PHE72       0.1736
     27  C        -56.9910  -15.8350  -67.4240 C.2    72  PHE72       0.2595
     28  O        -56.7800  -16.9830  -67.8050 O.2    72  PHE72      -0.2718
     29  CB       -55.7410  -14.2630  -65.9660 C.3    72  PHE72       0.0547
     30  CG       -55.8050  -15.3200  -64.8990 C.ar   72  PHE72      -0.0202
     31  CD1      -54.6860  -16.0820  -64.5970 C.ar   72  PHE72      -0.0042
     32  CD2      -56.9940  -15.5870  -64.2340 C.ar   72  PHE72      -0.0042
     33  CE1      -54.7430  -17.0730  -63.6420 C.ar   72  PHE72      -0.0003
     34  CE2      -57.0600  -16.5780  -63.2800 C.ar   72  PHE72      -0.0003
     35  CZ       -55.9340  -17.3270  -62.9860 C.ar   72  PHE72      -0.0000
     36  N        -58.2080  -15.3910  -67.0860 N.am   73  LEU73      -0.1980
     37  CA       -59.3320  -16.3140  -66.9760 C.3    73  LEU73       0.1596
     38  C        -59.4230  -17.2490  -68.1750 C.2    73  LEU73       0.2287
     39  O        -59.6870  -18.4450  -68.0130 O.2    73  LEU73      -0.2864
     40  CB       -60.6340  -15.5360  -66.8010 C.3    73  LEU73       0.0297
     41  CG       -60.8610  -15.0060  -65.3880 C.3    73  LEU73       0.0022
     42  CD1      -62.3130  -14.5790  -65.1980 C.3    73  LEU73       0.0001
     43  CD2      -60.4510  -16.0640  -64.3690 C.3    73  LEU73       0.0001
     44  N        -56.4160  -19.7450  -67.7880 N.3    76  ALA76      -0.1231
     45  CA       -56.6060  -20.5690  -66.6000 C.3    76  ALA76       0.1694
     46  C        -57.7440  -21.5630  -66.7890 C.2    76  ALA76       0.2592
     47  O        -57.6410  -22.7190  -66.3610 O.2    76  ALA76      -0.2718
     48  CB       -56.8660  -19.6830  -65.3830 C.3    76  ALA76       0.0304
     49  N        -58.8440  -21.1320  -67.4120 N.am   77  GLY77      -0.1957
     50  CA       -59.8910  -22.0710  -67.7640 C.3    77  GLY77       0.1869
     51  C        -59.4070  -23.1190  -68.7440 C.2    77  GLY77       0.2309
     52  O        -59.7700  -24.2890  -68.6410 O.2    77  GLY77      -0.2863
     53  N        -56.2850  -24.2980  -68.9240 N.3    79  ILE79      -0.1231
     54  CA       -55.4880  -25.2150  -68.1090 C.3    79  ILE79       0.1692
     55  C        -56.3930  -26.1690  -67.3380 C.2    79  ILE79       0.2592
     56  O        -56.2590  -27.3970  -67.4260 O.2    79  ILE79      -0.2718
     57  CB       -54.5760  -24.4300  -67.1490 C.3    79  ILE79       0.0266
     58  CG1      -53.5830  -23.5580  -67.9200 C.3    79  ILE79       0.0019
     59  CG2      -53.8450  -25.3790  -66.2120 C.3    79  ILE79       0.0020
     60  CD1      -52.7790  -22.6310  -67.0300 C.3    79  ILE79       0.0001
     61  N        -57.3210  -25.6100  -66.5590 N.am   80  GLY80      -0.1957
     62  CA       -58.1430  -26.4390  -65.6940 C.3    80  GLY80       0.1869
     63  C        -59.0410  -27.3830  -66.4690 C.2    80  GLY80       0.2309
     64  O        -59.2660  -28.5230  -66.0560 O.2    80  GLY80      -0.2863
     65  N        -63.0790  -24.4440  -74.4540 N.3   118  TRP118     -0.1241
     66  CA       -63.4820  -24.9520  -73.1480 C.3   118  TRP118      0.1605
     67  C        -64.7710  -24.3250  -72.6080 C.2   118  TRP118      0.2264
     68  O        -65.4990  -25.0110  -71.8790 O.2   118  TRP118     -0.2867
     69  CB       -62.3420  -24.7930  -72.1330 C.3   118  TRP118      0.0550
     70  CG       -61.9600  -23.3880  -71.7840 C.ar  118  TRP118      0.0003
     71  CD1      -61.0300  -22.6110  -72.4100 C.ar  118  TRP118      0.0946
     72  CD2      -62.4830  -22.5990  -70.7080 C.ar  118  TRP118      0.0152
     73  NE1      -60.9490  -21.3840  -71.7980 N.ar  118  TRP118     -0.2442
     74  CE2      -61.8310  -21.3500  -70.7510 C.ar  118  TRP118      0.0810
     75  CE3      -63.4450  -22.8240  -69.7180 C.ar  118  TRP118      0.0012
     76  CZ2      -62.1090  -20.3310  -69.8420 C.ar  118  TRP118      0.0191
     77  CZ3      -63.7190  -21.8110  -68.8170 C.ar  118  TRP118      0.0001
     78  CH2      -63.0530  -20.5810  -68.8850 C.ar  118  TRP118      0.0015
@<TRIPOS>BOND
     1    65    66    1
     2    66    67    1
     3    66    69    1
     4    67    68    2
     5    71    73   ar
     6    71    70   ar
     7    69    70    1
     8    73    74   ar
     9    70    72   ar
    10    74    72   ar
    11    74    76   ar
    12    72    75   ar
    13    76    78   ar
    14    75    77   ar
    15    53    54    1
    16    78    77   ar
    17    51    52    2
    18    51    50    1
    19    12    18    1
    20    12    13    1
    21    25    26    1
    22    38    39    2
    23    38    37    1
    24    54    55    1
    25    54    57    1
    26    18    17    1
    27    13    14    1
    28    13    16    1
    29    58    57    1
    30    58    60    1
    31    28    27    2
    32    44    45    1
    33    50    49    1
    34    56    55    2
    35    27    26    1
    36    27    36   am
    37    49    46   am
    38    26    29    1
    39    55    61   am
    40    14    15    2
    41    14    19   am
    42    57    59    1
    43    21    22    2
    44    21    20    1
    45    36    37    1
    46    37    40    1
    47    16    17    1
    48    40    41    1
    49    46    45    1
    50    46    47    2
    51    19    20    1
    52    45    48    1
    53    61    62    1
    54    63    64    2
    55    63    62    1
    56    24    23    1
    57    20    23    1
    58     3     4    2
    59     3     2    1
    60    29    30    1
    61     1     2    1
    62    41    42    1
    63    41    43    1
    64     2     5    1
    65    30    31   ar
    66    30    32   ar
    67    31    33   ar
    68    32    34   ar
    69     5     6    1
    70    33    35   ar
    71    34    35   ar
    72     6     8   ar
    73     6     7   ar
    74     8    10   ar
    75     7     9   ar
    76    10    11   ar
    77     9    11   ar
