@<TRIPOS>MOLECULE
tmp/6hqbA15.pdb
 133 122 0 0 0
SMALL
GASTEIGER

@<TRIPOS>ATOM
      1  N        -15.2900  -32.4130  -38.7900 N.3   361  SER361     -0.1217
      2  CA       -14.3080  -31.7900  -37.9100 C.3   361  SER361      0.1889
      3  C        -13.1410  -31.2220  -38.7090 C.2   361  SER361      0.2288
      4  O        -12.6550  -30.1220  -38.4210 O.2   361  SER361     -0.2866
      5  CB       -13.8180  -32.8020  -36.8740 C.3   361  SER361      0.2089
      6  OG       -14.8910  -33.2780  -36.0780 O.3   361  SER361     -0.2183
      7  N        -14.1310  -27.9890  -40.4340 N.3   364  ILE364     -0.1231
      8  CA       -14.0770  -26.8990  -39.4620 C.3   364  ILE364      0.1692
      9  C        -12.6320  -26.4750  -39.2210 C.2   364  ILE364      0.2591
     10  O        -12.3220  -25.2780  -39.1250 O.2   364  ILE364     -0.2718
     11  CB       -14.7780  -27.3200  -38.1570 C.3   364  ILE364      0.0266
     12  CG1      -16.2500  -27.6360  -38.4290 C.3   364  ILE364      0.0019
     13  CG2      -14.6510  -26.2360  -37.1010 C.3   364  ILE364      0.0020
     14  CD1      -17.0120  -28.0920  -37.2080 C.3   364  ILE364      0.0001
     15  N        -11.7250  -27.4500  -39.1270 N.am  365  ILE365     -0.1980
     16  CA       -10.3070  -27.1400  -38.9650 C.3   365  ILE365      0.1595
     17  C         -9.7850  -26.3820  -40.1800 C.2   365  ILE365      0.2287
     18  O         -8.9650  -25.4670  -40.0530 O.2   365  ILE365     -0.2864
     19  CB        -9.5070  -28.4320  -38.7120 C.3   365  ILE365      0.0276
     20  CG1       -9.8850  -29.0400  -37.3600 C.3   365  ILE365      0.0022
     21  CG2       -8.0150  -28.1660  -38.7730 C.3   365  ILE365      0.0022
     22  CD1       -9.2480  -30.3890  -37.1000 C.3   365  ILE365      0.0001
     23  N        -10.8910  -22.7750  -39.7450 N.3   368  GLN368     -0.1231
     24  CA       -10.1550  -22.1250  -38.6660 C.3   368  GLN368      0.1698
     25  C         -8.6780  -21.9260  -38.9880 C.2   368  GLN368      0.2592
     26  O         -8.0410  -21.0460  -38.3990 O.2   368  GLN368     -0.2718
     27  CB       -10.2930  -22.9350  -37.3760 C.3   368  GLN368      0.0381
     28  CG       -11.6050  -22.7290  -36.6340 C.3   368  GLN368      0.0905
     29  CD       -11.5920  -21.4990  -35.7390 C.2   368  GLN368      0.2608
     30  OE1      -10.8080  -20.5710  -35.9430 O.2   368  GLN368     -0.2717
     31  NE2      -12.4600  -21.4920  -34.7330 N.am  368  GLN368     -0.0878
     32  N         -8.1140  -22.7270  -39.8890 N.am  369  HIS369     -0.1976
     33  CA        -6.7190  -22.5620  -40.2720 C.3   369  HIS369      0.1656
     34  C         -6.5440  -21.6250  -41.4550 C.2   369  HIS369      0.2291
     35  O         -5.5410  -20.9060  -41.5230 O.2   369  HIS369     -0.2864
     36  CB        -6.0970  -23.9190  -40.6030 C.3   369  HIS369      0.0771
     37  CG        -5.8730  -24.7890  -39.4060 C.ar  369  HIS369      0.0820
     38  ND1       -5.1470  -25.9590  -39.4620 N.ar  369  HIS369     -0.2267
     39  CD2       -6.2790  -24.6590  -38.1210 C.ar  369  HIS369      0.1154
     40  CE1       -5.1150  -26.5120  -38.2630 C.ar  369  HIS369      0.1986
     41  NE2       -5.7980  -25.7460  -37.4320 N.ar  369  HIS369     -0.2212
     42  N        -17.4080  -23.7410  -42.4100 N.3   394  MET394     -0.1245
     43  CA       -18.0280  -24.0290  -41.1220 C.3   394  MET394      0.1570
     44  C        -19.3290  -24.8030  -41.3040 C.2   394  MET394      0.2261
     45  O        -19.5710  -25.8030  -40.6180 O.2   394  MET394     -0.2867
     46  CB       -18.2720  -22.7290  -40.3540 C.3   394  MET394      0.0387
     47  CG       -17.0660  -22.2350  -39.5710 C.3   394  MET394      0.0595
     48  SD       -16.5370  -23.4340  -38.3320 S.3   394  MET394     -0.1393
     49  CE       -15.2290  -22.5330  -37.5070 C.3   394  MET394      0.0692
     50  N        -20.3610  -28.5610  -40.2040 N.3   398  GLY398     -0.1225
     51  CA       -21.4440  -28.6760  -39.2420 C.3   398  GLY398      0.1811
     52  C        -22.5020  -29.6760  -39.6660 C.2   398  GLY398      0.2280
     53  O        -23.0360  -30.4180  -38.8380 O.2   398  GLY398     -0.2866
     54  N        -20.9870  -33.3210  -39.5710 N.3   401  ILE401     -0.1231
     55  CA       -20.8260  -33.8530  -38.2210 C.3   401  ILE401      0.1692
     56  C        -22.1190  -34.5080  -37.7430 C.2   401  ILE401      0.2591
     57  O        -22.1050  -35.6170  -37.1940 O.2   401  ILE401     -0.2718
     58  CB       -20.3590  -32.7430  -37.2630 C.3   401  ILE401      0.0266
     59  CG1      -18.8550  -32.5090  -37.4200 C.3   401  ILE401      0.0019
     60  CG2      -20.7080  -33.0890  -35.8270 C.3   401  ILE401      0.0020
     61  CD1      -18.2890  -31.4910  -36.4570 C.3   401  ILE401      0.0001
     62  N        -23.2570  -33.8350  -37.9420 N.am  402  VAL402     -0.1980
     63  CA       -24.5430  -34.4020  -37.5390 C.3   402  VAL402      0.1595
     64  C        -24.8510  -35.6580  -38.3430 C.2   402  VAL402      0.2287
     65  O        -25.5530  -36.5660  -37.8640 O.2   402  VAL402     -0.2864
     66  CB       -25.6540  -33.3430  -37.6850 C.3   402  VAL402      0.0276
     67  CG1      -26.9840  -33.8840  -37.1910 C.3   402  VAL402      0.0022
     68  CG2      -25.2800  -32.0770  -36.9300 C.3   402  VAL402      0.0022
     69  N        -22.1710  -26.4330  -28.2300 N.3   542  ILE542     -0.1245
     70  CA       -21.6250  -27.6820  -28.7530 C.3   542  ILE542      0.1561
     71  C        -21.9080  -28.8330  -27.7930 C.2   542  ILE542      0.2260
     72  O        -22.1940  -29.9580  -28.2190 O.2   542  ILE542     -0.2867
     73  CB       -20.1180  -27.5290  -29.0350 C.3   542  ILE542      0.0252
     74  CG1      -19.8890  -26.5060  -30.1500 C.3   542  ILE542      0.0019
     75  CG2      -19.5000  -28.8660  -29.4090 C.3   542  ILE542      0.0019
     76  CD1      -18.4310  -26.2840  -30.4900 C.3   542  ILE542      0.0001
     77  N        -25.5420  -29.8810  -28.2450 N.3   545  THR545     -0.1203
     78  CA       -25.6690  -30.6100  -29.5050 C.3   545  THR545      0.1994
     79  C        -25.1180  -32.0280  -29.3840 C.2   545  THR545      0.2617
     80  O        -25.7230  -32.9860  -29.8860 O.2   545  THR545     -0.2717
     81  CB       -24.9540  -29.8550  -30.6220 C.3   545  THR545      0.1784
     82  OG1      -25.4840  -28.5260  -30.7130 O.3   545  THR545     -0.2211
     83  CG2      -25.1460  -30.5700  -31.9520 C.3   545  THR545      0.0376
     84  N        -23.9700  -32.1790  -28.7170 N.am  546  ALA546     -0.1979
     85  CA       -23.3960  -33.5030  -28.5050 C.3   546  ALA546      0.1597
     86  C        -24.2910  -34.3580  -27.6190 C.2   546  ALA546      0.2287
     87  O        -24.4470  -35.5580  -27.8640 O.2   546  ALA546     -0.2864
     88  CB       -22.0000  -33.3800  -27.8960 C.3   546  ALA546      0.0319
     89  N        -27.2990  -35.4930  -29.9380 N.3   549  LEU549     -0.1231
     90  CA       -26.8910  -36.4740  -30.9360 C.3   549  LEU549      0.1693
     91  C        -26.3090  -37.7370  -30.3140 C.2   549  LEU549      0.2591
     92  O        -26.1930  -38.7540  -31.0080 O.2   549  LEU549     -0.2718
     93  CB       -25.8860  -35.8460  -31.8990 C.3   549  LEU549      0.0284
     94  CG       -26.4320  -34.6270  -32.6400 C.3   549  LEU549      0.0019
     95  CD1      -25.3650  -34.0100  -33.5300 C.3   549  LEU549      0.0001
     96  CD2      -27.6670  -35.0120  -33.4440 C.3   549  LEU549      0.0001
     97  N        -25.9440  -37.7030  -29.0310 N.am  550  LEU550     -0.1980
     98  CA       -25.4630  -38.8930  -28.3450 C.3   550  LEU550      0.1596
     99  C        -26.6010  -39.7080  -27.7520 C.2   550  LEU550      0.2287
    100  O        -26.6040  -40.9380  -27.8730 O.2   550  LEU550     -0.2864
    101  CB       -24.4740  -38.5010  -27.2460 C.3   550  LEU550      0.0297
    102  CG       -23.7930  -39.6730  -26.5390 C.3   550  LEU550      0.0022
    103  CD1      -22.9480  -40.4660  -27.5240 C.3   550  LEU550      0.0001
    104  CD2      -22.9530  -39.1830  -25.3710 C.3   550  LEU550      0.0001
    105  N        -27.1050  -27.6480  -33.8870 N.3   598  MET598     -0.1245
    106  CA       -25.9440  -27.3450  -34.7170 C.3   598  MET598      0.1570
    107  C        -26.0880  -25.9700  -35.3580 C.2   598  MET598      0.2261
    108  O        -25.1400  -25.1710  -35.3610 O.2   598  MET598     -0.2867
    109  CB       -25.7640  -28.4330  -35.7790 C.3   598  MET598      0.0387
    110  CG       -24.6420  -28.1800  -36.7800 C.3   598  MET598      0.0595
    111  SD       -25.1670  -27.3290  -38.2860 S.3   598  MET598     -0.1393
    112  CE       -26.3800  -28.4860  -38.9160 C.3   598  MET598      0.0692
    113  N        -25.6280  -23.2810  -32.6490 N.3   601  SER601     -0.1202
    114  CA       -24.2360  -23.1360  -32.2400 C.3   601  SER601      0.2020
    115  C        -23.4340  -22.3890  -33.2970 C.2   601  SER601      0.2618
    116  O        -22.7020  -21.4370  -32.9870 O.2   601  SER601     -0.2717
    117  CB       -23.6290  -24.5150  -31.9760 C.3   601  SER601      0.2103
    118  OG       -22.3820  -24.4030  -31.3150 O.3   601  SER601     -0.2182
    119  N        -23.5650  -22.8010  -34.5600 N.am  602  LEU602     -0.1979
    120  CA       -22.8410  -22.1150  -35.6210 C.3   602  LEU602      0.1596
    121  C        -23.3360  -20.6910  -35.8340 C.2   602  LEU602      0.2287
    122  O        -22.5690  -19.8520  -36.3140 O.2   602  LEU602     -0.2864
    123  CB       -22.9340  -22.9130  -36.9200 C.3   602  LEU602      0.0297
    124  CG       -22.1530  -24.2280  -36.8980 C.3   602  LEU602      0.0022
    125  CD1      -22.1400  -24.8770  -38.2740 C.3   602  LEU602      0.0001
    126  CD2      -20.7370  -23.9960  -36.3900 C.3   602  LEU602      0.0001
    127  N        -21.2140  -18.9150  -33.5270 N.3   605  VAL605     -0.1245
    128  CA       -19.8160  -18.9960  -33.9540 C.3   605  VAL605      0.1561
    129  C        -19.5340  -17.9860  -35.0630 C.2   605  VAL605      0.2260
    130  O        -18.5570  -17.2240  -35.0060 O.2   605  VAL605     -0.2867
    131  CB       -19.4680  -20.4280  -34.3960 C.3   605  VAL605      0.0252
    132  CG1      -18.0920  -20.4600  -35.0470 C.3   605  VAL605      0.0019
    133  CG2      -19.5150  -21.3710  -33.2070 C.3   605  VAL605      0.0019
@<TRIPOS>BOND
     1    42    43    1
     2    35    34    2
     3    34    33    1
     4    44    43    1
     5    44    45    2
     6    43    46    1
     7    36    33    1
     8    36    37    1
     9     7     8    1
    10    46    47    1
    11    33    32    1
    12    50    51    1
    13    17    18    2
    14    17    16    1
    15    32    25   am
    16    23    24    1
    17    52    51    1
    18    52    53    2
    19    47    48    1
    20    54    55    1
    21    38    37   ar
    22    38    40   ar
    23     8     9    1
    24     8    11    1
    25    37    39   ar
    26     9    15   am
    27     9    10    2
    28    15    16    1
    29    25    24    1
    30    25    26    2
    31    16    19    1
    32   112   111    1
    33     1     2    1
    34    21    19    1
    35    19    20    1
    36     3     4    2
    37     3     2    1
    38    24    27    1
    39    12    11    1
    40    12    14    1
    41    64    65    2
    42    64    63    1
    43    48    49    1
    44   111   110    1
    45   125   124    1
    46    40    41   ar
    47    55    56    1
    48    55    58    1
    49    11    13    1
    50    39    41   ar
    51    62    56   am
    52    62    63    1
    53     2     5    1
    54    56    57    2
    55    66    63    1
    56    66    67    1
    57    66    68    1
    58    59    58    1
    59    59    61    1
    60    27    28    1
    61    20    22    1
    62    58    60    1
    63   123   124    1
    64   123   120    1
    65   124   126    1
    66     5     6    1
    67   110   109    1
    68    28    29    1
    69   122   121    2
    70    30    29    2
    71   121   120    1
    72   109   106    1
    73    29    31   am
    74   120   119    1
    75   108   107    2
    76   107   106    1
    77   129   130    2
    78   129   128    1
    79   132   131    1
    80   106   105    1
    81   119   115   am
    82   131   128    1
    83   131   133    1
    84   128   127    1
    85    95    94    1
    86    96    94    1
    87   115   116    2
    88   115   114    1
    89   113   114    1
    90    94    93    1
    91   114   117    1
    92   117   118    1
    93    83    81    1
    94    93    90    1
    95    92    91    2
    96    90    91    1
    97    90    89    1
    98    82    81    1
    99    81    78    1
   100    76    74    1
   101    91    97   am
   102    74    73    1
   103    80    79    2
   104    78    79    1
   105    78    77    1
   106    75    73    1
   107    79    84   am
   108    73    70    1
   109    97    98    1
   110    70    69    1
   111    70    71    1
   112    84    85    1
   113    85    88    1
   114    85    86    1
   115    98    99    1
   116    98   101    1
   117    72    71    2
   118   100    99    2
   119    87    86    2
   120   103   102    1
   121   101   102    1
   122   102   104    1
