@<TRIPOS>MOLECULE
tmp/6hqbA08.pdb
 190 182 0 0 0
SMALL
GASTEIGER

@<TRIPOS>ATOM
      1  N         -6.9360  -18.4960  -55.8130 N.3   146  LEU146     -0.1245
      2  CA        -6.4690  -19.8530  -56.0800 C.3   146  LEU146      0.1561
      3  C         -5.7920  -19.9470  -57.4420 C.2   146  LEU146      0.2260
      4  O         -4.7220  -20.5550  -57.5730 O.2   146  LEU146     -0.2867
      5  CB        -7.6420  -20.8310  -55.9980 C.3   146  LEU146      0.0270
      6  CG        -7.4300  -22.2240  -56.5980 C.3   146  LEU146      0.0019
      7  CD1       -6.5310  -23.0750  -55.7160 C.3   146  LEU146      0.0001
      8  CD2       -8.7660  -22.9110  -56.8330 C.3   146  LEU146      0.0001
      9  N         -2.3810  -18.3260  -57.2310 N.3   149  ALA149     -0.1231
     10  CA        -1.4480  -19.1790  -56.5080 C.3   149  ALA149      0.1694
     11  C         -1.1290  -20.4690  -57.2520 C.2   149  ALA149      0.2592
     12  O         -0.1610  -21.1460  -56.8910 O.2   149  ALA149     -0.2718
     13  CB        -2.0040  -19.5050  -55.1220 C.3   149  ALA149      0.0304
     14  N         -1.9140  -20.8250  -58.2690 N.am  150  SER150     -0.1952
     15  CA        -1.6550  -22.0140  -59.0710 C.3   150  SER150      0.1924
     16  C         -0.8800  -21.7210  -60.3500 C.2   150  SER150      0.2314
     17  O         -0.4110  -22.6630  -60.9970 O.2   150  SER150     -0.2863
     18  CB        -2.9740  -22.7120  -59.4250 C.3   150  SER150      0.2116
     19  OG        -3.6260  -23.1880  -58.2600 O.3   150  SER150     -0.2180
     20  N         -2.7020  -42.0270  -52.5130 N.3   204  LEU204     -0.1231
     21  CA        -3.6230  -40.9070  -52.6750 C.3   204  LEU204      0.1693
     22  C         -3.0930  -39.6440  -52.0030 C.2   204  LEU204      0.2591
     23  O         -2.8200  -38.6400  -52.6700 O.2   204  LEU204     -0.2718
     24  CB        -5.0000  -41.2790  -52.1190 C.3   204  LEU204      0.0284
     25  CG        -6.1370  -40.3060  -52.4370 C.3   204  LEU204      0.0019
     26  CD1       -6.2830  -40.1310  -53.9400 C.3   204  LEU204      0.0001
     27  CD2       -7.4420  -40.7870  -51.8210 C.3   204  LEU204      0.0001
     28  N         -2.9370  -39.6790  -50.6790 N.am  205  LEU205     -0.1980
     29  CA        -2.5440  -38.4870  -49.9400 C.3   205  LEU205      0.1596
     30  C         -1.0450  -38.2220  -49.9840 C.2   205  LEU205      0.2287
     31  O         -0.6220  -37.0930  -49.7140 O.2   205  LEU205     -0.2864
     32  CB        -3.0090  -38.5970  -48.4860 C.3   205  LEU205      0.0297
     33  CG        -4.5210  -38.5510  -48.2630 C.3   205  LEU205      0.0022
     34  CD1       -4.8500  -38.5990  -46.7790 C.3   205  LEU205      0.0001
     35  CD2       -5.1160  -37.3090  -48.9090 C.3   205  LEU205      0.0001
     36  N         -0.1560  -37.4650  -54.0750 N.3   208  GLY208     -0.1210
     37  CA        -0.8910  -36.2620  -54.4160 C.3   208  GLY208      0.1956
     38  C         -0.1480  -34.9940  -54.0450 C.2   208  GLY208      0.2612
     39  O          0.1140  -34.1410  -54.9030 O.2   208  GLY208     -0.2717
     40  N          0.1950  -34.8590  -52.7610 N.am  209  SER209     -0.1952
     41  CA         0.9750  -33.7060  -52.3270 C.3   209  SER209      0.1924
     42  C          2.3580  -33.7010  -52.9620 C.2   209  SER209      0.2314
     43  O          2.9130  -32.6300  -53.2180 O.2   209  SER209     -0.2863
     44  CB         1.0780  -33.6790  -50.8020 C.3   209  SER209      0.2116
     45  OG         1.4720  -34.9380  -50.2900 O.3   209  SER209     -0.2180
     46  N          1.7670  -32.2620  -56.4380 N.3   212  TRP212     -0.1241
     47  CA         1.3990  -30.8520  -56.3670 C.3   212  TRP212      0.1605
     48  C          2.5850  -29.9890  -55.9520 C.2   212  TRP212      0.2264
     49  O          2.7290  -28.8580  -56.4280 O.2   212  TRP212     -0.2867
     50  CB         0.2310  -30.6410  -55.4110 C.3   212  TRP212      0.0550
     51  CG        -0.1690  -29.2020  -55.3350 C.ar  212  TRP212      0.0003
     52  CD1        0.0480  -28.3450  -54.2990 C.ar  212  TRP212      0.0946
     53  CD2       -0.8300  -28.4420  -56.3540 C.ar  212  TRP212      0.0152
     54  NE1       -0.4520  -27.1020  -54.6000 N.ar  212  TRP212     -0.2442
     55  CE2       -0.9970  -27.1350  -55.8570 C.ar  212  TRP212      0.0810
     56  CE3       -1.3070  -28.7420  -57.6340 C.ar  212  TRP212      0.0012
     57  CZ2       -1.6170  -26.1280  -56.5950 C.ar  212  TRP212      0.0191
     58  CZ3       -1.9240  -27.7420  -58.3650 C.ar  212  TRP212      0.0001
     59  CH2       -2.0740  -26.4510  -57.8430 C.ar  212  TRP212      0.0015
     60  N          4.1520  -26.9190  -58.0350 N.3   216  GLN216     -0.1245
     61  CA         4.4820  -25.6130  -57.4740 C.3   216  GLN216      0.1566
     62  C          5.9310  -25.2360  -57.7550 C.2   216  GLN216      0.2260
     63  O          6.2230  -24.0920  -58.1220 O.2   216  GLN216     -0.2867
     64  CB         4.2160  -25.6010  -55.9700 C.3   216  GLN216      0.0367
     65  CG         2.7520  -25.6840  -55.5880 C.3   216  GLN216      0.0905
     66  CD         2.5490  -25.6290  -54.0890 C.2   216  GLN216      0.2608
     67  OE1        2.7520  -26.6200  -53.3860 O.2   216  GLN216     -0.2717
     68  NE2        2.1560  -24.4650  -53.5880 N.am  216  GLN216     -0.0878
     69  N          0.2760  -16.7070  -47.4520 N.3   288  LEU288     -0.1245
     70  CA         1.3920  -17.5490  -47.0490 C.3   288  LEU288      0.1561
     71  C          2.4310  -17.6380  -48.1620 C.2   288  LEU288      0.2260
     72  O          2.1240  -17.4770  -49.3460 O.2   288  LEU288     -0.2867
     73  CB         0.9030  -18.9530  -46.6820 C.3   288  LEU288      0.0270
     74  CG         0.0940  -19.1310  -45.3940 C.3   288  LEU288      0.0019
     75  CD1       -0.3540  -20.5760  -45.2400 C.3   288  LEU288      0.0001
     76  CD2        0.8950  -18.6980  -44.1820 C.3   288  LEU288      0.0001
     77  N          4.6820  -19.3310  -50.7950 N.3   290  LEU290     -0.1245
     78  CA         4.5680  -20.5570  -51.5790 C.3   290  LEU290      0.1561
     79  C          5.8330  -21.4020  -51.4910 C.2   290  LEU290      0.2260
     80  O          5.7670  -22.6330  -51.6160 O.2   290  LEU290     -0.2867
     81  CB         4.2450  -20.2230  -53.0340 C.3   290  LEU290      0.0270
     82  CG         2.9140  -19.5070  -53.2680 C.3   290  LEU290      0.0019
     83  CD1        2.6050  -19.4340  -54.7510 C.3   290  LEU290      0.0001
     84  CD2        1.7840  -20.1960  -52.5180 C.3   290  LEU290      0.0001
     85  N          5.0070  -23.5720  -48.8420 N.3   293  THR293     -0.1218
     86  CA         3.9540  -24.5440  -49.1250 C.3   293  THR293      0.1862
     87  C          4.4770  -25.7120  -49.9510 C.2   293  THR293      0.2287
     88  O          4.0370  -26.8510  -49.7640 O.2   293  THR293     -0.2866
     89  CB         2.7810  -23.8770  -49.8430 C.3   293  THR293      0.1770
     90  OG1        3.2050  -23.4110  -51.1300 O.3   293  THR293     -0.2211
     91  CG2        2.2420  -22.7110  -49.0270 C.3   293  THR293      0.0375
     92  N          6.2720  -27.8370  -47.5540 N.3   296  HIS296     -0.1226
     93  CA         5.2790  -28.4720  -46.6980 C.3   296  HIS296      0.1752
     94  C          4.6160  -29.6540  -47.3920 C.2   296  HIS296      0.2596
     95  O          4.4290  -30.7140  -46.7850 O.2   296  HIS296     -0.2718
     96  CB         4.2420  -27.4300  -46.2890 C.3   296  HIS296      0.0759
     97  CG         2.9330  -28.0090  -45.8660 C.ar  296  HIS296      0.0818
     98  ND1        2.7740  -28.7130  -44.6930 N.ar  296  HIS296     -0.2268
     99  CD2        1.7180  -27.9880  -46.4610 C.ar  296  HIS296      0.1154
    100  CE1        1.5160  -29.0970  -44.5810 C.ar  296  HIS296      0.1986
    101  NE2        0.8560  -28.6740  -45.6440 N.ar  296  HIS296     -0.2212
    102  N          4.2480  -29.4860  -48.6630 N.am  297  HIS297     -0.1975
    103  CA         3.6150  -30.5720  -49.4010 C.3   297  HIS297      0.1656
    104  C          4.5930  -31.7120  -49.6380 C.2   297  HIS297      0.2291
    105  O          4.2030  -32.8820  -49.6150 O.2   297  HIS297     -0.2864
    106  CB         3.0550  -30.0540  -50.7230 C.3   297  HIS297      0.0771
    107  CG         1.8750  -29.1480  -50.5580 C.ar  297  HIS297      0.0820
    108  ND1        1.4680  -28.2670  -51.5360 N.ar  297  HIS297     -0.2267
    109  CD2        1.0090  -28.9920  -49.5280 C.ar  297  HIS297      0.1154
    110  CE1        0.4040  -27.6050  -51.1160 C.ar  297  HIS297      0.1986
    111  NE2        0.1060  -28.0260  -49.9000 N.ar  297  HIS297     -0.2212
    112  N          4.6710  -33.5570  -46.3020 N.3   300  ILE300     -0.1245
    113  CA         3.4360  -34.3170  -46.1290 C.3   300  ILE300      0.1561
    114  C          3.4200  -35.5250  -47.0560 C.2   300  ILE300      0.2260
    115  O          2.9350  -36.6020  -46.6910 O.2   300  ILE300     -0.2867
    116  CB         2.2160  -33.4050  -46.3590 C.3   300  ILE300      0.0252
    117  CG1        2.1670  -32.3140  -45.2910 C.3   300  ILE300      0.0019
    118  CG2        0.9270  -34.2040  -46.3540 C.3   300  ILE300      0.0019
    119  CD1        2.2850  -32.8360  -43.8780 C.3   300  ILE300      0.0001
    120  N          3.0840  -39.3130  -45.7330 N.3   304  PHE304     -0.1241
    121  CA         1.9480  -40.1580  -46.0850 C.3   304  PHE304      0.1605
    122  C          2.3930  -41.4190  -46.8160 C.2   304  PHE304      0.2264
    123  O          1.8340  -42.5020  -46.5930 O.2   304  PHE304     -0.2867
    124  CB         0.9500  -39.3690  -46.9300 C.3   304  PHE304      0.0534
    125  CG        -0.1150  -38.6870  -46.1250 C.ar  304  PHE304     -0.0203
    126  CD1       -0.7090  -39.3330  -45.0550 C.ar  304  PHE304     -0.0042
    127  CD2       -0.5180  -37.4010  -46.4340 C.ar  304  PHE304     -0.0042
    128  CE1       -1.6900  -38.7100  -44.3110 C.ar  304  PHE304     -0.0003
    129  CE2       -1.4990  -36.7730  -45.6940 C.ar  304  PHE304     -0.0003
    130  CZ        -2.0860  -37.4280  -44.6310 C.ar  304  PHE304     -0.0000
    131  N        -12.7000  -31.9410  -39.7450 N.3   362  LEU362     -0.1245
    132  CA       -11.5810  -31.4640  -40.5460 C.3   362  LEU362      0.1561
    133  C        -11.9750  -30.2830  -41.4230 C.2   362  LEU362      0.2260
    134  O        -11.1410  -29.4190  -41.6940 O.2   362  LEU362     -0.2867
    135  CB       -11.0190  -32.6050  -41.3950 C.3   362  LEU362      0.0270
    136  CG        -9.6240  -32.4060  -41.9930 C.3   362  LEU362      0.0019
    137  CD1       -8.8680  -33.7250  -42.0140 C.3   362  LEU362      0.0001
    138  CD2       -9.7040  -31.8150  -43.3950 C.3   362  LEU362      0.0001
    139  N        -11.7250  -27.4500  -39.1270 N.3   365  ILE365     -0.1231
    140  CA       -10.3070  -27.1400  -38.9650 C.3   365  ILE365      0.1692
    141  C         -9.7850  -26.3820  -40.1800 C.2   365  ILE365      0.2591
    142  O         -8.9650  -25.4670  -40.0530 O.2   365  ILE365     -0.2718
    143  CB        -9.5070  -28.4320  -38.7120 C.3   365  ILE365      0.0266
    144  CG1       -9.8850  -29.0400  -37.3600 C.3   365  ILE365      0.0019
    145  CG2       -8.0150  -28.1660  -38.7730 C.3   365  ILE365      0.0020
    146  CD1       -9.2480  -30.3890  -37.1000 C.3   365  ILE365      0.0001
    147  N        -10.2480  -26.7550  -41.3750 N.am  366  VAL366     -0.1980
    148  CA        -9.8450  -26.0560  -42.5930 C.3   366  VAL366      0.1595
    149  C        -10.2350  -24.5900  -42.5080 C.2   366  VAL366      0.2287
    150  O         -9.4360  -23.6970  -42.8100 O.2   366  VAL366     -0.2864
    151  CB       -10.4630  -26.7270  -43.8350 C.3   366  VAL366      0.0276
    152  CG1      -10.3790  -25.7980  -45.0420 C.3   366  VAL366      0.0022
    153  CG2       -9.7680  -28.0440  -44.1340 C.3   366  VAL366      0.0022
    154  N         -8.1140  -22.7270  -39.8890 N.3   369  HIS369     -0.1226
    155  CA        -6.7190  -22.5620  -40.2720 C.3   369  HIS369      0.1752
    156  C         -6.5440  -21.6250  -41.4550 C.2   369  HIS369      0.2595
    157  O         -5.5410  -20.9060  -41.5230 O.2   369  HIS369     -0.2718
    158  CB        -6.0970  -23.9190  -40.6030 C.3   369  HIS369      0.0759
    159  CG        -5.8730  -24.7890  -39.4060 C.ar  369  HIS369      0.0818
    160  ND1       -5.1470  -25.9590  -39.4620 N.ar  369  HIS369     -0.2268
    161  CD2       -6.2790  -24.6590  -38.1210 C.ar  369  HIS369      0.1154
    162  CE1       -5.1150  -26.5120  -38.2630 C.ar  369  HIS369      0.1986
    163  NE2       -5.7980  -25.7460  -37.4320 N.ar  369  HIS369     -0.2212
    164  N         -7.4960  -21.6120  -42.3890 N.am  370  MET370     -0.1979
    165  CA        -7.3970  -20.7060  -43.5230 C.3   370  MET370      0.1605
    166  C         -7.6560  -19.2640  -43.1150 C.2   370  MET370      0.2287
    167  O         -7.0660  -18.3460  -43.6970 O.2   370  MET370     -0.2864
    168  CB        -8.3750  -21.1230  -44.6200 C.3   370  MET370      0.0413
    169  CG        -8.0760  -22.4680  -45.2530 C.3   370  MET370      0.0598
    170  SD        -9.0680  -22.7340  -46.7300 S.3   370  MET370     -0.1393
    171  CE        -8.4810  -21.3800  -47.7440 C.3   370  MET370      0.0692
    172  N         -3.5850  -18.6630  -46.9430 N.3   375  PRO375     -0.2102
    173  CA        -2.6340  -19.2940  -47.8630 C.3   375  PRO375      0.1504
    174  C         -2.7060  -18.7970  -49.2960 C.2   375  PRO375      0.2575
    175  O         -1.8560  -19.1900  -50.1070 O.2   375  PRO375     -0.2718
    176  CB        -3.0310  -20.7830  -47.7910 C.3   375  PRO375      0.0282
    177  CG        -4.3530  -20.8360  -46.9980 C.3   375  PRO375      0.0208
    178  CD        -4.8350  -19.4300  -46.8540 C.3   375  PRO375      0.0893
    179  N         -3.6800  -17.9600  -49.6300 N.am  376  TYR376     -0.1977
    180  CA        -3.8270  -17.5050  -50.9990 C.3   376  TYR376      0.1639
    181  C         -3.5250  -16.0130  -51.1090 C.2   376  TYR376      0.2290
    182  O         -3.7850  -15.2480  -50.1750 O.2   376  TYR376     -0.2864
    183  CB        -5.2410  -17.7850  -51.5200 C.3   376  TYR376      0.0560
    184  CG        -5.5630  -19.2600  -51.6090 C.ar  376  TYR376     -0.0198
    185  CD1       -5.2400  -19.9930  -52.7420 C.ar  376  TYR376     -0.0009
    186  CD2       -6.1810  -19.9220  -50.5550 C.ar  376  TYR376     -0.0009
    187  CE1       -5.5270  -21.3420  -52.8260 C.ar  376  TYR376      0.0417
    188  CE2       -6.4710  -21.2720  -50.6310 C.ar  376  TYR376      0.0417
    189  CZ        -6.1440  -21.9760  -51.7690 C.ar  376  TYR376      0.1957
    190  OH        -6.4320  -23.3180  -51.8480 O.3   376  TYR376     -0.2866
@<TRIPOS>BOND
     1    17    16    2
     2    16    15    1
     3    18    15    1
     4    18    19    1
     5    15    14    1
     6    58    59   ar
     7    58    56   ar
     8    14    11   am
     9    63    62    2
    10    60    61    1
    11    59    57   ar
    12    62    61    1
    13    56    53   ar
    14     4     3    2
    15    61    64    1
    16     3     2    1
    17    11    12    2
    18    11    10    1
    19     9    10    1
    20     8     6    1
    21     6     5    1
    22     6     7    1
    23    57    55   ar
    24    10    13    1
    25    46    47    1
    26    49    48    2
    27    47    48    1
    28    47    50    1
    29    53    55   ar
    30    53    51   ar
    31     2     5    1
    32     2     1    1
    33    64    65    1
    34    55    54   ar
    35    65    66    1
    36    50    51    1
    37    51    52   ar
    38    39    38    2
    39    83    82    1
    40    54    52   ar
    41    37    36    1
    42    37    38    1
    43    66    68   am
    44    66    67    2
    45    38    40   am
    46    26    25    1
    47    82    81    1
    48    82    84    1
    49    43    42    2
    50    81    78    1
    51    42    41    1
    52   187   185   ar
    53   187   189   ar
    54    40    41    1
    55   185   184   ar
    56    21    20    1
    57    21    24    1
    58    21    22    1
    59    23    22    2
    60    25    24    1
    61    25    27    1
    62    41    44    1
    63    22    28   am
    64   190   189    1
    65   189   188   ar
    66    80    79    2
    67   184   183    1
    68   184   186   ar
    69    78    79    1
    70    78    77    1
    71   108   110   ar
    72   108   107   ar
    73   183   180    1
    74    90    89    1
    75   110   111   ar
    76   181   180    1
    77   181   182    2
    78   180   179    1
    79    44    45    1
    80   106   107    1
    81   106   103    1
    82    28    29    1
    83   188   186   ar
    84   107   109   ar
    85   175   174    2
    86    30    29    1
    87    30    31    2
    88    87    88    2
    89    87    86    1
    90    29    32    1
    91   111   109   ar
    92    89    86    1
    93    89    91    1
    94   104   105    2
    95   104   103    1
    96   179   174   am
    97   103   102    1
    98    72    71    2
    99   174   173    1
   100    86    85    1
   101    35    33    1
   102   102    94   am
   103    32    33    1
   104    33    34    1
   105    71    70    1
   106   173   176    1
   107   173   172    1
   108   176   177    1
   109   171   170    1
   110    92    93    1
   111    69    70    1
   112    94    95    2
   113    94    93    1
   114   114   115    2
   115   114   113    1
   116    70    73    1
   117   177   178    1
   118   172   178    1
   119   124   125    1
   120   124   121    1
   121   122   123    2
   122   122   121    1
   123   170   169    1
   124    93    96    1
   125    73    74    1
   126    99    97   ar
   127    99   101   ar
   128   127   125   ar
   129   127   129   ar
   130   116   118    1
   131   116   113    1
   132   116   117    1
   133   112   113    1
   134    96    97    1
   135   125   126   ar
   136   121   120    1
   137    97    98   ar
   138   129   130   ar
   139   101   100   ar
   140    74    75    1
   141    74    76    1
   142   117   119    1
   143   169   168    1
   144   126   128   ar
   145   152   151    1
   146    98   100   ar
   147   130   128   ar
   148   168   165    1
   149   153   151    1
   150   151   148    1
   151   167   166    2
   152   165   166    1
   153   165   164    1
   154   138   136    1
   155   150   149    2
   156   148   149    1
   157   148   147    1
   158   164   156   am
   159   137   136    1
   160   136   135    1
   161   134   133    2
   162   157   156    2
   163   156   155    1
   164   133   132    1
   165   135   132    1
   166   147   141   am
   167   158   155    1
   168   158   159    1
   169   132   131    1
   170   155   154    1
   171   141   142    2
   172   141   140    1
   173   160   159   ar
   174   160   162   ar
   175   159   161   ar
   176   139   140    1
   177   140   143    1
   178   145   143    1
   179   143   144    1
   180   162   163   ar
   181   161   163   ar
   182   144   146    1
