@<TRIPOS>MOLECULE
tmp/6hqbA24.pdb
 222 215 0 0 0
SMALL
GASTEIGER

@<TRIPOS>ATOM
      1  N        -14.1310  -27.9890  -40.4340 N.3   364  ILE364     -0.1245
      2  CA       -14.0770  -26.8990  -39.4620 C.3   364  ILE364      0.1561
      3  C        -12.6320  -26.4750  -39.2210 C.2   364  ILE364      0.2260
      4  O        -12.3220  -25.2780  -39.1250 O.2   364  ILE364     -0.2867
      5  CB       -14.7780  -27.3200  -38.1570 C.3   364  ILE364      0.0252
      6  CG1      -16.2500  -27.6360  -38.4290 C.3   364  ILE364      0.0019
      7  CG2      -14.6510  -26.2360  -37.1010 C.3   364  ILE364      0.0019
      8  CD1      -17.0120  -28.0920  -37.2080 C.3   364  ILE364      0.0001
      9  N        -10.8910  -22.7750  -39.7450 N.3   368  GLN368     -0.1245
     10  CA       -10.1550  -22.1250  -38.6660 C.3   368  GLN368      0.1566
     11  C         -8.6780  -21.9260  -38.9880 C.2   368  GLN368      0.2260
     12  O         -8.0410  -21.0460  -38.3990 O.2   368  GLN368     -0.2867
     13  CB       -10.2930  -22.9350  -37.3760 C.3   368  GLN368      0.0367
     14  CG       -11.6050  -22.7290  -36.6340 C.3   368  GLN368      0.0905
     15  CD       -11.5920  -21.4990  -35.7390 C.2   368  GLN368      0.2608
     16  OE1      -10.8080  -20.5710  -35.9430 O.2   368  GLN368     -0.2717
     17  NE2      -12.4600  -21.4920  -34.7330 N.am  368  GLN368     -0.0878
     18  N         -8.5280  -19.0360  -42.1270 N.3   371  TYR371     -0.1241
     19  CA        -8.8510  -17.6550  -41.7770 C.3   371  TYR371      0.1605
     20  C         -7.6640  -16.9440  -41.1380 C.2   371  TYR371      0.2264
     21  O         -7.4480  -15.7530  -41.3810 O.2   371  TYR371     -0.2867
     22  CB       -10.0720  -17.6080  -40.8560 C.3   371  TYR371      0.0534
     23  CG        -9.7520  -17.3380  -39.4010 C.ar  371  TYR371     -0.0201
     24  CD1       -9.7490  -16.0420  -38.8940 C.ar  371  TYR371     -0.0009
     25  CD2       -9.4610  -18.3800  -38.5340 C.ar  371  TYR371     -0.0009
     26  CE1       -9.4580  -15.7970  -37.5670 C.ar  371  TYR371      0.0417
     27  CE2       -9.1690  -18.1450  -37.2070 C.ar  371  TYR371      0.0417
     28  CZ        -9.1700  -16.8530  -36.7290 C.ar  371  TYR371      0.1957
     29  OH        -8.8800  -16.6180  -35.4060 O.3   371  TYR371     -0.2866
     30  N        -14.5720  -19.0100  -44.7730 N.3   390  PHE390     -0.1241
     31  CA       -14.6380  -19.4460  -43.3820 C.3   390  PHE390      0.1605
     32  C        -16.0230  -19.9860  -43.0330 C.2   390  PHE390      0.2264
     33  O        -16.1580  -21.1140  -42.5430 O.2   390  PHE390     -0.2867
     34  CB       -14.2540  -18.2850  -42.4640 C.3   390  PHE390      0.0534
     35  CG       -14.2760  -18.6310  -41.0060 C.ar  390  PHE390     -0.0203
     36  CD1      -13.2040  -19.2830  -40.4200 C.ar  390  PHE390     -0.0042
     37  CD2      -15.3650  -18.2970  -40.2180 C.ar  390  PHE390     -0.0042
     38  CE1      -13.2210  -19.6020  -39.0770 C.ar  390  PHE390     -0.0003
     39  CE2      -15.3890  -18.6130  -38.8750 C.ar  390  PHE390     -0.0003
     40  CZ       -14.3140  -19.2650  -38.3030 C.ar  390  PHE390     -0.0000
     41  N        -17.4080  -23.7410  -42.4100 N.3   394  MET394     -0.1245
     42  CA       -18.0280  -24.0290  -41.1220 C.3   394  MET394      0.1570
     43  C        -19.3290  -24.8030  -41.3040 C.2   394  MET394      0.2261
     44  O        -19.5710  -25.8030  -40.6180 O.2   394  MET394     -0.2867
     45  CB       -18.2720  -22.7290  -40.3540 C.3   394  MET394      0.0387
     46  CG       -17.0660  -22.2350  -39.5710 C.3   394  MET394      0.0595
     47  SD       -16.5370  -23.4340  -38.3320 S.3   394  MET394     -0.1393
     48  CE       -15.2290  -22.5330  -37.5070 C.3   394  MET394      0.0692
     49  N         -5.2700  -18.7310  -20.3310 N.3   482  PHE482     -0.1227
     50  CA        -4.6790  -19.8270  -21.0950 C.3   482  PHE482      0.1736
     51  C         -4.4800  -19.4430  -22.5570 C.2   482  PHE482      0.2595
     52  O         -3.4130  -19.6870  -23.1380 O.2   482  PHE482     -0.2718
     53  CB        -5.5580  -21.0730  -20.9810 C.3   482  PHE482      0.0547
     54  CG        -5.7300  -21.5740  -19.5750 C.ar  482  PHE482     -0.0202
     55  CD1       -4.7710  -22.3850  -18.9920 C.ar  482  PHE482     -0.0042
     56  CD2       -6.8580  -21.2450  -18.8410 C.ar  482  PHE482     -0.0042
     57  CE1       -4.9290  -22.8510  -17.7010 C.ar  482  PHE482     -0.0003
     58  CE2       -7.0220  -21.7090  -17.5490 C.ar  482  PHE482     -0.0003
     59  CZ        -6.0560  -22.5120  -16.9780 C.ar  482  PHE482     -0.0000
     60  N         -5.5030  -18.8430  -23.1710 N.am  483  ALA483     -0.1980
     61  CA        -5.4110  -18.4880  -24.5830 C.3   483  ALA483      0.1597
     62  C         -4.3580  -17.4120  -24.8190 C.2   483  ALA483      0.2287
     63  O         -3.5860  -17.4960  -25.7810 O.2   483  ALA483     -0.2864
     64  CB        -6.7740  -18.0300  -25.0970 C.3   483  ALA483      0.0319
     65  N         -1.7650  -16.9270  -22.9540 N.3   485  TRP485     -0.1227
     66  CA        -0.4760  -17.5690  -22.7230 C.3   485  TRP485      0.1737
     67  C         -0.0090  -18.3240  -23.9610 C.2   485  TRP485      0.2595
     68  O          1.1560  -18.2220  -24.3580 O.2   485  TRP485     -0.2718
     69  CB        -0.5660  -18.5030  -21.5180 C.3   485  TRP485      0.0564
     70  CG         0.6460  -19.3610  -21.3390 C.ar  485  TRP485      0.0003
     71  CD1        1.9350  -18.9380  -21.1920 C.ar  485  TRP485      0.0946
     72  CD2        0.6820  -20.7920  -21.2760 C.ar  485  TRP485      0.0152
     73  NE1        2.7730  -20.0180  -21.0480 N.ar  485  TRP485     -0.2442
     74  CE2        2.0280  -21.1680  -21.0950 C.ar  485  TRP485      0.0810
     75  CE3       -0.2930  -21.7930  -21.3570 C.ar  485  TRP485      0.0012
     76  CZ2        2.4240  -22.5010  -20.9930 C.ar  485  TRP485      0.0191
     77  CZ3        0.1030  -23.1170  -21.2560 C.ar  485  TRP485      0.0001
     78  CH2        1.4490  -23.4570  -21.0750 C.ar  485  TRP485      0.0015
     79  N         -0.9070  -19.0830  -24.5930 N.am  486  VAL486     -0.1966
     80  CA        -0.4920  -19.8200  -25.7860 C.3   486  VAL486      0.1727
     81  C         -0.2560  -18.8700  -26.9580 C.2   486  VAL486      0.2616
     82  O          0.5860  -19.1400  -27.8260 O.2   486  VAL486     -0.2715
     83  CB        -1.5120  -20.9180  -26.1360 C.3   486  VAL486      0.0290
     84  CG1       -0.9610  -21.8140  -27.2310 C.3   486  VAL486      0.0023
     85  CG2       -1.8320  -21.7420  -24.9090 C.3   486  VAL486      0.0023
     86  N         -0.9780  -17.7480  -27.0050 N.am  487  GLN487     -0.1977
     87  CA        -0.6640  -16.7050  -27.9780 C.3   487  GLN487      0.1601
     88  C          0.7720  -16.2280  -27.8140 C.2   487  GLN487      0.2287
     89  O          1.5330  -16.1460  -28.7870 O.2   487  GLN487     -0.2864
     90  CB        -1.6300  -15.5300  -27.8200 C.3   487  GLN487      0.0394
     91  CG        -3.0110  -15.7560  -28.3910 C.3   487  GLN487      0.0908
     92  CD        -3.8870  -14.5260  -28.2720 C.2   487  GLN487      0.2608
     93  OE1       -3.6020  -13.6210  -27.4870 O.2   487  GLN487     -0.2717
     94  NE2       -4.9560  -14.4820  -29.0590 N.am  487  GLN487     -0.0878
     95  N          3.2290  -18.9070  -29.0490 N.3   490  HIS490     -0.1241
     96  CA         3.3810  -18.8970  -30.4990 C.3   490  HIS490      0.1621
     97  C          4.0960  -17.6480  -30.9930 C.2   490  HIS490      0.2264
     98  O          4.6940  -17.6770  -32.0740 O.2   490  HIS490     -0.2867
     99  CB         2.0150  -19.0140  -31.1750 C.3   490  HIS490      0.0745
    100  CG         1.2840  -20.2760  -30.8420 C.ar  490  HIS490      0.0817
    101  ND1       -0.0200  -20.5020  -31.2240 N.ar  490  HIS490     -0.2268
    102  CD2        1.6750  -21.3810  -30.1660 C.ar  490  HIS490      0.1154
    103  CE1       -0.4020  -21.6920  -30.7950 C.ar  490  HIS490      0.1986
    104  NE2        0.6080  -22.2450  -30.1500 N.ar  490  HIS490     -0.2212
    105  N         -2.1140  -13.7750  -35.6160 N.3   508  ALA508     -0.1231
    106  CA        -3.2320  -13.6070  -34.6980 C.3   508  ALA508      0.1694
    107  C         -2.8050  -13.8200  -33.2520 C.2   508  ALA508      0.2592
    108  O         -3.3500  -13.1790  -32.3460 O.2   508  ALA508     -0.2718
    109  CB        -4.3620  -14.5680  -35.0660 C.3   508  ALA508      0.0304
    110  N         -1.8370  -14.7090  -33.0170 N.am  509  PHE509     -0.1976
    111  CA        -1.3580  -14.9380  -31.6580 C.3   509  PHE509      0.1639
    112  C         -0.6460  -13.7070  -31.1130 C.2   509  PHE509      0.2290
    113  O         -0.7880  -13.3720  -29.9310 O.2   509  PHE509     -0.2864
    114  CB        -0.4280  -16.1490  -31.6240 C.3   509  PHE509      0.0560
    115  CG        -0.9760  -17.3570  -32.3280 C.ar  509  PHE509     -0.0200
    116  CD1       -2.0630  -18.0430  -31.8120 C.ar  509  PHE509     -0.0042
    117  CD2       -0.3980  -17.8120  -33.5020 C.ar  509  PHE509     -0.0042
    118  CE1       -2.5690  -19.1570  -32.4570 C.ar  509  PHE509     -0.0003
    119  CE2       -0.8970  -18.9260  -34.1520 C.ar  509  PHE509     -0.0003
    120  CZ        -1.9840  -19.6000  -33.6290 C.ar  509  PHE509     -0.0000
    121  N         -4.9420  -10.8550  -32.2570 N.3   525  ILE525     -0.1245
    122  CA        -6.3380  -10.8630  -31.8290 C.3   525  ILE525      0.1561
    123  C         -6.3180  -10.8830  -30.3040 C.2   525  ILE525      0.2260
    124  O         -6.2350  -11.9380  -29.6720 O.2   525  ILE525     -0.2867
    125  CB        -7.1080  -12.0450  -32.4150 C.3   525  ILE525      0.0252
    126  CG1       -6.9430  -12.0840  -33.9360 C.3   525  ILE525      0.0019
    127  CG2       -8.5780  -11.9600  -32.0420 C.3   525  ILE525      0.0019
    128  CD1       -7.7310  -13.1860  -34.6090 C.3   525  ILE525      0.0001
    129  N         -7.4390  -11.1390  -26.7170 N.3   527  LEU527     -0.1245
    130  CA        -8.5190  -11.9090  -26.1150 C.3   527  LEU527      0.1561
    131  C         -8.7760  -11.3970  -24.7040 C.2   527  LEU527      0.2260
    132  O         -7.8660  -11.3850  -23.8680 O.2   527  LEU527     -0.2867
    133  CB        -8.1800  -13.3980  -26.1030 C.3   527  LEU527      0.0270
    134  CG        -7.8380  -13.9680  -27.4810 C.3   527  LEU527      0.0019
    135  CD1       -7.6980  -15.4770  -27.4240 C.3   527  LEU527      0.0001
    136  CD2       -8.8850  -13.5630  -28.5070 C.3   527  LEU527      0.0001
    137  N        -16.5560  -17.7050  -26.0360 N.3   535  HIS535     -0.1241
    138  CA       -15.9920  -19.0470  -26.1300 C.3   535  HIS535      0.1621
    139  C        -16.7730  -20.0270  -25.2660 C.2   535  HIS535      0.2264
    140  O        -17.0460  -21.1600  -25.6850 O.2   535  HIS535     -0.2867
    141  CB       -14.5170  -19.0320  -25.7260 C.3   535  HIS535      0.0745
    142  CG       -13.6050  -18.4980  -26.7860 C.ar  535  HIS535      0.0817
    143  ND1      -13.5750  -17.1670  -27.1440 N.ar  535  HIS535     -0.2268
    144  CD2      -12.6880  -19.1170  -27.5660 C.ar  535  HIS535      0.1154
    145  CE1      -12.6790  -16.9900  -28.0980 C.ar  535  HIS535      0.1986
    146  NE2      -12.1260  -18.1570  -28.3720 N.ar  535  HIS535     -0.2212
    147  N        -19.9760  -20.8750  -27.0140 N.3   538  HIS538     -0.1226
    148  CA       -19.7290  -21.8900  -28.0360 C.3   538  HIS538      0.1752
    149  C        -19.6180  -23.2750  -27.4140 C.2   538  HIS538      0.2595
    150  O        -20.2150  -24.2430  -27.9040 O.2   538  HIS538     -0.2718
    151  CB       -18.4540  -21.5570  -28.8140 C.3   538  HIS538      0.0759
    152  CG       -18.5040  -20.2440  -29.5270 C.ar  538  HIS538      0.0818
    153  ND1      -19.6810  -19.6840  -29.9740 N.ar  538  HIS538     -0.2268
    154  CD2      -17.5210  -19.3760  -29.8680 C.ar  538  HIS538      0.1154
    155  CE1      -19.4210  -18.5290  -30.5610 C.ar  538  HIS538      0.1986
    156  NE2      -18.1180  -18.3190  -30.5100 N.ar  538  HIS538     -0.2212
    157  N        -18.8370  -23.3870  -26.3370 N.am  539  ALA539     -0.1980
    158  CA       -18.6730  -24.6740  -25.6710 C.3   539  ALA539      0.1597
    159  C        -20.0110  -25.2220  -25.1910 C.2   539  ALA539      0.2287
    160  O        -20.2900  -26.4170  -25.3410 O.2   539  ALA539     -0.2864
    161  CB       -17.6960  -24.5420  -24.5040 C.3   539  ALA539      0.0319
    162  N        -22.1710  -26.4330  -28.2300 N.3   542  ILE542     -0.1245
    163  CA       -21.6250  -27.6820  -28.7530 C.3   542  ILE542      0.1561
    164  C        -21.9080  -28.8330  -27.7930 C.2   542  ILE542      0.2260
    165  O        -22.1940  -29.9580  -28.2190 O.2   542  ILE542     -0.2867
    166  CB       -20.1180  -27.5290  -29.0350 C.3   542  ILE542      0.0252
    167  CG1      -19.8890  -26.5060  -30.1500 C.3   542  ILE542      0.0019
    168  CG2      -19.5000  -28.8660  -29.4090 C.3   542  ILE542      0.0019
    169  CD1      -18.4310  -26.2840  -30.4900 C.3   542  ILE542      0.0001
    170  N        -23.5650  -22.8010  -34.5600 N.3   602  LEU602     -0.1245
    171  CA       -22.8410  -22.1150  -35.6210 C.3   602  LEU602      0.1561
    172  C        -23.3360  -20.6910  -35.8340 C.2   602  LEU602      0.2260
    173  O        -22.5690  -19.8520  -36.3140 O.2   602  LEU602     -0.2867
    174  CB       -22.9340  -22.9130  -36.9200 C.3   602  LEU602      0.0270
    175  CG       -22.1530  -24.2280  -36.8980 C.3   602  LEU602      0.0019
    176  CD1      -22.1400  -24.8770  -38.2740 C.3   602  LEU602      0.0001
    177  CD2      -20.7370  -23.9960  -36.3900 C.3   602  LEU602      0.0001
    178  N        -21.2140  -18.9150  -33.5270 N.3   605  VAL605     -0.1245
    179  CA       -19.8160  -18.9960  -33.9540 C.3   605  VAL605      0.1561
    180  C        -19.5340  -17.9860  -35.0630 C.2   605  VAL605      0.2260
    181  O        -18.5570  -17.2240  -35.0060 O.2   605  VAL605     -0.2867
    182  CB       -19.4680  -20.4280  -34.3960 C.3   605  VAL605      0.0252
    183  CG1      -18.0920  -20.4600  -35.0470 C.3   605  VAL605      0.0019
    184  CG2      -19.5150  -21.3710  -33.2070 C.3   605  VAL605      0.0019
    185  N        -19.6830  -14.3870  -33.7330 N.3   608  HIS608     -0.1226
    186  CA       -18.4420  -14.1140  -33.0160 C.3   608  HIS608      0.1752
    187  C        -17.3240  -13.7720  -33.9890 C.2   608  HIS608      0.2596
    188  O        -16.6440  -12.7490  -33.8400 O.2   608  HIS608     -0.2718
    189  CB       -18.0700  -15.3280  -32.1580 C.3   608  HIS608      0.0759
    190  CG       -16.7310  -15.2270  -31.4940 C.ar  608  HIS608      0.0818
    191  ND1      -15.9790  -16.3360  -31.1690 N.ar  608  HIS608     -0.2268
    192  CD2      -16.0140  -14.1540  -31.0820 C.ar  608  HIS608      0.1154
    193  CE1      -14.8540  -15.9510  -30.5940 C.ar  608  HIS608      0.1986
    194  NE2      -14.8510  -14.6320  -30.5290 N.ar  608  HIS608     -0.2212
    195  N        -17.1270  -14.6180  -35.0040 N.am  609  PHE609     -0.1976
    196  CA       -16.1220  -14.3320  -36.0250 C.3   609  PHE609      0.1639
    197  C        -16.3650  -12.9730  -36.6760 C.2   609  PHE609      0.2290
    198  O        -15.4760  -12.1110  -36.6940 O.2   609  PHE609     -0.2864
    199  CB       -16.1220  -15.4450  -37.0740 C.3   609  PHE609      0.0560
    200  CG       -15.2180  -15.1860  -38.2470 C.ar  609  PHE609     -0.0200
    201  CD1      -13.8610  -15.4470  -38.1640 C.ar  609  PHE609     -0.0042
    202  CD2      -15.7290  -14.6980  -39.4380 C.ar  609  PHE609     -0.0042
    203  CE1      -13.0300  -15.2150  -39.2410 C.ar  609  PHE609     -0.0003
    204  CE2      -14.9010  -14.4650  -40.5170 C.ar  609  PHE609     -0.0003
    205  CZ       -13.5500  -14.7250  -40.4190 C.ar  609  PHE609     -0.0000
    206  N        -15.8930   -9.9430  -34.1210 N.3   612  LYS612     -0.1231
    207  CA       -14.5430   -9.7870  -33.5950 C.3   612  LYS612      0.1693
    208  C        -13.5770   -9.3440  -34.6860 C.2   612  LYS612      0.2591
    209  O        -12.6830   -8.5290  -34.4330 O.2   612  LYS612     -0.2718
    210  CB       -14.0710  -11.0920  -32.9520 C.3   612  LYS612      0.0285
    211  CG       -12.6850  -11.0170  -32.3170 C.3   612  LYS612      0.0035
    212  CD       -12.6750  -10.1390  -31.0780 C.3   612  LYS612      0.0206
    213  CE       -11.3130  -10.1610  -30.4030 C.3   612  LYS612      0.1093
    214  NZ       -11.2940   -9.3660  -29.1440 N.3   612  LYS612     -0.1314
    215  N        -13.7470   -9.8500  -35.9120 N.am  613  MET613     -0.1979
    216  CA       -12.8690   -9.4220  -36.9980 C.3   613  MET613      0.1605
    217  C        -13.0900   -7.9520  -37.3370 C.2   613  MET613      0.2287
    218  O        -12.1290   -7.1890  -37.4880 O.2   613  MET613     -0.2864
    219  CB       -13.0840  -10.2990  -38.2330 C.3   613  MET613      0.0413
    220  CG       -12.7720  -11.7700  -38.0160 C.3   613  MET613      0.0598
    221  SD       -11.1150  -12.0740  -37.3810 S.3   613  MET613     -0.1393
    222  CE       -10.1260  -11.7010  -38.8260 C.3   613  MET613      0.0692
@<TRIPOS>BOND
     1    30    31    1
     2    31    32    1
     3    31    34    1
     4    32    33    2
     5    34    35    1
     6    41    42    1
     7    18    19    1
     8    19    20    1
     9    19    22    1
    10    21    20    2
    11    43    42    1
    12    43    44    2
    13    42    45    1
    14    35    36   ar
    15    35    37   ar
    16    22    23    1
    17   204   205   ar
    18   204   202   ar
    19     1     2    1
    20    36    38   ar
    21   205   203   ar
    22    45    46    1
    23    37    39   ar
    24     9    10    1
    25    46    47    1
    26     2     3    1
    27     2     5    1
    28   202   200   ar
    29    23    24   ar
    30    23    25   ar
    31   203   201   ar
    32     3     4    2
    33    38    40   ar
    34    11    10    1
    35    11    12    2
    36    24    26   ar
    37    39    40   ar
    38   222   221    1
    39    10    13    1
    40    25    27   ar
    41     6     5    1
    42     6     8    1
    43    47    48    1
    44   176   175    1
    45   200   201   ar
    46   200   199    1
    47   219   220    1
    48   219   216    1
    49     5     7    1
    50   220   221    1
    51    26    28   ar
    52   218   217    2
    53    13    14    1
    54   217   216    1
    55    27    28   ar
    56   199   196    1
    57   216   215    1
    58   174   175    1
    59   174   171    1
    60   175   177    1
    61    28    29    1
    62   198   197    2
    63   197   196    1
    64    14    15    1
    65   173   172    2
    66   196   195    1
    67    16    15    2
    68   215   208   am
    69   172   171    1
    70    15    17   am
    71   171   170    1
    72   105   106    1
    73   109   106    1
    74   180   181    2
    75   180   179    1
    76   183   182    1
    77   195   187   am
    78   106   107    1
    79   208   209    2
    80   208   207    1
    81   128   126    1
    82   182   179    1
    83   182   184    1
    84   119   120   ar
    85   119   117   ar
    86   206   207    1
    87   187   188    2
    88   187   186    1
    89   179   178    1
    90   126   125    1
    91   185   186    1
    92   120   118   ar
    93   207   210    1
    94   117   115   ar
    95   107   110   am
    96   107   108    2
    97   110   111    1
    98   186   189    1
    99   210   211    1
   100   118   116   ar
   101   125   127    1
   102   125   122    1
   103   115   116   ar
   104   115   114    1
   105   211   212    1
   106   121   122    1
   107   189   190    1
   108    98    97    2
   109   122   123    1
   110   111   114    1
   111   111   112    1
   112   190   191   ar
   113   190   192   ar
   114   101   100   ar
   115   101   103   ar
   116    99   100    1
   117    99    96    1
   118   191   193   ar
   119   112   113    2
   120   192   194   ar
   121   212   213    1
   122    97    96    1
   123   100   102   ar
   124   103   104   ar
   125   193   194   ar
   126   155   156   ar
   127   155   153   ar
   128   156   154   ar
   129    96    95    1
   130   169   167    1
   131   213   214    1
   132   123   124    2
   133   102   104   ar
   134   167   166    1
   135   153   152   ar
   136   154   152   ar
   137   152   151    1
   138   168   166    1
   139    94    92   am
   140   166   163    1
   141   151   148    1
   142    89    88    2
   143   163   162    1
   144   163   164    1
   145   136   134    1
   146    91    92    1
   147    91    90    1
   148   146   145   ar
   149   146   144   ar
   150    92    93    2
   151   165   164    2
   152   145   143   ar
   153   148   149    1
   154   148   147    1
   155    87    90    1
   156    87    88    1
   157    87    86    1
   158   150   149    2
   159    82    81    2
   160   144   142   ar
   161   134   135    1
   162   134   133    1
   163   149   157   am
   164    84    83    1
   165   143   142   ar
   166    86    81   am
   167    81    80    1
   168   142   141    1
   169   129   130    1
   170   157   158    1
   171    83    80    1
   172    83    85    1
   173   138   137    1
   174   138   141    1
   175   138   139    1
   176   130   133    1
   177   130   131    1
   178    80    79    1
   179    63    62    2
   180   140   139    2
   181   158   159    1
   182   158   161    1
   183   160   159    2
   184    64    61    1
   185    62    61    1
   186   131   132    2
   187    79    67   am
   188    61    60    1
   189    68    67    2
   190    67    66    1
   191    60    51   am
   192    52    51    2
   193    65    66    1
   194    66    69    1
   195    51    50    1
   196    69    70    1
   197    75    72   ar
   198    75    77   ar
   199    70    72   ar
   200    70    71   ar
   201    72    74   ar
   202    77    78   ar
   203    71    73   ar
   204    74    73   ar
   205    74    76   ar
   206    50    53    1
   207    50    49    1
   208    78    76   ar
   209    53    54    1
   210    54    55   ar
   211    54    56   ar
   212    55    57   ar
   213    56    58   ar
   214    57    59   ar
   215    58    59   ar
