@<TRIPOS>MOLECULE
tmp/6hqbB48.pdb
 133 131 0 0 0
SMALL
GASTEIGER

@<TRIPOS>ATOM
      1  N        -46.3250  -36.0040  -11.1140 N.3    18  THR18      -0.1218
      2  CA       -46.4100  -34.5510  -11.0720 C.3    18  THR18       0.1862
      3  C        -47.5680  -34.0090  -11.8990 C.2    18  THR18       0.2287
      4  O        -48.0520  -32.9080  -11.6130 O.2    18  THR18      -0.2866
      5  CB       -45.0970  -33.9330  -11.5530 C.3    18  THR18       0.1770
      6  OG1      -44.7470  -34.4830  -12.8300 O.3    18  THR18      -0.2211
      7  CG2      -43.9800  -34.2180  -10.5590 C.3    18  THR18       0.0375
      8  N        -50.6250  -32.3200  -10.3370 N.3    21  ILE21      -0.1231
      9  CA       -50.6750  -30.8880  -10.0550 C.3    21  ILE21       0.1692
     10  C        -51.2070  -30.1270  -11.2630 C.2    21  ILE21       0.2592
     11  O        -52.1680  -29.3540  -11.1580 O.2    21  ILE21      -0.2718
     12  CB       -49.2860  -30.3720   -9.6400 C.3    21  ILE21       0.0266
     13  CG1      -48.6500  -31.3010   -8.6070 C.3    21  ILE21       0.0019
     14  CG2      -49.3950  -28.9610   -9.0910 C.3    21  ILE21       0.0020
     15  CD1      -47.1780  -31.0390   -8.3920 C.3    21  ILE21       0.0001
     16  N        -50.6030  -30.3540  -12.4340 N.am   22  TRP22      -0.1976
     17  CA       -50.8640  -29.5120  -13.5990 C.3    22  TRP22       0.1640
     18  C        -52.3310  -29.5610  -14.0050 C.2    22  TRP22       0.2290
     19  O        -53.0030  -28.5270  -14.0910 O.2    22  TRP22      -0.2864
     20  CB       -49.9690  -29.9420  -14.7610 C.3    22  TRP22       0.0576
     21  CG       -48.5110  -29.8700  -14.4540 C.ar   22  TRP22       0.0006
     22  CD1      -47.6760  -30.9160  -14.1870 C.ar   22  TRP22       0.0946
     23  CD2      -47.7080  -28.6850  -14.3800 C.ar   22  TRP22       0.0152
     24  NE1      -46.4020  -30.4560  -13.9540 N.ar   22  TRP22      -0.2442
     25  CE2      -46.3940  -29.0890  -14.0670 C.ar   22  TRP22       0.0810
     26  CE3      -47.9710  -27.3230  -14.5510 C.ar   22  TRP22       0.0012
     27  CZ2      -45.3470  -28.1780  -13.9200 C.ar   22  TRP22       0.0191
     28  CZ3      -46.9290  -26.4190  -14.4050 C.ar   22  TRP22       0.0001
     29  CH2      -45.6350  -26.8510  -14.0920 C.ar   22  TRP22       0.0015
     30  N        -35.5220  -37.1580  -18.6180 N.3   672  ILE672     -0.1245
     31  CA       -35.9330  -37.0950  -17.2200 C.3   672  ILE672      0.1561
     32  C        -35.6400  -38.4100  -16.5100 C.2   672  ILE672      0.2260
     33  O        -35.2330  -38.4160  -15.3450 O.2   672  ILE672     -0.2867
     34  CB       -37.4240  -36.7180  -17.1300 C.3   672  ILE672      0.0252
     35  CG1      -37.6150  -35.2240  -17.3820 C.3   672  ILE672      0.0019
     36  CG2      -38.0120  -37.1080  -15.7810 C.3   672  ILE672      0.0019
     37  CD1      -39.0580  -34.7950  -17.3660 C.3   672  ILE672      0.0001
     38  N        -32.1680  -38.4950  -15.3470 N.3   675  ILE675     -0.1231
     39  CA       -31.9380  -37.7010  -14.1410 C.3   675  ILE675      0.1692
     40  C        -32.4980  -38.4090  -12.9120 C.2   675  ILE675      0.2591
     41  O        -31.9380  -38.3110  -11.8120 O.2   675  ILE675     -0.2718
     42  CB       -32.5430  -36.2960  -14.3130 C.3   675  ILE675      0.0266
     43  CG1      -31.9630  -35.6210  -15.5580 C.3   675  ILE675      0.0019
     44  CG2      -32.2880  -35.4430  -13.0780 C.3   675  ILE675      0.0020
     45  CD1      -32.7300  -34.4020  -16.0080 C.3   675  ILE675      0.0001
     46  N        -33.6160  -39.1180  -13.0720 N.am  676  VAL676     -0.1980
     47  CA       -34.1670  -39.8940  -11.9620 C.3   676  VAL676      0.1595
     48  C        -33.1620  -40.9450  -11.5130 C.2   676  VAL676      0.2287
     49  O        -32.8880  -41.1010  -10.3140 O.2   676  VAL676     -0.2864
     50  CB       -35.5080  -40.5390  -12.3570 C.3   676  VAL676      0.0276
     51  CG1      -35.9920  -41.4340  -11.2390 C.3   676  VAL676      0.0022
     52  CG2      -36.5480  -39.4810  -12.6650 C.3   676  VAL676      0.0022
     53  N        -30.3280  -39.2570   -9.5890 N.3   679  HIS679     -0.1241
     54  CA       -30.5930  -38.8950   -8.2010 C.3   679  HIS679      0.1621
     55  C        -30.6900  -40.1290   -7.3140 C.2   679  HIS679      0.2264
     56  O        -30.1300  -40.1510   -6.2120 O.2   679  HIS679     -0.2867
     57  CB       -31.8670  -38.0650   -8.0820 C.3   679  HIS679      0.0745
     58  CG       -32.0760  -37.5000   -6.7120 C.ar  679  HIS679      0.0817
     59  ND1      -31.7120  -36.2140   -6.3760 N.ar  679  HIS679     -0.2268
     60  CD2      -32.5720  -38.0580   -5.5820 C.ar  679  HIS679      0.1154
     61  CE1      -31.9930  -35.9970   -5.1030 C.ar  679  HIS679      0.1986
     62  NE2      -32.5200  -37.0990   -4.6000 N.ar  679  HIS679     -0.2212
     63  N        -33.0170  -38.4150   -0.2490 N.3   688  VAL688     -0.1231
     64  CA       -33.9480  -37.3240   -0.5050 C.3   688  VAL688      0.1692
     65  C        -35.0010  -37.8270   -1.4870 C.2   688  VAL688      0.2592
     66  O        -34.9830  -37.4760   -2.6720 O.2   688  VAL688     -0.2718
     67  CB       -33.2060  -36.0830   -1.0390 C.3   688  VAL688      0.0266
     68  CG1      -34.1370  -34.8860   -1.1630 C.3   688  VAL688      0.0020
     69  CG2      -32.0250  -35.7510   -0.1380 C.3   688  VAL688      0.0020
     70  N        -35.9120  -38.6670   -1.0030 N.am  689  ARG689     -0.1966
     71  CA       -36.9010  -39.3080   -1.8590 C.3   689  ARG689      0.1729
     72  C        -38.0530  -38.3570   -2.1590 C.2   689  ARG689      0.2616
     73  O        -38.3510  -37.4470   -1.3820 O.2   689  ARG689     -0.2715
     74  CB       -37.4340  -40.5790   -1.1970 C.3   689  ARG689      0.0348
     75  CG       -38.2430  -40.3150    0.0650 C.3   689  ARG689      0.0492
     76  CD       -38.4790  -41.5780    0.8770 C.3   689  ARG689      0.2205
     77  NE       -39.4940  -41.3750    1.9090 N.pl3 689  ARG689     -0.0865
     78  CZ       -39.6960  -42.1980    2.9330 C.cat 689  ARG689      0.5346
     79  NH1      -38.9450  -43.2810    3.0740 N.pl3 689  ARG689      0.1354
     80  NH2      -40.6450  -41.9360    3.8210 N.pl3 689  ARG689      0.1354
     81  N        -38.7070  -38.5790   -3.2970 N.am  690  TRP690     -0.1960
     82  CA       -39.7930  -37.7220   -3.7510 C.3   690  TRP690      0.1771
     83  C        -41.1210  -38.4650   -3.7290 C.2   690  TRP690      0.2620
     84  O        -41.2080  -39.6220   -4.1500 O.2   690  TRP690     -0.2715
     85  CB       -39.5320  -37.1780   -5.1610 C.3   690  TRP690      0.0590
     86  CG       -39.1300  -38.2170   -6.1490 C.ar  690  TRP690      0.0006
     87  CD1      -39.9490  -39.0790   -6.8180 C.ar  690  TRP690      0.0946
     88  CD2      -37.8000  -38.5000   -6.5940 C.ar  690  TRP690      0.0152
     89  NE1      -39.2100  -39.8880   -7.6450 N.ar  690  TRP690     -0.2442
     90  CE2      -37.8870  -39.5520   -7.5260 C.ar  690  TRP690      0.0810
     91  CE3      -36.5420  -37.9690   -6.2910 C.ar  690  TRP690      0.0012
     92  CZ2      -36.7640  -40.0830   -8.1580 C.ar  690  TRP690      0.0191
     93  CZ3      -35.4310  -38.4970   -6.9210 C.ar  690  TRP690      0.0001
     94  CH2      -35.5480  -39.5420   -7.8430 C.ar  690  TRP690      0.0015
     95  N        -42.1510  -37.7840   -3.2260 N.am  691  LYS691     -0.1963
     96  CA       -43.5090  -38.3070   -3.3120 C.3   691  LYS691      0.1728
     97  C        -44.0360  -38.2130   -4.7380 C.2   691  LYS691      0.2616
     98  O        -44.6070  -39.1750   -5.2670 O.2   691  LYS691     -0.2715
     99  CB       -44.4170  -37.5500   -2.3420 C.3   691  LYS691      0.0311
    100  CG       -45.8770  -37.4820   -2.7620 C.3   691  LYS691      0.0038
    101  CD       -46.5740  -38.8230   -2.6390 C.3   691  LYS691      0.0206
    102  CE       -48.0160  -38.7260   -3.1080 C.3   691  LYS691      0.1093
    103  NZ       -48.7410  -37.6250   -2.4160 N.3   691  LYS691     -0.1314
    104  N        -43.8510  -37.0610   -5.3770 N.am  692  ASP692     -0.1971
    105  CA       -44.3120  -36.8640   -6.7450 C.3   692  ASP692      0.1709
    106  C        -43.2990  -37.4520   -7.7150 C.2   692  ASP692      0.2293
    107  O        -42.1610  -36.9770   -7.7990 O.2   692  ASP692     -0.2864
    108  CB       -44.5230  -35.3810   -7.0280 C.3   692  ASP692      0.1436
    109  CG       -45.4980  -34.7470   -6.0710 C.2   692  ASP692      0.3671
    110  OD1      -46.4450  -35.4390   -5.6440 O.co2 692  ASP692     -0.2456
    111  OD2      -45.3110  -33.5590   -5.7430 O.co2 692  ASP692     -0.2456
    112  N        -41.5540  -37.5910  -10.9160 N.3   694  PRO694     -0.2102
    113  CA       -41.4370  -36.5600  -11.9570 C.3   694  PRO694      0.1504
    114  C        -41.6140  -37.1470  -13.3500 C.2   694  PRO694      0.2575
    115  O        -40.9570  -38.1230  -13.7180 O.2   694  PRO694     -0.2718
    116  CB       -40.0180  -36.0140  -11.7570 C.3   694  PRO694      0.0282
    117  CG       -39.5820  -36.5090  -10.4040 C.3   694  PRO694      0.0208
    118  CD       -40.2780  -37.8150  -10.2210 C.3   694  PRO694      0.0893
    119  N        -42.5030  -36.5320  -14.1300 N.am  695  VAL695     -0.1980
    120  CA       -42.7780  -36.9570  -15.4950 C.3   695  VAL695      0.1595
    121  C        -42.6640  -35.7500  -16.4150 C.2   695  VAL695      0.2287
    122  O        -42.7140  -34.5970  -15.9800 O.2   695  VAL695     -0.2864
    123  CB       -44.1700  -37.6150  -15.6380 C.3   695  VAL695      0.0276
    124  CG1      -44.2490  -38.8840  -14.8040 C.3   695  VAL695      0.0022
    125  CG2      -45.2670  -36.6410  -15.2360 C.3   695  VAL695      0.0022
    126  N        -43.7970  -33.1720  -19.5150 N.3   697  LEU697     -0.1245
    127  CA       -45.0450  -32.4830  -19.8190 C.3   697  LEU697      0.1561
    128  C        -45.7770  -33.1790  -20.9600 C.2   697  LEU697      0.2260
    129  O        -45.1740  -33.5610  -21.9670 O.2   697  LEU697     -0.2867
    130  CB       -44.7690  -31.0250  -20.1880 C.3   697  LEU697      0.0270
    131  CG       -43.8310  -30.2540  -19.2580 C.3   697  LEU697      0.0019
    132  CD1      -43.6670  -28.8200  -19.7300 C.3   697  LEU697      0.0001
    133  CD2      -44.3340  -30.2940  -17.8260 C.3   697  LEU697      0.0001
@<TRIPOS>BOND
     1   129   128    2
     2   128   127    1
     3   130   127    1
     4   130   131    1
     5   127   126    1
     6   132   131    1
     7   131   133    1
     8    30    31    1
     9    35    37    1
    10    35    34    1
    11    31    34    1
    12    31    32    1
    13    34    36    1
    14    32    33    2
    15   121   122    2
    16   121   120    1
    17    45    43    1
    18   123   120    1
    19   123   125    1
    20   123   124    1
    21    43    42    1
    22   120   119    1
    23    38    39    1
    24    20    21    1
    25    20    17    1
    26    26    28   ar
    27    26    23   ar
    28    21    23   ar
    29    21    22   ar
    30    28    29   ar
    31    23    25   ar
    32    42    39    1
    33    42    44    1
    34    22    24   ar
    35    39    40    1
    36   119   114   am
    37    29    27   ar
    38    19    18    2
    39    25    24   ar
    40    25    27   ar
    41    18    17    1
    42   115   114    2
    43    17    16    1
    44   114   113    1
    45    46    40   am
    46    46    47    1
    47    40    41    2
    48     6     5    1
    49    52    50    1
    50    16    10   am
    51    50    47    1
    52    50    51    1
    53    47    48    1
    54   113   116    1
    55   113   112    1
    56     3     4    2
    57     3     2    1
    58   116   117    1
    59     5     2    1
    60     5     7    1
    61    48    49    2
    62    10    11    2
    63    10     9    1
    64     1     2    1
    65   112   118    1
    66   117   118    1
    67     8     9    1
    68     9    12    1
    69    12    14    1
    70    12    13    1
    71    53    54    1
    72    13    15    1
    73    54    57    1
    74    54    55    1
    75    92    94   ar
    76    92    90   ar
    77    57    58    1
    78    94    93   ar
    79   107   106    2
    80   106   105    1
    81    89    90   ar
    82    89    87   ar
    83    90    88   ar
    84    55    56    2
    85   108   105    1
    86   108   109    1
    87    93    91   ar
    88    87    86   ar
    89   105   104    1
    90    58    59   ar
    91    58    60   ar
    92    88    91   ar
    93    88    86   ar
    94    59    61   ar
    95    86    85    1
    96   109   111   ar
    97   109   110   ar
    98    60    62   ar
    99   104    97   am
   100    98    97    2
   101    85    82    1
   102    61    62   ar
   103    97    96    1
   104    84    83    2
   105    82    83    1
   106    82    81    1
   107    83    95   am
   108    96    95    1
   109    96    99    1
   110    81    72   am
   111   102   101    1
   112   102   103    1
   113   100   101    1
   114   100    99    1
   115    66    65    2
   116    72    71    1
   117    72    73    2
   118    71    74    1
   119    71    70    1
   120    65    70   am
   121    65    64    1
   122    74    75    1
   123    68    67    1
   124    67    64    1
   125    67    69    1
   126    64    63    1
   127    75    76    1
   128    76    77    1
   129    77    78    2
   130    78    79    1
   131    78    80    1
