@<TRIPOS>MOLECULE
tmp/6hqbA26.pdb
 94 91 0 0 0
SMALL
GASTEIGER

@<TRIPOS>ATOM
      1  N        -23.6250  -41.7570  -18.5440 N.3   436  ILE436     -0.1245
      2  CA       -23.0550  -40.7940  -19.4790 C.3   436  ILE436      0.1561
      3  C        -24.0730  -39.7200  -19.8300 C.2   436  ILE436      0.2260
      4  O        -23.7480  -38.5250  -19.8640 O.2   436  ILE436     -0.2867
      5  CB       -22.5460  -41.5190  -20.7370 C.3   436  ILE436      0.0252
      6  CG1      -21.7260  -42.7460  -20.3430 C.3   436  ILE436      0.0019
      7  CG2      -21.7250  -40.5730  -21.5990 C.3   436  ILE436      0.0019
      8  CD1      -21.8220  -43.8780  -21.3350 C.3   436  ILE436      0.0001
      9  N        -24.7330  -37.3430  -16.8770 N.3   439  HIS439     -0.1226
     10  CA       -23.5740  -36.4960  -16.6220 C.3   439  HIS439      0.1752
     11  C        -23.4500  -35.4070  -17.6790 C.2   439  HIS439      0.2595
     12  O        -23.1670  -34.2480  -17.3520 O.2   439  HIS439     -0.2718
     13  CB       -22.3060  -37.3440  -16.5530 C.3   439  HIS439      0.0759
     14  CG       -22.2020  -38.1620  -15.3030 C.ar  439  HIS439      0.0818
     15  ND1      -22.7080  -39.4400  -15.2060 N.ar  439  HIS439     -0.2268
     16  CD2      -21.6630  -37.8780  -14.0940 C.ar  439  HIS439      0.1154
     17  CE1      -22.4790  -39.9110  -13.9930 C.ar  439  HIS439      0.1986
     18  NE2      -21.8460  -38.9820  -13.2990 N.ar  439  HIS439     -0.2212
     19  N        -23.6830  -35.7490  -18.9490 N.am  440  LEU440     -0.1980
     20  CA       -23.6700  -34.7250  -19.9880 C.3   440  LEU440      0.1596
     21  C        -24.8240  -33.7460  -19.8170 C.2   440  LEU440      0.2287
     22  O        -24.6780  -32.5610  -20.1280 O.2   440  LEU440     -0.2864
     23  CB       -23.7150  -35.3730  -21.3710 C.3   440  LEU440      0.0297
     24  CG       -23.3080  -34.4740  -22.5380 C.3   440  LEU440      0.0022
     25  CD1      -22.1040  -33.6300  -22.1640 C.3   440  LEU440      0.0001
     26  CD2      -22.9900  -35.3220  -23.7480 C.3   440  LEU440      0.0001
     27  N        -25.9930  -32.7570  -16.8730 N.3   442  TRP442     -0.1227
     28  CA       -25.4990  -31.8410  -15.8490 C.3   442  TRP442      0.1737
     29  C        -24.4740  -30.8700  -16.4230 C.2   442  TRP442      0.2595
     30  O        -24.4920  -29.6740  -16.1030 O.2   442  TRP442     -0.2718
     31  CB       -24.9010  -32.6320  -14.6850 C.3   442  TRP442      0.0564
     32  CG       -24.2440  -31.7700  -13.6530 C.ar  442  TRP442      0.0003
     33  CD1      -24.8360  -31.1930  -12.5670 C.ar  442  TRP442      0.0946
     34  CD2      -22.8660  -31.3810  -13.6110 C.ar  442  TRP442      0.0152
     35  NE1      -23.9130  -30.4690  -11.8530 N.ar  442  TRP442     -0.2442
     36  CE2      -22.6950  -30.5690  -12.4730 C.ar  442  TRP442      0.0810
     37  CE3      -21.7600  -31.6410  -14.4260 C.ar  442  TRP442      0.0012
     38  CZ2      -21.4650  -30.0150  -12.1300 C.ar  442  TRP442      0.0191
     39  CZ3      -20.5400  -31.0910  -14.0840 C.ar  442  TRP442      0.0001
     40  CH2      -20.4020  -30.2870  -12.9460 C.ar  442  TRP442      0.0015
     41  N        -23.5710  -31.3650  -17.2740 N.am  443  VAL443     -0.1980
     42  CA       -22.5430  -30.5020  -17.8540 C.3   443  VAL443      0.1595
     43  C        -23.1780  -29.4290  -18.7280 C.2   443  VAL443      0.2287
     44  O        -22.7620  -28.2650  -18.7090 O.2   443  VAL443     -0.2864
     45  CB       -21.5190  -31.3350  -18.6460 C.3   443  VAL443      0.0276
     46  CG1      -20.5170  -30.4230  -19.3350 C.3   443  VAL443      0.0022
     47  CG2      -20.8010  -32.2930  -17.7300 C.3   443  VAL443      0.0022
     48  N        -24.7350  -26.8040  -16.5430 N.3   446  PHE446     -0.1241
     49  CA       -23.6810  -25.9670  -15.9830 C.3   446  PHE446      0.1605
     50  C        -23.1890  -24.9500  -17.0040 C.2   446  PHE446      0.2264
     51  O        -23.1160  -23.7500  -16.7170 O.2   446  PHE446     -0.2867
     52  CB       -22.5280  -26.8450  -15.4940 C.3   446  PHE446      0.0534
     53  CG       -21.3290  -26.0690  -15.0300 C.ar  446  PHE446     -0.0203
     54  CD1      -21.2970  -25.5090  -13.7640 C.ar  446  PHE446     -0.0042
     55  CD2      -20.2300  -25.9050  -15.8590 C.ar  446  PHE446     -0.0042
     56  CE1      -20.1950  -24.7950  -13.3330 C.ar  446  PHE446     -0.0003
     57  CE2      -19.1240  -25.1930  -15.4360 C.ar  446  PHE446     -0.0003
     58  CZ       -19.1060  -24.6370  -14.1700 C.ar  446  PHE446     -0.0000
     59  N        -18.8370  -23.3870  -26.3370 N.3   539  ALA539     -0.1245
     60  CA       -18.6730  -24.6740  -25.6710 C.3   539  ALA539      0.1562
     61  C        -20.0110  -25.2220  -25.1910 C.2   539  ALA539      0.2260
     62  O        -20.2900  -26.4170  -25.3410 O.2   539  ALA539     -0.2867
     63  CB       -17.6960  -24.5420  -24.5040 C.3   539  ALA539      0.0290
     64  N        -22.1710  -26.4330  -28.2300 N.3   542  ILE542     -0.1231
     65  CA       -21.6250  -27.6820  -28.7530 C.3   542  ILE542      0.1692
     66  C        -21.9080  -28.8330  -27.7930 C.2   542  ILE542      0.2592
     67  O        -22.1940  -29.9580  -28.2190 O.2   542  ILE542     -0.2718
     68  CB       -20.1180  -27.5290  -29.0350 C.3   542  ILE542      0.0266
     69  CG1      -19.8890  -26.5060  -30.1500 C.3   542  ILE542      0.0019
     70  CG2      -19.5000  -28.8660  -29.4090 C.3   542  ILE542      0.0020
     71  CD1      -18.4310  -26.2840  -30.4900 C.3   542  ILE542      0.0001
     72  N        -21.8490  -28.5680  -26.4840 N.am  543  HIS543     -0.1976
     73  CA       -22.1280  -29.6160  -25.5070 C.3   543  HIS543      0.1656
     74  C        -23.5700  -30.0890  -25.5980 C.2   543  HIS543      0.2291
     75  O        -23.8400  -31.2940  -25.5330 O.2   543  HIS543     -0.2864
     76  CB       -21.8220  -29.1190  -24.0960 C.3   543  HIS543      0.0771
     77  CG       -20.4850  -29.5510  -23.5840 C.ar  543  HIS543      0.0820
     78  ND1      -19.3070  -28.9570  -23.9830 N.ar  543  HIS543     -0.2267
     79  CD2      -20.1380  -30.5260  -22.7110 C.ar  543  HIS543      0.1154
     80  CE1      -18.2930  -29.5430  -23.3730 C.ar  543  HIS543      0.1986
     81  NE2      -18.7700  -30.4980  -22.5940 N.ar  543  HIS543     -0.2212
     82  N        -23.9700  -32.1790  -28.7170 N.3   546  ALA546     -0.1245
     83  CA       -23.3960  -33.5030  -28.5050 C.3   546  ALA546      0.1562
     84  C        -24.2910  -34.3580  -27.6190 C.2   546  ALA546      0.2260
     85  O        -24.4470  -35.5580  -27.8640 O.2   546  ALA546     -0.2867
     86  CB       -22.0000  -33.3800  -27.8960 C.3   546  ALA546      0.0290
     87  N        -25.9440  -37.7030  -29.0310 N.3   550  LEU550     -0.1245
     88  CA       -25.4630  -38.8930  -28.3450 C.3   550  LEU550      0.1561
     89  C        -26.6010  -39.7080  -27.7520 C.2   550  LEU550      0.2260
     90  O        -26.6040  -40.9380  -27.8730 O.2   550  LEU550     -0.2867
     91  CB       -24.4740  -38.5010  -27.2460 C.3   550  LEU550      0.0270
     92  CG       -23.7930  -39.6730  -26.5390 C.3   550  LEU550      0.0019
     93  CD1      -22.9480  -40.4660  -27.5240 C.3   550  LEU550      0.0001
     94  CD2      -22.9530  -39.1830  -25.3710 C.3   550  LEU550      0.0001
@<TRIPOS>BOND
     1    71    69    1
     2    69    68    1
     3    70    68    1
     4    68    65    1
     5    87    88    1
     6    65    64    1
     7    65    66    1
     8    82    83    1
     9    83    86    1
    10    83    84    1
    11    88    89    1
    12    88    91    1
    13    67    66    2
    14    90    89    2
    15    85    84    2
    16    66    72   am
    17    93    92    1
    18    91    92    1
    19    92    94    1
    20    72    73    1
    21    59    60    1
    22    60    61    1
    23    60    63    1
    24    74    75    2
    25    74    73    1
    26    73    76    1
    27    62    61    2
    28    76    77    1
    29    78    77   ar
    30    78    80   ar
    31    26    24    1
    32    77    79   ar
    33    80    81   ar
    34    79    81   ar
    35    24    25    1
    36    24    23    1
    37     7     5    1
    38    23    20    1
    39     8     6    1
    40     5     6    1
    41     5     2    1
    42    22    21    2
    43    20    21    1
    44    20    19    1
    45     4     3    2
    46     3     2    1
    47     2     1    1
    48    46    45    1
    49    19    11   am
    50    43    44    2
    51    43    42    1
    52    45    42    1
    53    45    47    1
    54    42    41    1
    55    11    12    2
    56    11    10    1
    57    41    29   am
    58    50    51    2
    59    50    49    1
    60     9    10    1
    61    27    28    1
    62    10    13    1
    63    13    14    1
    64    48    49    1
    65    29    30    2
    66    29    28    1
    67    49    52    1
    68    55    57   ar
    69    55    53   ar
    70    28    31    1
    71    52    53    1
    72    57    58   ar
    73    14    15   ar
    74    14    16   ar
    75    15    17   ar
    76    53    54   ar
    77    31    32    1
    78    37    39   ar
    79    37    34   ar
    80    58    56   ar
    81    16    18   ar
    82    39    40   ar
    83    17    18   ar
    84    54    56   ar
    85    32    34   ar
    86    32    33   ar
    87    34    36   ar
    88    40    38   ar
    89    33    35   ar
    90    36    38   ar
    91    36    35   ar
