@<TRIPOS>MOLECULE
tmp/6hqbA13.pdb
 107 99 0 0 0
SMALL
GASTEIGER

@<TRIPOS>ATOM
      1  N         -5.1420  -54.7460  -38.4680 N.3   321  MET321     -0.1245
      2  CA        -5.8920  -53.9650  -37.4900 C.3   321  MET321      0.1570
      3  C         -6.6800  -54.8610  -36.5470 C.2   321  MET321      0.2261
      4  O         -6.9300  -54.4850  -35.3960 O.2   321  MET321     -0.2867
      5  CB        -6.8210  -52.9890  -38.2090 C.3   321  MET321      0.0387
      6  CG        -6.1580  -52.2870  -39.3800 C.3   321  MET321      0.0595
      7  SD        -7.1390  -50.9540  -40.0880 S.3   321  MET321     -0.1393
      8  CE        -7.2850  -49.8560  -38.6800 C.3   321  MET321      0.0692
      9  N         -4.3450  -55.5070  -33.7000 N.3   324  ILE324     -0.1231
     10  CA        -4.1650  -54.3370  -32.8460 C.3   324  ILE324      0.1692
     11  C         -5.3880  -54.1290  -31.9640 C.2   324  ILE324      0.2591
     12  O         -5.2690  -53.7860  -30.7820 O.2   324  ILE324     -0.2718
     13  CB        -3.8670  -53.0940  -33.7040 C.3   324  ILE324      0.0266
     14  CG1       -2.8250  -53.4250  -34.7740 C.3   324  ILE324      0.0019
     15  CG2       -3.3780  -51.9540  -32.8330 C.3   324  ILE324      0.0020
     16  CD1       -2.4700  -52.2530  -35.6630 C.3   324  ILE324      0.0001
     17  N         -6.5810  -54.3420  -32.5200 N.am  325  LEU325     -0.1980
     18  CA        -7.7970  -54.1570  -31.7360 C.3   325  LEU325      0.1596
     19  C         -7.9570  -55.2560  -30.6930 C.2   325  LEU325      0.2287
     20  O         -8.3110  -54.9750  -29.5410 O.2   325  LEU325     -0.2864
     21  CB        -9.0130  -54.1030  -32.6590 C.3   325  LEU325      0.0297
     22  CG        -9.0420  -52.9270  -33.6390 C.3   325  LEU325      0.0022
     23  CD1      -10.3110  -52.9530  -34.4740 C.3   325  LEU325      0.0001
     24  CD2       -8.8970  -51.6000  -32.9060 C.3   325  LEU325      0.0001
     25  N         -5.5220  -54.5330  -27.5930 N.3   328  HIS328     -0.1241
     26  CA        -5.8300  -53.4650  -26.6460 C.3   328  HIS328      0.1621
     27  C         -6.9890  -53.8840  -25.7510 C.2   328  HIS328      0.2264
     28  O         -8.1420  -53.9200  -26.1920 O.2   328  HIS328     -0.2867
     29  CB        -6.1610  -52.1750  -27.3900 C.3   328  HIS328      0.0745
     30  CG        -4.9760  -51.5250  -28.0320 C.ar  328  HIS328      0.0817
     31  ND1       -4.2810  -52.1020  -29.0730 N.ar  328  HIS328     -0.2268
     32  CD2       -4.3640  -50.3430  -27.7810 C.ar  328  HIS328      0.1154
     33  CE1       -3.2920  -51.3040  -29.4350 C.ar  328  HIS328      0.1986
     34  NE2       -3.3200  -50.2300  -28.6670 N.ar  328  HIS328     -0.2212
     35  N        -12.0370  -51.7290  -19.3530 N.3   333  THR333     -0.1218
     36  CA       -12.9500  -51.9970  -20.4570 C.3   333  THR333      0.1862
     37  C        -13.0950  -53.4830  -20.7640 C.2   333  THR333      0.2287
     38  O        -13.7180  -53.8370  -21.7710 O.2   333  THR333     -0.2866
     39  CB       -12.4890  -51.2600  -21.7160 C.3   333  THR333      0.1770
     40  OG1      -11.2000  -51.7470  -22.1060 O.3   333  THR333     -0.2211
     41  CG2      -12.4110  -49.7610  -21.4610 C.3   333  THR333      0.0375
     42  N        -11.1650  -53.4680  -27.5890 N.3   337  HIS337     -0.1241
     43  CA       -11.5630  -53.2730  -28.9770 C.3   337  HIS337      0.1621
     44  C        -11.8900  -54.5730  -29.7030 C.2   337  HIS337      0.2264
     45  O        -11.9520  -54.5700  -30.9390 O.2   337  HIS337     -0.2867
     46  CB       -10.4630  -52.5310  -29.7400 C.3   337  HIS337      0.0745
     47  CG       -10.0580  -51.2310  -29.1180 C.ar  337  HIS337      0.0817
     48  ND1       -9.4930  -51.1470  -27.8630 N.ar  337  HIS337     -0.2268
     49  CD2      -10.1220  -49.9620  -29.5870 C.ar  337  HIS337      0.1154
     50  CE1       -9.2350  -49.8820  -27.5830 C.ar  337  HIS337      0.1986
     51  NE2       -9.6050  -49.1430  -28.6130 N.ar  337  HIS337     -0.2212
     52  N        -14.3330  -54.9280  -32.9630 N.3   340  LEU340     -0.1245
     53  CA       -14.4980  -53.6470  -33.6430 C.3   340  LEU340      0.1561
     54  C        -14.0800  -53.7290  -35.1070 C.2   340  LEU340      0.2260
     55  O        -14.6860  -53.0760  -35.9650 O.2   340  LEU340     -0.2867
     56  CB       -13.7010  -52.5600  -32.9200 C.3   340  LEU340      0.0270
     57  CG       -14.3890  -51.8210  -31.7680 C.3   340  LEU340      0.0019
     58  CD1      -14.8420  -52.7720  -30.6680 C.3   340  LEU340      0.0001
     59  CD2      -13.4640  -50.7550  -31.2040 C.3   340  LEU340      0.0001
     60  N        -16.9300  -55.0700  -36.7380 N.3   343  ILE343     -0.1231
     61  CA       -17.9710  -54.0470  -36.8050 C.3   343  ILE343      0.1692
     62  C        -17.7550  -53.1560  -38.0200 C.2   343  ILE343      0.2591
     63  O        -18.6780  -52.9010  -38.8030 O.2   343  ILE343     -0.2718
     64  CB       -18.0010  -53.2190  -35.5070 C.3   343  ILE343      0.0266
     65  CG1      -18.6730  -53.9990  -34.3790 C.3   343  ILE343      0.0019
     66  CG2      -18.7140  -51.8930  -35.7290 C.3   343  ILE343      0.0020
     67  CD1      -18.7490  -53.2250  -33.0840 C.3   343  ILE343      0.0001
     68  N        -16.5280  -52.6770  -38.1990 N.am  344  LEU344     -0.1980
     69  CA       -16.2230  -51.7100  -39.2430 C.3   344  LEU344      0.1596
     70  C        -15.8820  -52.3530  -40.5810 C.2   344  LEU344      0.2287
     71  O        -15.6490  -51.6280  -41.5540 O.2   344  LEU344     -0.2864
     72  CB       -15.0740  -50.8050  -38.7910 C.3   344  LEU344      0.0297
     73  CG       -15.3890  -49.9580  -37.5590 C.3   344  LEU344      0.0022
     74  CD1      -14.1970  -49.1090  -37.1630 C.3   344  LEU344      0.0001
     75  CD2      -16.6030  -49.0870  -37.8210 C.3   344  LEU344      0.0001
     76  N        -18.1150  -42.6790  -38.5770 N.3   354  ILE354     -0.1245
     77  CA       -16.7740  -42.1970  -38.2610 C.3   354  ILE354      0.1561
     78  C        -16.2830  -41.2250  -39.3220 C.2   354  ILE354      0.2260
     79  O        -15.7330  -40.1620  -39.0100 O.2   354  ILE354     -0.2867
     80  CB       -15.8070  -43.3900  -38.1120 C.3   354  ILE354      0.0252
     81  CG1      -16.3950  -44.4470  -37.1770 C.3   354  ILE354      0.0019
     82  CG2      -14.4530  -42.9210  -37.6040 C.3   354  ILE354      0.0019
     83  CD1      -15.5470  -45.6910  -37.0650 C.3   354  ILE354      0.0001
     84  N        -15.9410  -52.5940  -25.8700 N.3   425  LEU425     -0.1231
     85  CA       -16.1510  -51.1600  -25.7000 C.3   425  LEU425      0.1693
     86  C        -17.6140  -50.7950  -25.9190 C.2   425  LEU425      0.2591
     87  O        -18.2400  -50.1550  -25.0650 O.2   425  LEU425     -0.2718
     88  CB       -15.2510  -50.3780  -26.6580 C.3   425  LEU425      0.0284
     89  CG       -13.7430  -50.6210  -26.5620 C.3   425  LEU425      0.0019
     90  CD1      -12.9990  -49.7890  -27.5930 C.3   425  LEU425      0.0001
     91  CD2      -13.2340  -50.3210  -25.1630 C.3   425  LEU425      0.0001
     92  N        -18.1780  -51.2140  -27.0540 N.am  426  LEU426     -0.1980
     93  CA       -19.5510  -50.8520  -27.3950 C.3   426  LEU426      0.1596
     94  C        -20.5490  -51.4670  -26.4190 C.2   426  LEU426      0.2287
     95  O        -21.4690  -50.7880  -25.9430 O.2   426  LEU426     -0.2864
     96  CB       -19.8570  -51.2900  -28.8280 C.3   426  LEU426      0.0297
     97  CG       -21.2530  -50.9870  -29.3730 C.3   426  LEU426      0.0022
     98  CD1      -21.4710  -49.4860  -29.4820 C.3   426  LEU426      0.0001
     99  CD2      -21.4550  -51.6680  -30.7190 C.3   426  LEU426      0.0001
    100  N        -20.3180  -49.7690  -23.0560 N.3   429  MET429     -0.1245
    101  CA       -20.8910  -48.4300  -23.1440 C.3   429  MET429      0.1570
    102  C        -22.4110  -48.4760  -23.1660 C.2   429  MET429      0.2261
    103  O        -23.0650  -47.5770  -22.6250 O.2   429  MET429     -0.2867
    104  CB       -20.3710  -47.7040  -24.3820 C.3   429  MET429      0.0387
    105  CG       -18.9710  -47.1470  -24.2350 C.3   429  MET429      0.0595
    106  SD       -18.7830  -45.6110  -25.1550 S.3   429  MET429     -0.1393
    107  CE       -19.8780  -44.5320  -24.2410 C.3   429  MET429      0.0692
@<TRIPOS>BOND
     1    71    70    2
     2    70    69    1
     3     7     6    1
     4     7     8    1
     5     6     5    1
     6    78    79    2
     7    78    77    1
     8    69    72    1
     9    69    68    1
    10    63    62    2
    11    72    73    1
    12    76    77    1
    13     1     2    1
    14    77    80    1
    15     5     2    1
    16    68    62   am
    17    80    82    1
    18    80    81    1
    19    62    61    1
    20    75    73    1
    21    73    74    1
    22     2     3    1
    23    81    83    1
    24    61    60    1
    25    61    64    1
    26     3     4    2
    27    55    54    2
    28    66    64    1
    29    16    14    1
    30    64    65    1
    31    54    53    1
    32    14    13    1
    33    23    22    1
    34    65    67    1
    35    13    10    1
    36    13    15    1
    37     9    10    1
    38    53    52    1
    39    53    56    1
    40    22    24    1
    41    22    21    1
    42    56    57    1
    43    10    11    1
    44    21    18    1
    45    17    11   am
    46    17    18    1
    47    11    12    2
    48    57    59    1
    49    57    58    1
    50    18    19    1
    51    45    44    2
    52    99    97    1
    53    19    20    2
    54    46    47    1
    55    46    43    1
    56    44    43    1
    57    49    47   ar
    58    49    51   ar
    59    98    97    1
    60    33    31   ar
    61    33    34   ar
    62    97    96    1
    63    47    48   ar
    64    31    30   ar
    65    43    42    1
    66    96    93    1
    67    34    32   ar
    68    51    50   ar
    69    30    32   ar
    70    30    29    1
    71    48    50   ar
    72    25    26    1
    73    90    89    1
    74    93    92    1
    75    93    94    1
    76    29    26    1
    77    92    86   am
    78    88    89    1
    79    88    85    1
    80    26    27    1
    81    89    91    1
    82    94    95    2
    83    28    27    2
    84    86    85    1
    85    86    87    2
    86    84    85    1
    87   106   107    1
    88   106   105    1
    89   104   105    1
    90   104   101    1
    91   102   101    1
    92   102   103    2
    93   101   100    1
    94    40    39    1
    95    38    37    2
    96    39    41    1
    97    39    36    1
    98    37    36    1
    99    36    35    1
