@<TRIPOS>MOLECULE
tmp/6hqbF01.pdb
 84 79 0 0 0
SMALL
GASTEIGER

@<TRIPOS>ATOM
      1  N        -56.2850  -24.2980  -68.9240 N.3    79  ILE79      -0.1231
      2  CA       -55.4880  -25.2150  -68.1090 C.3    79  ILE79       0.1692
      3  C        -56.3930  -26.1690  -67.3380 C.2    79  ILE79       0.2592
      4  O        -56.2590  -27.3970  -67.4260 O.2    79  ILE79      -0.2718
      5  CB       -54.5760  -24.4300  -67.1490 C.3    79  ILE79       0.0266
      6  CG1      -53.5830  -23.5580  -67.9200 C.3    79  ILE79       0.0019
      7  CG2      -53.8450  -25.3790  -66.2120 C.3    79  ILE79       0.0020
      8  CD1      -52.7790  -22.6310  -67.0300 C.3    79  ILE79       0.0001
      9  N        -57.3210  -25.6100  -66.5590 N.am   80  GLY80      -0.1957
     10  CA       -58.1430  -26.4390  -65.6940 C.3    80  GLY80       0.1869
     11  C        -59.0410  -27.3830  -66.4690 C.2    80  GLY80       0.2309
     12  O        -59.2660  -28.5230  -66.0560 O.2    80  GLY80      -0.2863
     13  N        -58.5460  -28.6730  -69.6480 N.3    82  VAL82      -0.1231
     14  CA       -57.8070  -29.7890  -70.2310 C.3    82  VAL82       0.1692
     15  C        -57.3320  -30.7410  -69.1390 C.2    82  VAL82       0.2593
     16  O        -57.3330  -31.9650  -69.3350 O.2    82  VAL82      -0.2718
     17  CB       -56.6410  -29.2940  -71.1110 C.3    82  VAL82       0.0266
     18  CG1      -57.1620  -28.3750  -72.2030 C.3    82  VAL82       0.0020
     19  CG2      -55.5670  -28.6060  -70.2820 C.3    82  VAL82       0.0020
     20  N        -56.9660  -30.2150  -67.9630 N.am   83  GLY83      -0.1942
     21  CA       -56.5980  -31.0890  -66.8610 C.3    83  GLY83       0.2014
     22  C        -57.7430  -31.9700  -66.4010 C.2    83  GLY83       0.2638
     23  O        -57.5650  -33.1720  -66.1950 O.2    83  GLY83      -0.2714
     24  N        -58.9350  -31.3870  -66.2450 N.am   84  ARG84      -0.1977
     25  CA       -60.1010  -32.1570  -65.8180 C.3    84  ARG84       0.1597
     26  C        -60.4880  -33.2080  -66.8530 C.2    84  ARG84       0.2287
     27  O        -60.7810  -34.3590  -66.5020 O.2    84  ARG84      -0.2864
     28  CB       -61.2700  -31.2100  -65.5510 C.3    84  ARG84       0.0334
     29  CG       -62.5580  -31.8890  -65.1350 C.3    84  ARG84       0.0492
     30  CD       -63.6540  -30.8560  -64.9330 C.3    84  ARG84       0.2205
     31  NE       -64.8950  -31.4590  -64.4650 N.pl3  84  ARG84      -0.0865
     32  CZ       -65.8180  -31.9790  -65.2660 C.cat  84  ARG84       0.5346
     33  NH1      -65.6370  -31.9700  -66.5800 N.pl3  84  ARG84       0.1354
     34  NH2      -66.9190  -32.5100  -64.7550 N.pl3  84  ARG84       0.1354
     35  N        -58.5530  -34.6150  -69.1390 N.3    86  TYR86      -0.1227
     36  CA       -57.5410  -35.6680  -69.1640 C.3    86  TYR86       0.1736
     37  C        -57.6410  -36.5620  -67.9310 C.2    86  TYR86       0.2595
     38  O        -57.4440  -37.7830  -68.0200 O.2    86  TYR86      -0.2718
     39  CB       -56.1550  -35.0340  -69.2760 C.3    86  TYR86       0.0548
     40  CG       -55.0010  -35.9990  -69.1590 C.ar   86  TYR86      -0.0200
     41  CD1      -54.6750  -36.8570  -70.2000 C.ar   86  TYR86      -0.0009
     42  CD2      -54.2210  -36.0370  -68.0110 C.ar   86  TYR86      -0.0009
     43  CE1      -53.6090  -37.7380  -70.0950 C.ar   86  TYR86       0.0417
     44  CE2      -53.1540  -36.9070  -67.8990 C.ar   86  TYR86       0.0417
     45  CZ       -52.8520  -37.7580  -68.9390 C.ar   86  TYR86       0.1957
     46  OH       -51.7900  -38.6270  -68.8190 O.3    86  TYR86      -0.2866
     47  N        -57.9610  -35.9750  -66.7750 N.am   87  LEU87      -0.1980
     48  CA       -58.1690  -36.7660  -65.5690 C.3    87  LEU87       0.1596
     49  C        -59.3430  -37.7230  -65.7330 C.2    87  LEU87       0.2287
     50  O        -59.3070  -38.8520  -65.2320 O.2    87  LEU87      -0.2864
     51  CB       -58.3940  -35.8380  -64.3750 C.3    87  LEU87       0.0297
     52  CG       -58.5690  -36.4990  -63.0090 C.3    87  LEU87       0.0022
     53  CD1      -57.3300  -37.3010  -62.6570 C.3    87  LEU87       0.0001
     54  CD2      -58.8640  -35.4540  -61.9410 C.3    87  LEU87       0.0001
     55  N        -47.1220  -39.7450  -67.6630 N.3   103  ILE103     -0.1245
     56  CA       -48.0570  -39.0100  -68.5080 C.3   103  ILE103      0.1561
     57  C        -48.1720  -39.6890  -69.8660 C.2   103  ILE103      0.2260
     58  O        -47.1650  -40.0700  -70.4760 O.2   103  ILE103     -0.2867
     59  CB       -47.6200  -37.5440  -68.6530 C.3   103  ILE103      0.0252
     60  CG1      -47.7210  -36.8370  -67.3030 C.3   103  ILE103      0.0019
     61  CG2      -48.4630  -36.8260  -69.6990 C.3   103  ILE103      0.0019
     62  CD1      -49.0790  -36.9790  -66.6430 C.3   103  ILE103      0.0001
     63  N        -52.3390  -36.5710  -73.5280 N.3   108  ALA108     -0.1245
     64  CA       -52.3170  -35.2590  -72.8930 C.3   108  ALA108      0.1562
     65  C        -52.2120  -34.1450  -73.9280 C.2   108  ALA108      0.2260
     66  O        -52.8890  -33.1180  -73.8120 O.2   108  ALA108     -0.2867
     67  CB       -51.1620  -35.1760  -71.8930 C.3   108  ALA108      0.0290
     68  N        -55.4970  -33.7110  -75.7460 N.3   111  LYS111     -0.1231
     69  CA       -56.4820  -32.9810  -74.9530 C.3   111  LYS111      0.1693
     70  C        -56.1070  -31.5130  -74.7700 C.2   111  LYS111      0.2591
     71  O        -56.9980  -30.6660  -74.6470 O.2   111  LYS111     -0.2718
     72  CB       -56.6710  -33.6510  -73.5910 C.3   111  LYS111      0.0285
     73  CG       -57.1380  -35.0990  -73.6690 C.3   111  LYS111      0.0035
     74  CD       -58.3270  -35.2600  -74.6070 C.3   111  LYS111      0.0206
     75  CE       -59.5670  -34.5500  -74.0820 C.3   111  LYS111      0.1093
     76  NZ       -60.7110  -34.6740  -75.0280 N.3   111  LYS111     -0.1314
     77  N        -54.8100  -31.1920  -74.7450 N.am  112  MET112     -0.1979
     78  CA       -54.3990  -29.7950  -74.6380 C.3   112  MET112      0.1605
     79  C        -54.7450  -29.0190  -75.9020 C.2   112  MET112      0.2287
     80  O        -55.2070  -27.8750  -75.8280 O.2   112  MET112     -0.2864
     81  CB       -52.8980  -29.6950  -74.3630 C.3   112  MET112      0.0413
     82  CG       -52.4610  -30.1580  -72.9880 C.3   112  MET112      0.0598
     83  SD       -50.7140  -29.8100  -72.6960 S.3   112  MET112     -0.1393
     84  CE       -49.9840  -30.3960  -74.2230 C.3   112  MET112      0.0692
@<TRIPOS>BOND
     1    79    80    2
     2    79    78    1
     3    68    69    1
     4    76    75    1
     5    69    70    1
     6    69    72    1
     7    70    77   am
     8    70    71    2
     9    77    78    1
    10    78    81    1
    11    74    75    1
    12    74    73    1
    13    81    82    1
    14    84    83    1
    15    65    66    2
    16    65    64    1
    17    73    72    1
    18    63    64    1
    19    82    83    1
    20    64    67    1
    21    18    17    1
    22    17    19    1
    23    17    14    1
    24    58    57    2
    25    14    13    1
    26    14    15    1
    27    41    43   ar
    28    41    40   ar
    29    43    45   ar
    30    57    56    1
    31    61    59    1
    32    16    15    2
    33    39    36    1
    34    39    40    1
    35    36    35    1
    36    36    37    1
    37    40    42   ar
    38    15    20   am
    39    45    46    1
    40    45    44   ar
    41     1     2    1
    42    59    56    1
    43    59    60    1
    44    56    55    1
    45     2     3    1
    46     2     5    1
    47    38    37    2
    48    42    44   ar
    49    20    21    1
    50    37    47   am
    51     6     5    1
    52     6     8    1
    53     4     3    2
    54     3     9   am
    55    60    62    1
    56     5     7    1
    57    21    22    1
    58    26    27    2
    59    26    25    1
    60    47    48    1
    61    33    32    1
    62     9    10    1
    63    11    12    2
    64    11    10    1
    65    22    24   am
    66    22    23    2
    67    24    25    1
    68    25    28    1
    69    49    48    1
    70    49    50    2
    71    48    51    1
    72    28    29    1
    73    32    34    1
    74    32    31    2
    75    29    30    1
    76    30    31    1
    77    51    52    1
    78    52    53    1
    79    52    54    1
