@<TRIPOS>MOLECULE
tmp/6hqbA28.pdb
 120 117 0 0 0
SMALL
GASTEIGER

@<TRIPOS>ATOM
      1  N        -50.9860  -40.0620  -52.4530 N.3    45  THR45      -0.1218
      2  CA       -49.9060  -39.1400  -52.7890 C.3    45  THR45       0.1862
      3  C        -48.6780  -39.3780  -51.9200 C.2    45  THR45       0.2287
      4  O        -47.5560  -39.0690  -52.3390 O.2    45  THR45      -0.2866
      5  CB       -50.3790  -37.6940  -52.6560 C.3    45  THR45       0.1770
      6  OG1      -50.9960  -37.5040  -51.3780 O.3    45  THR45      -0.2211
      7  CG2      -51.3750  -37.3660  -53.7540 C.3    45  THR45       0.0375
      8  N        -45.6830  -41.0590  -53.3040 N.3    48  ILE48      -0.1231
      9  CA       -44.6900  -40.2510  -54.0040 C.3    48  ILE48       0.1692
     10  C        -43.5780  -39.8290  -53.0510 C.2    48  ILE48       0.2592
     11  O        -42.3890  -40.0080  -53.3400 O.2    48  ILE48      -0.2718
     12  CB       -45.3650  -39.0340  -54.6570 C.3    48  ILE48       0.0266
     13  CG1      -46.4550  -39.4980  -55.6240 C.3    48  ILE48       0.0019
     14  CG2      -44.3310  -38.1630  -55.3540 C.3    48  ILE48       0.0020
     15  CD1      -47.3740  -38.3940  -56.0710 C.3    48  ILE48       0.0001
     16  N        -43.9490  -39.2660  -51.8980 N.am   49  TRP49      -0.1976
     17  CA       -42.9460  -38.8070  -50.9410 C.3    49  TRP49       0.1640
     18  C        -42.0600  -39.9600  -50.4840 C.2    49  TRP49       0.2290
     19  O        -40.8270  -39.8620  -50.5150 O.2    49  TRP49      -0.2864
     20  CB       -43.6270  -38.1440  -49.7430 C.3    49  TRP49       0.0576
     21  CG       -44.5640  -37.0220  -50.0990 C.ar   49  TRP49       0.0006
     22  CD1      -45.9070  -36.9620  -49.8470 C.ar   49  TRP49       0.0946
     23  CD2      -44.2260  -35.8020  -50.7680 C.ar   49  TRP49       0.0152
     24  NE1      -46.4230  -35.7760  -50.3160 N.ar   49  TRP49      -0.2442
     25  CE2      -45.4110  -35.0460  -50.8840 C.ar   49  TRP49       0.0810
     26  CE3      -43.0350  -35.2720  -51.2730 C.ar   49  TRP49       0.0012
     27  CZ2      -45.4390  -33.7910  -51.4910 C.ar   49  TRP49       0.0191
     28  CZ3      -43.0660  -34.0260  -51.8750 C.ar   49  TRP49       0.0001
     29  CH2      -44.2590  -33.3000  -51.9800 C.ar   49  TRP49       0.0015
     30  N        -57.8670  -31.7600  -46.0320 N.3   697  ILE697     -0.1245
     31  CA       -57.8050  -32.4080  -47.3360 C.3   697  ILE697      0.1561
     32  C        -59.0880  -33.1790  -47.6050 C.2   697  ILE697      0.2260
     33  O        -59.4940  -33.3300  -48.7570 O.2   697  ILE697     -0.2867
     34  CB       -56.5570  -33.3130  -47.4240 C.3   697  ILE697      0.0252
     35  CG1      -55.2830  -32.4680  -47.4680 C.3   697  ILE697      0.0019
     36  CG2      -56.6040  -34.2090  -48.6510 C.3   697  ILE697      0.0019
     37  CD1      -54.0230  -33.2760  -47.7190 C.3   697  ILE697      0.0001
     38  N        -61.3870  -30.6410  -49.0670 N.3   700  ILE700     -0.1231
     39  CA       -60.9670  -30.2740  -50.4200 C.3   700  ILE700      0.1692
     40  C        -61.2090  -31.4260  -51.3980 C.2   700  ILE700      0.2591
     41  O        -61.5180  -31.2000  -52.5750 O.2   700  ILE700     -0.2718
     42  CB       -59.5000  -29.8060  -50.4100 C.3   700  ILE700      0.0266
     43  CG1      -59.3410  -28.6410  -49.4270 C.3   700  ILE700      0.0019
     44  CG2      -59.0620  -29.3790  -51.8040 C.3   700  ILE700      0.0020
     45  CD1      -57.9160  -28.1710  -49.2350 C.3   700  ILE700      0.0001
     46  N        -61.1190  -32.6700  -50.9240 N.am  701  VAL701     -0.1980
     47  CA       -61.4400  -33.8280  -51.7530 C.3   701  VAL701      0.1595
     48  C        -62.9280  -33.8610  -52.0680 C.2   701  VAL701      0.2287
     49  O        -63.3300  -34.1760  -53.1930 O.2   701  VAL701     -0.2864
     50  CB       -60.9820  -35.1250  -51.0560 C.3   701  VAL701      0.0276
     51  CG1      -61.7190  -36.3330  -51.6150 C.3   701  VAL701      0.0022
     52  CG2      -59.4930  -35.3130  -51.2100 C.3   701  VAL701      0.0022
     53  N        -63.4310  -31.4220  -54.7500 N.3   704  HIS704     -0.1241
     54  CA       -62.9730  -31.8980  -56.0540 C.3   704  HIS704      0.1621
     55  C        -63.9300  -32.9270  -56.6410 C.2   704  HIS704      0.2264
     56  O        -64.2200  -32.9020  -57.8430 O.2   704  HIS704     -0.2867
     57  CB       -61.5680  -32.4790  -55.9340 C.3   704  HIS704      0.0745
     58  CG       -60.4940  -31.4400  -55.8980 C.ar  704  HIS704      0.0817
     59  ND1      -60.7210  -30.1540  -55.4540 N.ar  704  HIS704     -0.2268
     60  CD2      -59.1930  -31.4870  -56.2690 C.ar  704  HIS704      0.1154
     61  CE1      -59.6010  -29.4600  -55.5400 C.ar  704  HIS704      0.1986
     62  NE2      -58.6600  -30.2450  -56.0320 N.ar  704  HIS704     -0.2212
     63  N        -63.4190  -33.9350  -60.0330 N.3   709  VAL709     -0.1231
     64  CA       -62.0230  -33.6910  -60.3830 C.3   709  VAL709      0.1692
     65  C        -61.1150  -34.1480  -59.2490 C.2   709  VAL709      0.2592
     66  O        -60.2960  -33.3690  -58.7490 O.2   709  VAL709     -0.2718
     67  CB       -61.7660  -32.2070  -60.6990 C.3   709  VAL709      0.0266
     68  CG1      -60.5570  -32.0730  -61.6060 C.3   709  VAL709      0.0020
     69  CG2      -62.9840  -31.5650  -61.3240 C.3   709  VAL709      0.0020
     70  N        -61.2450  -35.4020  -58.8300 N.am  710  ALA710     -0.1966
     71  CA       -60.3540  -35.9160  -57.8060 C.3   710  ALA710      0.1713
     72  C        -59.3610  -36.8810  -58.4250 C.2   710  ALA710      0.2458
     73  O        -59.7610  -37.7550  -59.2050 O.2   710  ALA710     -0.2730
     74  CB       -61.1360  -36.6200  -56.6940 C.3   710  ALA710      0.0333
     75  N        -58.0740  -36.7570  -58.1110 N.am  711  PRO711     -0.2727
     76  CA       -57.0880  -37.6740  -58.6890 C.3   711  PRO711      0.1402
     77  C        -57.2450  -39.0750  -58.1220 C.2   711  PRO711      0.2269
     78  O        -57.5580  -39.2550  -56.9430 O.2   711  PRO711     -0.2865
     79  CB       -55.7480  -37.0520  -58.2800 C.3   711  PRO711      0.0296
     80  CG       -56.0570  -36.3360  -57.0120 C.3   711  PRO711      0.0237
     81  CD       -57.4590  -35.8050  -57.1710 C.3   711  PRO711      0.0939
     82  N        -54.8480  -40.9750  -57.5530 N.3   713  ILE713     -0.1245
     83  CA       -53.8770  -40.9030  -56.4700 C.3   713  ILE713      0.1561
     84  C        -54.5120  -40.0960  -55.3460 C.2   713  ILE713      0.2260
     85  O        -54.5460  -38.8620  -55.3980 O.2   713  ILE713     -0.2867
     86  CB       -52.5540  -40.2690  -56.9370 C.3   713  ILE713      0.0252
     87  CG1      -52.1070  -40.8790  -58.2650 C.3   713  ILE713      0.0019
     88  CG2      -51.4730  -40.4590  -55.8900 C.3   713  ILE713      0.0019
     89  CD1      -50.8900  -40.2120  -58.8540 C.3   713  ILE713      0.0001
     90  N        -55.1210  -37.9430  -52.2720 N.3   715  PRO715     -0.2102
     91  CA       -54.1970  -37.0370  -51.5800 C.3   715  PRO715      0.1504
     92  C        -54.1720  -37.3080  -50.0820 C.2   715  PRO715      0.2576
     93  O        -55.2150  -37.3830  -49.4290 O.2   715  PRO715     -0.2718
     94  CB       -54.7600  -35.6480  -51.8920 C.3   715  PRO715      0.0282
     95  CG       -56.1980  -35.8790  -52.1510 C.3   715  PRO715      0.0208
     96  CD       -56.3300  -37.2510  -52.7490 C.3   715  PRO715      0.0893
     97  N        -52.9660  -37.4630  -49.5460 N.am  716  ARG716     -0.1966
     98  CA       -52.7520  -37.6920  -48.1250 C.3   716  ARG716      0.1729
     99  C        -51.7360  -36.6820  -47.6230 C.2   716  ARG716      0.2616
    100  O        -50.7010  -36.4710  -48.2640 O.2   716  ARG716     -0.2715
    101  CB       -52.2560  -39.1150  -47.8570 C.3   716  ARG716      0.0348
    102  CG       -53.2590  -40.2050  -48.1690 C.3   716  ARG716      0.0492
    103  CD       -54.3270  -40.2890  -47.1030 C.3   716  ARG716      0.2205
    104  NE       -55.1580  -41.4790  -47.2550 N.pl3 716  ARG716     -0.0865
    105  CZ       -56.3140  -41.5050  -47.9070 C.cat 716  ARG716      0.5346
    106  NH1      -56.7830  -40.3990  -48.4720 N.pl3 716  ARG716      0.1354
    107  NH2      -57.0040  -42.6340  -47.9910 N.pl3 716  ARG716      0.1354
    108  N        -52.0330  -36.0610  -46.4830 N.am  717  ALA717     -0.1963
    109  CA       -51.0990  -35.1310  -45.8680 C.3   717  ALA717      0.1728
    110  C        -49.7600  -35.8170  -45.6040 C.2   717  ALA717      0.2616
    111  O        -49.6620  -37.0460  -45.5360 O.2   717  ALA717     -0.2715
    112  CB       -51.6780  -34.5750  -44.5680 C.3   717  ALA717      0.0334
    113  N        -48.7150  -35.0040  -45.4720 N.am  718  LEU718     -0.1977
    114  CA       -47.3870  -35.5380  -45.2080 C.3   718  LEU718      0.1596
    115  C        -47.3960  -36.3610  -43.9250 C.2   718  LEU718      0.2287
    116  O        -48.1100  -36.0550  -42.9650 O.2   718  LEU718     -0.2864
    117  CB       -46.3630  -34.4070  -45.0870 C.3   718  LEU718      0.0297
    118  CG       -46.3730  -33.2980  -46.1420 C.3   718  LEU718      0.0022
    119  CD1      -45.2880  -32.2730  -45.8440 C.3   718  LEU718      0.0001
    120  CD2      -46.2060  -33.8690  -47.5400 C.3   718  LEU718      0.0001
@<TRIPOS>BOND
     1    68    67    1
     2    69    67    1
     3    67    64    1
     4    64    63    1
     5    64    65    1
     6    65    70   am
     7    65    66    2
     8    73    72    2
     9    89    87    1
    10    70    71    1
    11    76    79    1
    12    76    77    1
    13    76    75    1
    14    72    75   am
    15    72    71    1
    16    79    80    1
    17    87    86    1
    18    77    78    2
    19    75    81    1
    20    56    55    2
    21    71    74    1
    22    82    83    1
    23    81    80    1
    24    86    83    1
    25    86    88    1
    26    55    54    1
    27    83    84    1
    28    60    62   ar
    29    60    58   ar
    30    15    13    1
    31    54    57    1
    32    54    53    1
    33    62    61   ar
    34    57    58    1
    35    58    59   ar
    36    13    12    1
    37    61    59   ar
    38    85    84    2
    39    14    12    1
    40    12     9    1
    41     9     8    1
    42     9    10    1
    43     7     5    1
    44    11    10    2
    45    49    48    2
    46    10    16   am
    47     2     5    1
    48     2     1    1
    49     2     3    1
    50    96    90    1
    51    96    95    1
    52     5     6    1
    53    41    40    2
    54     4     3    2
    55    90    91    1
    56    95    94    1
    57    48    47    1
    58    29    28   ar
    59    29    27   ar
    60    16    17    1
    61    94    91    1
    62    28    26   ar
    63    44    42    1
    64    47    50    1
    65    47    46    1
    66    51    50    1
    67    91    92    1
    68    27    25   ar
    69    40    46   am
    70    40    39    1
    71    26    23   ar
    72    52    50    1
    73    17    18    1
    74    17    20    1
    75    25    23   ar
    76    25    24   ar
    77    23    21   ar
    78    19    18    2
    79    39    42    1
    80    39    38    1
    81    42    43    1
    82    24    22   ar
    83    21    22   ar
    84    21    20    1
    85    92    97   am
    86    92    93    2
    87    97    98    1
    88    43    45    1
    89    33    32    2
    90    36    34    1
    91   106   105    1
    92   100    99    2
    93   102   101    1
    94   102   103    1
    95    98   101    1
    96    98    99    1
    97   107   105    1
    98   105   104    2
    99    37    35    1
   100    99   108   am
   101    32    31    1
   102   120   118    1
   103    35    34    1
   104    34    31    1
   105    31    30    1
   106   104   103    1
   107   108   109    1
   108   118   119    1
   109   118   117    1
   110   109   110    1
   111   109   112    1
   112   110   111    2
   113   110   113   am
   114   113   114    1
   115   114   117    1
   116   114   115    1
   117   115   116    2
