@<TRIPOS>MOLECULE
tmp/6hqbA34.pdb
 95 87 0 0 0
SMALL
GASTEIGER

@<TRIPOS>ATOM
      1  N        -11.1650  -53.4680  -27.5890 N.3   337  HIS337     -0.1241
      2  CA       -11.5630  -53.2730  -28.9770 C.3   337  HIS337      0.1621
      3  C        -11.8900  -54.5730  -29.7030 C.2   337  HIS337      0.2264
      4  O        -11.9520  -54.5700  -30.9390 O.2   337  HIS337     -0.2867
      5  CB       -10.4630  -52.5310  -29.7400 C.3   337  HIS337      0.0745
      6  CG       -10.0580  -51.2310  -29.1180 C.ar  337  HIS337      0.0817
      7  ND1       -9.4930  -51.1470  -27.8630 N.ar  337  HIS337     -0.2268
      8  CD2      -10.1220  -49.9620  -29.5870 C.ar  337  HIS337      0.1154
      9  CE1       -9.2350  -49.8820  -27.5830 C.ar  337  HIS337      0.1986
     10  NE2       -9.6050  -49.1430  -28.6130 N.ar  337  HIS337     -0.2212
     11  N        -14.3330  -54.9280  -32.9630 N.3   340  LEU340     -0.1245
     12  CA       -14.4980  -53.6470  -33.6430 C.3   340  LEU340      0.1561
     13  C        -14.0800  -53.7290  -35.1070 C.2   340  LEU340      0.2260
     14  O        -14.6860  -53.0760  -35.9650 O.2   340  LEU340     -0.2867
     15  CB       -13.7010  -52.5600  -32.9200 C.3   340  LEU340      0.0270
     16  CG       -14.3890  -51.8210  -31.7680 C.3   340  LEU340      0.0019
     17  CD1      -14.8420  -52.7720  -30.6680 C.3   340  LEU340      0.0001
     18  CD2      -13.4640  -50.7550  -31.2040 C.3   340  LEU340      0.0001
     19  N        -16.9300  -55.0700  -36.7380 N.3   343  ILE343     -0.1231
     20  CA       -17.9710  -54.0470  -36.8050 C.3   343  ILE343      0.1692
     21  C        -17.7550  -53.1560  -38.0200 C.2   343  ILE343      0.2591
     22  O        -18.6780  -52.9010  -38.8030 O.2   343  ILE343     -0.2718
     23  CB       -18.0010  -53.2190  -35.5070 C.3   343  ILE343      0.0266
     24  CG1      -18.6730  -53.9990  -34.3790 C.3   343  ILE343      0.0019
     25  CG2      -18.7140  -51.8930  -35.7290 C.3   343  ILE343      0.0020
     26  CD1      -18.7490  -53.2250  -33.0840 C.3   343  ILE343      0.0001
     27  N        -16.5280  -52.6770  -38.1990 N.am  344  LEU344     -0.1980
     28  CA       -16.2230  -51.7100  -39.2430 C.3   344  LEU344      0.1596
     29  C        -15.8820  -52.3530  -40.5810 C.2   344  LEU344      0.2287
     30  O        -15.6490  -51.6280  -41.5540 O.2   344  LEU344     -0.2864
     31  CB       -15.0740  -50.8050  -38.7910 C.3   344  LEU344      0.0297
     32  CG       -15.3890  -49.9580  -37.5590 C.3   344  LEU344      0.0022
     33  CD1      -14.1970  -49.1090  -37.1630 C.3   344  LEU344      0.0001
     34  CD2      -16.6030  -49.0870  -37.8210 C.3   344  LEU344      0.0001
     35  N        -21.6260  -48.0180  -39.6840 N.3   350  ALA350     -0.1245
     36  CA       -20.5920  -47.8760  -38.6660 C.3   350  ALA350      0.1562
     37  C        -19.3850  -47.1190  -39.2090 C.2   350  ALA350      0.2260
     38  O        -18.7740  -46.3130  -38.4970 O.2   350  ALA350     -0.2867
     39  CB       -20.1830  -49.2540  -38.1490 C.3   350  ALA350      0.0290
     40  N        -20.4610  -43.3150  -39.8360 N.3   353  ALA353     -0.1231
     41  CA       -20.5620  -42.5490  -38.5990 C.3   353  ALA353      0.1694
     42  C        -19.2010  -42.0890  -38.0890 C.2   353  ALA353      0.2591
     43  O        -19.1420  -41.1970  -37.2370 O.2   353  ALA353     -0.2718
     44  CB       -21.2740  -43.3750  -37.5280 C.3   353  ALA353      0.0304
     45  N        -18.1150  -42.6790  -38.5770 N.am  354  ILE354     -0.1980
     46  CA       -16.7740  -42.1970  -38.2610 C.3   354  ILE354      0.1595
     47  C        -16.2830  -41.2250  -39.3220 C.2   354  ILE354      0.2287
     48  O        -15.7330  -40.1620  -39.0100 O.2   354  ILE354     -0.2864
     49  CB       -15.8070  -43.3900  -38.1120 C.3   354  ILE354      0.0276
     50  CG1      -16.3950  -44.4470  -37.1770 C.3   354  ILE354      0.0022
     51  CG2      -14.4530  -42.9210  -37.6040 C.3   354  ILE354      0.0022
     52  CD1      -15.5470  -45.6910  -37.0650 C.3   354  ILE354      0.0001
     53  N        -22.8530  -37.9820  -38.8360 N.3   404  ALA404     -0.1245
     54  CA       -22.2620  -39.0780  -38.0770 C.3   404  ALA404      0.1562
     55  C        -23.2040  -39.5620  -36.9830 C.2   404  ALA404      0.2260
     56  O        -23.3910  -40.7710  -36.8010 O.2   404  ALA404     -0.2867
     57  CB       -20.9290  -38.6350  -37.4810 C.3   404  ALA404      0.0290
     58  N        -24.7110  -43.3620  -36.9640 N.3   408  GLY408     -0.1225
     59  CA       -24.4420  -44.2070  -35.8090 C.3   408  GLY408      0.1811
     60  C        -25.6940  -44.8890  -35.2890 C.2   408  GLY408      0.2280
     61  O        -25.6990  -46.0940  -35.0200 O.2   408  GLY408     -0.2866
     62  N        -26.6330  -47.5790  -37.6650 N.3   411  PHE411     -0.1227
     63  CA       -25.8710  -48.7950  -37.3910 C.3   411  PHE411      0.1736
     64  C        -26.4300  -49.5370  -36.1850 C.2   411  PHE411      0.2595
     65  O        -26.5300  -50.7710  -36.1950 O.2   411  PHE411     -0.2718
     66  CB       -24.3960  -48.4580  -37.1630 C.3   411  PHE411      0.0547
     67  CG       -23.6740  -49.4490  -36.2850 C.ar  411  PHE411     -0.0202
     68  CD1      -23.2430  -50.6630  -36.7940 C.ar  411  PHE411     -0.0042
     69  CD2      -23.4290  -49.1670  -34.9490 C.ar  411  PHE411     -0.0042
     70  CE1      -22.5820  -51.5780  -35.9900 C.ar  411  PHE411     -0.0003
     71  CE2      -22.7690  -50.0780  -34.1400 C.ar  411  PHE411     -0.0003
     72  CZ       -22.3450  -51.2850  -34.6620 C.ar  411  PHE411     -0.0000
     73  N        -26.7860  -48.8000  -35.1320 N.am  412  MET412     -0.1979
     74  CA       -27.3140  -49.4310  -33.9260 C.3   412  MET412      0.1605
     75  C        -28.5870  -50.2110  -34.2270 C.2   412  MET412      0.2287
     76  O        -28.7350  -51.3660  -33.8150 O.2   412  MET412     -0.2864
     77  CB       -27.5730  -48.3780  -32.8490 C.3   412  MET412      0.0413
     78  CG       -26.3140  -47.7520  -32.2810 C.3   412  MET412      0.0598
     79  SD       -25.1930  -48.9800  -31.5870 S.3   412  MET412     -0.1393
     80  CE       -26.2140  -49.6820  -30.2950 C.3   412  MET412      0.0692
     81  N        -18.1780  -51.2140  -27.0540 N.3   426  LEU426     -0.1245
     82  CA       -19.5510  -50.8520  -27.3950 C.3   426  LEU426      0.1561
     83  C        -20.5490  -51.4670  -26.4190 C.2   426  LEU426      0.2260
     84  O        -21.4690  -50.7880  -25.9430 O.2   426  LEU426     -0.2867
     85  CB       -19.8570  -51.2900  -28.8280 C.3   426  LEU426      0.0270
     86  CG       -21.2530  -50.9870  -29.3730 C.3   426  LEU426      0.0019
     87  CD1      -21.4710  -49.4860  -29.4820 C.3   426  LEU426      0.0001
     88  CD2      -21.4550  -51.6680  -30.7190 C.3   426  LEU426      0.0001
     89  N        -28.1680  -42.0050  -30.1720 N.3   553  VAL553     -0.1245
     90  CA       -27.5310  -43.2710  -30.4980 C.3   553  VAL553      0.1561
     91  C        -27.5600  -44.2360  -29.3190 C.2   553  VAL553      0.2260
     92  O        -27.8100  -45.4290  -29.4970 O.2   553  VAL553     -0.2867
     93  CB       -26.0860  -43.0240  -30.9840 C.3   553  VAL553      0.0252
     94  CG1      -25.4680  -44.3130  -31.4990 C.3   553  VAL553      0.0019
     95  CG2      -26.0690  -41.9500  -32.0590 C.3   553  VAL553      0.0019
@<TRIPOS>BOND
     1    30    29    2
     2    29    28    1
     3    40    41    1
     4    35    36    1
     5    47    48    2
     6    47    46    1
     7    28    31    1
     8    28    27    1
     9    37    36    1
    10    37    38    2
    11    53    54    1
    12    22    21    2
    13    31    32    1
    14    36    39    1
    15    41    42    1
    16    41    44    1
    17    45    46    1
    18    45    42   am
    19    46    49    1
    20    27    21   am
    21    49    51    1
    22    49    50    1
    23    42    43    2
    24    54    57    1
    25    54    55    1
    26    21    20    1
    27    34    32    1
    28    62    63    1
    29    32    33    1
    30    63    66    1
    31    63    64    1
    32    50    52    1
    33    66    67    1
    34    55    56    2
    35    58    59    1
    36    20    19    1
    37    20    23    1
    38    68    67   ar
    39    68    70   ar
    40    67    69   ar
    41    65    64    2
    42    64    73   am
    43    70    72   ar
    44    14    13    2
    45    59    60    1
    46    25    23    1
    47    23    24    1
    48    60    61    2
    49    73    74    1
    50    13    12    1
    51    69    71   ar
    52    72    71   ar
    53    24    26    1
    54    75    74    1
    55    75    76    2
    56    74    77    1
    57    12    11    1
    58    12    15    1
    59    15    16    1
    60    77    78    1
    61    78    79    1
    62    95    93    1
    63    16    18    1
    64    16    17    1
    65    79    80    1
    66    94    93    1
    67    93    90    1
    68     4     3    2
    69    88    86    1
    70    90    89    1
    71    90    91    1
    72     5     6    1
    73     5     2    1
    74     3     2    1
    75     8     6   ar
    76     8    10   ar
    77    92    91    2
    78    87    86    1
    79    86    85    1
    80     6     7   ar
    81     2     1    1
    82    85    82    1
    83    10     9   ar
    84     7     9   ar
    85    82    81    1
    86    82    83    1
    87    83    84    2
