@<TRIPOS>MOLECULE
tmp/6hqbA17.pdb
 180 176 0 0 0
SMALL
GASTEIGER

@<TRIPOS>ATOM
      1  N        -19.2270  -29.7080  -61.9850 N.3    86  TRP86      -0.1241
      2  CA       -19.3170  -28.4280  -61.2860 C.3    86  TRP86       0.1605
      3  C        -18.0050  -27.6510  -61.3590 C.2    86  TRP86       0.2264
      4  O        -18.0110  -26.4240  -61.5120 O.2    86  TRP86      -0.2867
      5  CB       -19.7190  -28.6430  -59.8280 C.3    86  TRP86       0.0550
      6  CG       -19.4730  -27.4310  -58.9790 C.ar   86  TRP86       0.0003
      7  CD1      -20.1810  -26.2650  -58.9900 C.ar   86  TRP86       0.0946
      8  CD2      -18.4390  -27.2640  -58.0010 C.ar   86  TRP86       0.0152
      9  NE1      -19.6540  -25.3830  -58.0770 N.ar   86  TRP86      -0.2442
     10  CE2      -18.5850  -25.9730  -57.4560 C.ar   86  TRP86       0.0810
     11  CE3      -17.4070  -28.0810  -57.5300 C.ar   86  TRP86       0.0012
     12  CZ2      -17.7380  -25.4810  -56.4660 C.ar   86  TRP86       0.0191
     13  CZ3      -16.5670  -27.5900  -56.5460 C.ar   86  TRP86       0.0001
     14  CH2      -16.7380  -26.3020  -56.0250 C.ar   86  TRP86       0.0015
     15  N        -16.7630  -23.8300  -63.0060 N.3    90  MET90      -0.1245
     16  CA       -16.0320  -22.6940  -62.4570 C.3    90  MET90       0.1570
     17  C        -14.8660  -22.3050  -63.3510 C.2    90  MET90       0.2261
     18  O        -14.6260  -21.1140  -63.5850 O.2    90  MET90      -0.2867
     19  CB       -15.5430  -23.0170  -61.0470 C.3    90  MET90       0.0387
     20  CG       -16.6610  -23.2940  -60.0620 C.3    90  MET90       0.0595
     21  SD       -17.9570  -22.0460  -60.1530 S.3    90  MET90      -0.1393
     22  CE       -19.2120  -22.9220  -61.0890 C.3    90  MET90       0.0692
     23  N        -33.0810   -6.8600  -64.3850 N.3   123  GLN123     -0.1245
     24  CA       -32.0530   -7.5380  -63.6070 C.3   123  GLN123      0.1566
     25  C        -30.6430   -7.2200  -64.0880 C.2   123  GLN123      0.2260
     26  O        -29.6780   -7.5690  -63.3980 O.2   123  GLN123     -0.2867
     27  CB       -32.2820   -9.0540  -63.6170 C.3   123  GLN123      0.0367
     28  CG       -31.8380   -9.7700  -64.8790 C.3   123  GLN123      0.0905
     29  CD       -32.1390  -11.2600  -64.8380 C.2   123  GLN123      0.2608
     30  OE1      -33.0150  -11.7090  -64.0980 O.2   123  GLN123     -0.2717
     31  NE2      -31.4100  -12.0330  -65.6330 N.am  123  GLN123     -0.0878
     32  N        -17.2030  -14.1910  -54.1180 N.3   140  THR140     -0.1203
     33  CA       -16.6160  -14.3150  -52.7940 C.3   140  THR140      0.1994
     34  C        -16.0160  -15.6880  -52.5250 C.2   140  THR140      0.2618
     35  O        -15.4820  -15.9060  -51.4320 O.2   140  THR140     -0.2717
     36  CB       -17.6620  -14.0090  -51.7110 C.3   140  THR140      0.1784
     37  OG1      -18.7760  -14.8990  -51.8540 O.3   140  THR140     -0.2211
     38  CG2      -18.1460  -12.5710  -51.8230 C.3   140  THR140      0.0376
     39  N        -16.0870  -16.6170  -53.4800 N.am  141  SER141     -0.1951
     40  CA       -15.5230  -17.9460  -53.2810 C.3   141  SER141      0.1924
     41  C        -14.0020  -17.9640  -53.3640 C.2   141  SER141      0.2314
     42  O        -13.3950  -18.9950  -53.0550 O.2   141  SER141     -0.2863
     43  CB       -16.1150  -18.9220  -54.3020 C.3   141  SER141      0.2116
     44  OG       -15.9730  -18.4350  -55.6250 O.3   141  SER141     -0.2180
     45  N        -11.8110  -17.6090  -56.1150 N.3   143  LEU143     -0.1245
     46  CA       -11.2710  -18.4070  -57.2070 C.3   143  LEU143      0.1561
     47  C        -10.0850  -17.7380  -57.8860 C.2   143  LEU143      0.2260
     48  O         -9.1580  -18.4320  -58.3200 O.2   143  LEU143     -0.2867
     49  CB       -12.3630  -18.6930  -58.2430 C.3   143  LEU143      0.0270
     50  CG       -13.5480  -19.5340  -57.7630 C.3   143  LEU143      0.0019
     51  CD1      -14.5950  -19.6520  -58.8580 C.3   143  LEU143      0.0001
     52  CD2      -13.0840  -20.9100  -57.3080 C.3   143  LEU143      0.0001
     53  N        -14.3680  -14.1350  -45.0980 N.3   387  LEU387     -0.1231
     54  CA       -15.5720  -14.4860  -44.3520 C.3   387  LEU387      0.1693
     55  C        -16.3530  -15.5950  -45.0420 C.2   387  LEU387      0.2593
     56  O        -16.8610  -16.5110  -44.3820 O.2   387  LEU387     -0.2718
     57  CB       -16.4520  -13.2490  -44.1770 C.3   387  LEU387      0.0284
     58  CG       -17.8970  -13.4940  -43.7390 C.3   387  LEU387      0.0019
     59  CD1      -17.9540  -13.9330  -42.2840 C.3   387  LEU387      0.0001
     60  CD2      -18.7530  -12.2570  -43.9730 C.3   387  LEU387      0.0001
     61  N        -16.4530  -15.5360  -46.3720 N.am  388  SER388     -0.1938
     62  CA       -17.2700  -16.4960  -47.1040 C.3   388  SER388      0.2055
     63  C        -16.6750  -17.8970  -47.0340 C.2   388  SER388      0.2642
     64  O        -17.3850  -18.8630  -46.7350 O.2   388  SER388     -0.2714
     65  CB       -17.4230  -16.0400  -48.5520 C.3   388  SER388      0.2130
     66  OG       -18.0390  -14.7660  -48.6150 O.3   388  SER388     -0.2179
     67  N        -15.3750  -18.0270  -47.3160 N.am  389  LEU389     -0.1977
     68  CA       -14.7150  -19.3240  -47.1890 C.3   389  LEU389      0.1596
     69  C        -14.8400  -19.8620  -45.7690 C.2   389  LEU389      0.2287
     70  O        -15.1900  -21.0340  -45.5640 O.2   389  LEU389     -0.2864
     71  CB       -13.2440  -19.2100  -47.5910 C.3   389  LEU389      0.0297
     72  CG       -12.9460  -18.9970  -49.0740 C.3   389  LEU389      0.0022
     73  CD1      -11.4520  -18.8540  -49.2960 C.3   389  LEU389      0.0001
     74  CD2      -13.5050  -20.1450  -49.9010 C.3   389  LEU389      0.0001
     75  N        -17.0700  -19.2040  -43.3030 N.3   391  THR391     -0.1203
     76  CA       -18.4140  -19.6110  -42.9040 C.3   391  THR391      0.1994
     77  C        -18.9150  -20.7950  -43.7250 C.2   391  THR391      0.2617
     78  O        -19.6210  -21.6660  -43.2000 O.2   391  THR391     -0.2717
     79  CB       -19.3700  -18.4280  -43.0270 C.3   391  THR391      0.1784
     80  OG1      -19.0900  -17.7250  -44.2420 O.3   391  THR391     -0.2211
     81  CG2      -19.2000  -17.4820  -41.8470 C.3   391  THR391      0.0376
     82  N        -18.5670  -20.8520  -45.0110 N.am  392  HIS392     -0.1975
     83  CA       -19.0050  -21.9680  -45.8390 C.3   392  HIS392      0.1656
     84  C        -18.3830  -23.2780  -45.3720 C.2   392  HIS392      0.2291
     85  O        -19.0780  -24.3010  -45.2650 O.2   392  HIS392     -0.2864
     86  CB       -18.6600  -21.6810  -47.2990 C.3   392  HIS392      0.0771
     87  CG       -18.8740  -22.8450  -48.2110 C.ar  392  HIS392      0.0820
     88  ND1      -20.0330  -23.5890  -48.2070 N.ar  392  HIS392     -0.2267
     89  CD2      -18.0760  -23.3920  -49.1570 C.ar  392  HIS392      0.1154
     90  CE1      -19.9400  -24.5450  -49.1130 C.ar  392  HIS392      0.1986
     91  NE2      -18.7610  -24.4490  -49.7020 N.ar  392  HIS392     -0.2212
     92  N        -20.1740  -24.3600  -42.2380 N.3   395  TRP395     -0.1227
     93  CA       -21.4810  -24.9920  -42.4170 C.3   395  TRP395      0.1737
     94  C        -21.3570  -26.4020  -42.9860 C.2   395  TRP395      0.2595
     95  O        -22.0840  -27.3140  -42.5620 O.2   395  TRP395     -0.2718
     96  CB       -22.3680  -24.1320  -43.3170 C.3   395  TRP395      0.0564
     97  CG       -22.9450  -22.9430  -42.6200 C.ar  395  TRP395      0.0003
     98  CD1      -22.6410  -21.6360  -42.8470 C.ar  395  TRP395      0.0946
     99  CD2      -23.9200  -22.9530  -41.5710 C.ar  395  TRP395      0.0152
    100  NE1      -23.3710  -20.8260  -42.0110 N.ar  395  TRP395     -0.2442
    101  CE2      -24.1630  -21.6110  -41.2150 C.ar  395  TRP395      0.0810
    102  CE3      -24.6120  -23.9650  -40.8990 C.ar  395  TRP395      0.0012
    103  CZ2      -25.0680  -21.2550  -40.2190 C.ar  395  TRP395      0.0191
    104  CZ3      -25.5100  -23.6100  -39.9090 C.ar  395  TRP395      0.0001
    105  CH2      -25.7290  -22.2660  -39.5790 C.ar  395  TRP395      0.0015
    106  N        -20.4640  -26.6000  -43.9600 N.am  396  ILE396     -0.1980
    107  CA       -20.2850  -27.9360  -44.5280 C.3   396  ILE396      0.1595
    108  C        -19.9050  -28.9290  -43.4340 C.2   396  ILE396      0.2287
    109  O        -20.5030  -30.0080  -43.3090 O.2   396  ILE396     -0.2864
    110  CB       -19.2380  -27.9090  -45.6550 C.3   396  ILE396      0.0276
    111  CG1      -19.7500  -27.0870  -46.8380 C.3   396  ILE396      0.0022
    112  CG2      -18.8960  -29.3220  -46.0960 C.3   396  ILE396      0.0022
    113  CD1      -21.0030  -27.6460  -47.4740 C.3   396  ILE396      0.0001
    114  N        -22.8220  -29.7090  -40.9610 N.3   399  PHE399     -0.1241
    115  CA       -23.7630  -30.7150  -41.4500 C.3   399  PHE399      0.1605
    116  C        -23.1440  -32.1110  -41.4250 C.2   399  PHE399      0.2264
    117  O        -23.7700  -33.0770  -40.9540 O.2   399  PHE399     -0.2867
    118  CB       -24.2300  -30.3570  -42.8610 C.3   399  PHE399      0.0534
    119  CG       -25.3310  -29.3370  -42.8950 C.ar  399  PHE399     -0.0203
    120  CD1      -26.6570  -29.7280  -42.7880 C.ar  399  PHE399     -0.0042
    121  CD2      -25.0450  -27.9900  -43.0380 C.ar  399  PHE399     -0.0042
    122  CE1      -27.6800  -28.7940  -42.8210 C.ar  399  PHE399     -0.0003
    123  CE2      -26.0610  -27.0490  -43.0730 C.ar  399  PHE399     -0.0003
    124  CZ       -27.3810  -27.4530  -42.9640 C.ar  399  PHE399     -0.0000
    125  N        -32.9190  -11.6300  -50.9960 N.3   671  MET671     -0.1245
    126  CA       -32.7310  -12.9430  -50.3870 C.3   671  MET671      0.1570
    127  C        -32.7730  -12.8760  -48.8650 C.2   671  MET671      0.2261
    128  O        -33.1390  -13.8580  -48.2160 O.2   671  MET671     -0.2867
    129  CB       -31.4160  -13.5640  -50.8570 C.3   671  MET671      0.0387
    130  CG       -31.3390  -13.7430  -52.3610 C.3   671  MET671      0.0595
    131  SD       -32.9190  -14.2760  -53.0440 S.3   671  MET671     -0.1393
    132  CE       -33.0170  -15.9510  -52.4130 C.3   671  MET671      0.0692
    133  N        -30.2590  -19.8840  -43.1030 N.3   736  ILE736     -0.1245
    134  CA       -28.9660  -19.7990  -43.7640 C.3   736  ILE736      0.1561
    135  C        -29.0170  -18.8400  -44.9470 C.2   736  ILE736      0.2260
    136  O        -28.0360  -18.1440  -45.2190 O.2   736  ILE736     -0.2867
    137  CB       -28.4970  -21.2070  -44.1620 C.3   736  ILE736      0.0252
    138  CG1      -28.2440  -22.0240  -42.8960 C.3   736  ILE736      0.0019
    139  CG2      -27.2400  -21.1400  -45.0090 C.3   736  ILE736      0.0019
    140  CD1      -27.9080  -23.4630  -43.1470 C.3   736  ILE736      0.0001
    141  N        -28.7750  -15.3450  -43.3350 N.3   739  THR739     -0.1203
    142  CA       -27.4260  -15.0330  -42.8720 C.3   739  THR739      0.1994
    143  C        -26.4580  -14.8950  -44.0420 C.2   739  THR739      0.2617
    144  O        -25.5570  -14.0540  -44.0060 O.2   739  THR739     -0.2717
    145  CB       -26.9370  -16.0990  -41.8900 C.3   739  THR739      0.1784
    146  OG1      -27.7700  -16.0890  -40.7280 O.3   739  THR739     -0.2211
    147  CG2      -25.5080  -15.8180  -41.4610 C.3   739  THR739      0.0376
    148  N        -26.6440  -15.6870  -45.1010 N.am  740  TRP740     -0.1975
    149  CA       -25.7950  -15.5830  -46.2830 C.3   740  TRP740      0.1640
    150  C        -25.9530  -14.2250  -46.9500 C.2   740  TRP740      0.2290
    151  O        -24.9640  -13.5370  -47.2310 O.2   740  TRP740     -0.2864
    152  CB       -26.1430  -16.7150  -47.2480 C.3   740  TRP740      0.0576
    153  CG       -25.5720  -16.5880  -48.6300 C.ar  740  TRP740      0.0006
    154  CD1      -24.3330  -16.9830  -49.0450 C.ar  740  TRP740      0.0946
    155  CD2      -26.2330  -16.0600  -49.7900 C.ar  740  TRP740      0.0152
    156  NE1      -24.1760  -16.7210  -50.3860 N.ar  740  TRP740     -0.2442
    157  CE2      -25.3280  -16.1540  -50.8670 C.ar  740  TRP740      0.0810
    158  CE3      -27.4980  -15.5090  -50.0200 C.ar  740  TRP740      0.0012
    159  CZ2      -25.6480  -15.7190  -52.1550 C.ar  740  TRP740      0.0191
    160  CZ3      -27.8150  -15.0770  -51.3020 C.ar  740  TRP740      0.0001
    161  CH2      -26.8930  -15.1850  -52.3510 C.ar  740  TRP740      0.0015
    162  N        -24.5010  -11.4920  -44.5560 N.3   743  PHE743     -0.1227
    163  CA       -23.0460  -11.4960  -44.4900 C.3   743  PHE743      0.1736
    164  C        -22.4280  -10.9900  -45.7830 C.2   743  PHE743      0.2595
    165  O        -21.4620  -10.2210  -45.7500 O.2   743  PHE743     -0.2718
    166  CB       -22.5370  -12.9010  -44.1720 C.3   743  PHE743      0.0547
    167  CG       -22.3700  -13.1660  -42.7050 C.ar  743  PHE743     -0.0202
    168  CD1      -22.3900  -12.1220  -41.7910 C.ar  743  PHE743     -0.0042
    169  CD2      -22.1830  -14.4570  -42.2380 C.ar  743  PHE743     -0.0042
    170  CE1      -22.2340  -12.3590  -40.4350 C.ar  743  PHE743     -0.0003
    171  CE2      -22.0240  -14.7040  -40.8840 C.ar  743  PHE743     -0.0003
    172  CZ       -22.0500  -13.6530  -39.9800 C.ar  743  PHE743     -0.0000
    173  N        -22.9700  -11.3990  -46.9340 N.am  744  LEU744     -0.1980
    174  CA       -22.3820  -10.9620  -48.1970 C.3   744  LEU744      0.1596
    175  C        -22.6180   -9.4750  -48.4350 C.2   744  LEU744      0.2287
    176  O        -21.6910   -8.7510  -48.8250 O.2   744  LEU744     -0.2864
    177  CB       -22.9280  -11.7980  -49.3540 C.3   744  LEU744      0.0297
    178  CG       -22.0870  -13.0360  -49.6880 C.3   744  LEU744      0.0022
    179  CD1      -22.1200  -14.0610  -48.5590 C.3   744  LEU744      0.0001
    180  CD2      -22.5130  -13.6690  -51.0060 C.3   744  LEU744      0.0001
@<TRIPOS>BOND
     1    31    29   am
     2    28    29    1
     3    28    27    1
     4    29    30    2
     5    23    24    1
     6    25    24    1
     7    25    26    2
     8    27    24    1
     9    18    17    2
    10    17    16    1
    11    15    16    1
    12    16    19    1
    13     1     2    1
    14     4     3    2
    15     3     2    1
    16     2     5    1
    17    22    21    1
    18    19    20    1
    19    21    20    1
    20     5     6    1
    21     7     6   ar
    22     7     9   ar
    23     6     8   ar
    24    51    50    1
    25    48    47    2
    26    49    50    1
    27    49    46    1
    28     9    10   ar
    29     8    11   ar
    30     8    10   ar
    31    47    46    1
    32    50    52    1
    33    11    13   ar
    34    10    12   ar
    35    46    45    1
    36    13    14   ar
    37    12    14   ar
    38    44    43    1
    39    43    40    1
    40    32    33    1
    41    39    40    1
    42    39    34   am
    43    41    40    1
    44    41    42    2
    45   131   132    1
    46   131   130    1
    47    33    34    1
    48    33    36    1
    49    34    35    2
    50   130   129    1
    51   161   159   ar
    52   161   160   ar
    53   159   157   ar
    54    37    36    1
    55    38    36    1
    56   160   158   ar
    57   180   178    1
    58   125   126    1
    59   157   156   ar
    60   157   155   ar
    61   129   126    1
    62   126   127    1
    63   156   154   ar
    64   158   155   ar
    65    74    72    1
    66   155   153   ar
    67    91    89   ar
    68    91    90   ar
    69   178   177    1
    70   178   179    1
    71   177   174    1
    72    73    72    1
    73    89    87   ar
    74    90    88   ar
    75    72    71    1
    76   154   153   ar
    77   127   128    2
    78   176   175    2
    79   153   152    1
    80    66    65    1
    81    65    62    1
    82   175   174    1
    83    87    88   ar
    84    87    86    1
    85   174   173    1
    86    71    68    1
    87   113   111    1
    88    67    68    1
    89    67    63   am
    90    86    83    1
    91   152   149    1
    92   151   150    2
    93    68    69    1
    94    62    63    1
    95    62    61    1
    96    63    64    2
    97   150   149    1
    98   173   164   am
    99   111   110    1
   100    61    55   am
   101   149   148    1
   102   112   110    1
   103    83    84    1
   104    83    82    1
   105   164   165    2
   106   164   163    1
   107    69    70    2
   108   110   107    1
   109    84    85    2
   110   136   135    2
   111   148   143   am
   112    53    54    1
   113    55    56    2
   114    55    54    1
   115    82    77   am
   116   139   137    1
   117   135   134    1
   118   162   163    1
   119   107   106    1
   120   107   108    1
   121   163   166    1
   122    54    57    1
   123    80    79    1
   124    57    58    1
   125   166   167    1
   126   137   134    1
   127   137   138    1
   128   143   144    2
   129   143   142    1
   130    60    58    1
   131   106    94   am
   132   134   133    1
   133    58    59    1
   134    77    78    2
   135    77    76    1
   136   108   109    2
   137   141   142    1
   138    96    97    1
   139    96    93    1
   140    75    76    1
   141   140   138    1
   142   123   121   ar
   143   123   124   ar
   144   121   119   ar
   145    79    76    1
   146    79    81    1
   147    94    95    2
   148    94    93    1
   149   124   122   ar
   150   119   118    1
   151   119   120   ar
   152   142   145    1
   153   118   115    1
   154    98    97   ar
   155    98   100   ar
   156   122   120   ar
   157   167   169   ar
   158   167   168   ar
   159    97    99   ar
   160    93    92    1
   161   169   171   ar
   162   100   101   ar
   163   145   147    1
   164   145   146    1
   165   168   170   ar
   166    99   101   ar
   167    99   102   ar
   168   115   116    1
   169   115   114    1
   170   116   117    2
   171   101   103   ar
   172   102   104   ar
   173   171   172   ar
   174   170   172   ar
   175   103   105   ar
   176   104   105   ar
