@<TRIPOS>MOLECULE
tmp/6hqbA07.pdb
 173 169 0 0 0
SMALL
GASTEIGER

@<TRIPOS>ATOM
      1  N         11.9510  -23.3110  -48.1780 N.3   276  THR276     -0.1203
      2  CA        12.2190  -22.4270  -47.0560 C.3   276  THR276      0.1994
      3  C         11.3000  -22.7340  -45.8760 C.2   276  THR276      0.2617
      4  O         10.3580  -23.5230  -45.9680 O.2   276  THR276     -0.2717
      5  CB        12.0560  -20.9670  -47.4800 C.3   276  THR276      0.1784
      6  OG1       10.6920  -20.7250  -47.8470 O.3   276  THR276     -0.2211
      7  CG2       12.9570  -20.6550  -48.6650 C.3   276  THR276      0.0376
      8  N         11.5950  -22.0890  -44.7500 N.am  277  PHE277     -0.1975
      9  CA        10.7790  -22.1670  -43.5430 C.3   277  PHE277      0.1639
     10  C         10.6170  -20.7660  -42.9640 C.2   277  PHE277      0.2290
     11  O         10.8600  -20.5180  -41.7820 O.2   277  PHE277     -0.2864
     12  CB        11.3970  -23.1200  -42.5210 C.3   277  PHE277      0.0560
     13  CG        10.3900  -23.8010  -41.6310 C.ar  277  PHE277     -0.0200
     14  CD1        9.9470  -25.0820  -41.9190 C.ar  277  PHE277     -0.0042
     15  CD2        9.8940  -23.1650  -40.5050 C.ar  277  PHE277     -0.0042
     16  CE1        9.0260  -25.7150  -41.1040 C.ar  277  PHE277     -0.0003
     17  CE2        8.9720  -23.7920  -39.6870 C.ar  277  PHE277     -0.0003
     18  CZ         8.5370  -25.0690  -39.9880 C.ar  277  PHE277     -0.0000
     19  N          7.7540  -18.7760  -42.8040 N.3   279  GLY279     -0.1210
     20  CA         6.5630  -18.5730  -42.0140 C.3   279  GLY279      0.1956
     21  C          5.9930  -17.1810  -42.2060 C.2   279  GLY279      0.2612
     22  O          6.4260  -16.3990  -43.0580 O.2   279  GLY279     -0.2717
     23  N          4.9950  -16.8710  -41.3820 N.am  280  GLY280     -0.1956
     24  CA         4.3560  -15.5710  -41.4810 C.3   280  GLY280      0.1869
     25  C          3.5240  -15.4620  -42.7440 C.2   280  GLY280      0.2309
     26  O          2.8130  -16.3940  -43.1340 O.2   280  GLY280     -0.2863
     27  N          0.2760  -16.7070  -47.4520 N.3   288  LEU288     -0.1231
     28  CA         1.3920  -17.5490  -47.0490 C.3   288  LEU288      0.1693
     29  C          2.4310  -17.6380  -48.1620 C.2   288  LEU288      0.2592
     30  O          2.1240  -17.4770  -49.3460 O.2   288  LEU288     -0.2718
     31  CB         0.9030  -18.9530  -46.6820 C.3   288  LEU288      0.0284
     32  CG         0.0940  -19.1310  -45.3940 C.3   288  LEU288      0.0019
     33  CD1       -0.3540  -20.5760  -45.2400 C.3   288  LEU288      0.0001
     34  CD2        0.8950  -18.6980  -44.1820 C.3   288  LEU288      0.0001
     35  N          3.6760  -17.8940  -47.7650 N.am  289  TRP289     -0.1976
     36  CA         4.7570  -18.0510  -48.7290 C.3   289  TRP289      0.1640
     37  C          4.6220  -19.3800  -49.4610 C.2   289  TRP289      0.2290
     38  O          4.4750  -20.4330  -48.8350 O.2   289  TRP289     -0.2864
     39  CB         6.1110  -17.9780  -48.0250 C.3   289  TRP289      0.0576
     40  CG         6.4430  -16.6260  -47.4790 C.ar  289  TRP289      0.0006
     41  CD1        6.1910  -16.1640  -46.2200 C.ar  289  TRP289      0.0946
     42  CD2        7.0950  -15.5590  -48.1760 C.ar  289  TRP289      0.0152
     43  NE1        6.6440  -14.8740  -46.0900 N.ar  289  TRP289     -0.2442
     44  CE2        7.2030  -14.4790  -47.2780 C.ar  289  TRP289      0.0810
     45  CE3        7.5970  -15.4110  -49.4720 C.ar  289  TRP289      0.0012
     46  CZ2        7.7930  -13.2690  -47.6340 C.ar  289  TRP289      0.0191
     47  CZ3        8.1810  -14.2080  -49.8250 C.ar  289  TRP289      0.0001
     48  CH2        8.2740  -13.1530  -48.9090 C.ar  289  TRP289      0.0015
     49  N          7.2920  -21.9620  -48.8290 N.3   292  ASP292     -0.1225
     50  CA         7.0200  -22.7990  -47.6690 C.3   292  ASP292      0.1805
     51  C          5.9800  -23.8690  -47.9750 C.2   292  ASP292      0.2598
     52  O          6.0700  -24.9770  -47.4400 O.2   292  ASP292     -0.2718
     53  CB         6.5590  -21.9360  -46.4920 C.3   292  ASP292      0.1424
     54  CG         7.5760  -20.8760  -46.1100 C.2   292  ASP292      0.3668
     55  OD1        8.7750  -21.0670  -46.4000 O.co2 292  ASP292     -0.2456
     56  OD2        7.1750  -19.8520  -45.5160 O.co2 292  ASP292     -0.2456
     57  N          5.0070  -23.5720  -48.8420 N.am  293  THR293     -0.1953
     58  CA         3.9540  -24.5440  -49.1250 C.3   293  THR293      0.1897
     59  C          4.4770  -25.7120  -49.9510 C.2   293  THR293      0.2313
     60  O          4.0370  -26.8510  -49.7640 O.2   293  THR293     -0.2863
     61  CB         2.7810  -23.8770  -49.8430 C.3   293  THR293      0.1794
     62  OG1        3.2050  -23.4110  -51.1300 O.3   293  THR293     -0.2208
     63  CG2        2.2420  -22.7110  -49.0270 C.3   293  THR293      0.0378
     64  N          7.6010  -26.9270  -49.8480 N.3   295  HIS295     -0.1226
     65  CA         8.3240  -27.7150  -48.8550 C.3   295  HIS295      0.1752
     66  C          7.3630  -28.4860  -47.9590 C.2   295  HIS295      0.2596
     67  O          7.5940  -29.6610  -47.6400 O.2   295  HIS295     -0.2718
     68  CB         9.2040  -26.7780  -48.0280 C.3   295  HIS295      0.0759
     69  CG        10.1500  -27.4800  -47.1110 C.ar  295  HIS295      0.0818
     70  ND1       10.7230  -26.8610  -46.0210 N.ar  295  HIS295     -0.2268
     71  CD2       10.6350  -28.7430  -47.1260 C.ar  295  HIS295      0.1154
     72  CE1       11.5160  -27.7150  -45.4000 C.ar  295  HIS295      0.1986
     73  NE2       11.4800  -28.8630  -46.0510 N.ar  295  HIS295     -0.2212
     74  N          6.2720  -27.8370  -47.5540 N.am  296  HIS296     -0.1975
     75  CA         5.2790  -28.4720  -46.6980 C.3   296  HIS296      0.1656
     76  C          4.6160  -29.6540  -47.3920 C.2   296  HIS296      0.2291
     77  O          4.4290  -30.7140  -46.7850 O.2   296  HIS296     -0.2864
     78  CB         4.2420  -27.4300  -46.2890 C.3   296  HIS296      0.0771
     79  CG         2.9330  -28.0090  -45.8660 C.ar  296  HIS296      0.0820
     80  ND1        2.7740  -28.7130  -44.6930 N.ar  296  HIS296     -0.2267
     81  CD2        1.7180  -27.9880  -46.4610 C.ar  296  HIS296      0.1154
     82  CE1        1.5160  -29.0970  -44.5810 C.ar  296  HIS296      0.1986
     83  NE2        0.8560  -28.6740  -45.6440 N.ar  296  HIS296     -0.2212
     84  N          7.0180  -32.5430  -47.5350 N.3   299  ALA299     -0.1231
     85  CA         7.0860  -33.2220  -46.2440 C.3   299  ALA299      0.1694
     86  C          5.8580  -34.0980  -46.0180 C.2   299  ALA299      0.2591
     87  O          5.9730  -35.2530  -45.5890 O.2   299  ALA299     -0.2718
     88  CB         7.2310  -32.1970  -45.1200 C.3   299  ALA299      0.0304
     89  N          4.6710  -33.5570  -46.3020 N.am  300  ILE300     -0.1980
     90  CA         3.4360  -34.3170  -46.1290 C.3   300  ILE300      0.1595
     91  C          3.4200  -35.5250  -47.0560 C.2   300  ILE300      0.2287
     92  O          2.9350  -36.6020  -46.6910 O.2   300  ILE300     -0.2864
     93  CB         2.2160  -33.4050  -46.3590 C.3   300  ILE300      0.0276
     94  CG1        2.1670  -32.3140  -45.2910 C.3   300  ILE300      0.0022
     95  CG2        0.9270  -34.2040  -46.3540 C.3   300  ILE300      0.0022
     96  CD1        2.2850  -32.8360  -43.8780 C.3   300  ILE300      0.0001
     97  N          5.6830  -38.1660  -45.6000 N.3   303  LEU303     -0.1231
     98  CA         5.0480  -38.7160  -44.4060 C.3   303  LEU303      0.1693
     99  C          3.9260  -39.6810  -44.7650 C.2   303  LEU303      0.2592
    100  O          3.8240  -40.7680  -44.1860 O.2   303  LEU303     -0.2718
    101  CB         4.5210  -37.5790  -43.5320 C.3   303  LEU303      0.0284
    102  CG         4.8980  -37.6160  -42.0500 C.3   303  LEU303      0.0019
    103  CD1        4.4500  -36.3400  -41.3540 C.3   303  LEU303      0.0001
    104  CD2        4.3010  -38.8380  -41.3710 C.3   303  LEU303      0.0001
    105  N          3.0840  -39.3130  -45.7330 N.am  304  PHE304     -0.1976
    106  CA         1.9480  -40.1580  -46.0850 C.3   304  PHE304      0.1639
    107  C          2.3930  -41.4190  -46.8160 C.2   304  PHE304      0.2290
    108  O          1.8340  -42.5020  -46.5930 O.2   304  PHE304     -0.2864
    109  CB         0.9500  -39.3690  -46.9300 C.3   304  PHE304      0.0560
    110  CG        -0.1150  -38.6870  -46.1250 C.ar  304  PHE304     -0.0200
    111  CD1       -0.7090  -39.3330  -45.0550 C.ar  304  PHE304     -0.0042
    112  CD2       -0.5180  -37.4010  -46.4340 C.ar  304  PHE304     -0.0042
    113  CE1       -1.6900  -38.7100  -44.3110 C.ar  304  PHE304     -0.0003
    114  CE2       -1.4990  -36.7730  -45.6940 C.ar  304  PHE304     -0.0003
    115  CZ        -2.0860  -37.4280  -44.6310 C.ar  304  PHE304     -0.0000
    116  N        -11.7250  -27.4500  -39.1270 N.3   365  ILE365     -0.1245
    117  CA       -10.3070  -27.1400  -38.9650 C.3   365  ILE365      0.1561
    118  C         -9.7850  -26.3820  -40.1800 C.2   365  ILE365      0.2260
    119  O         -8.9650  -25.4670  -40.0530 O.2   365  ILE365     -0.2867
    120  CB        -9.5070  -28.4320  -38.7120 C.3   365  ILE365      0.0252
    121  CG1       -9.8850  -29.0400  -37.3600 C.3   365  ILE365      0.0019
    122  CG2       -8.0150  -28.1660  -38.7730 C.3   365  ILE365      0.0019
    123  CD1       -9.2480  -30.3890  -37.1000 C.3   365  ILE365      0.0001
    124  N         -8.1140  -22.7270  -39.8890 N.3   369  HIS369     -0.1226
    125  CA        -6.7190  -22.5620  -40.2720 C.3   369  HIS369      0.1752
    126  C         -6.5440  -21.6250  -41.4550 C.2   369  HIS369      0.2595
    127  O         -5.5410  -20.9060  -41.5230 O.2   369  HIS369     -0.2718
    128  CB        -6.0970  -23.9190  -40.6030 C.3   369  HIS369      0.0759
    129  CG        -5.8730  -24.7890  -39.4060 C.ar  369  HIS369      0.0818
    130  ND1       -5.1470  -25.9590  -39.4620 N.ar  369  HIS369     -0.2268
    131  CD2       -6.2790  -24.6590  -38.1210 C.ar  369  HIS369      0.1154
    132  CE1       -5.1150  -26.5120  -38.2630 C.ar  369  HIS369      0.1986
    133  NE2       -5.7980  -25.7460  -37.4320 N.ar  369  HIS369     -0.2212
    134  N         -7.4960  -21.6120  -42.3890 N.am  370  MET370     -0.1979
    135  CA        -7.3970  -20.7060  -43.5230 C.3   370  MET370      0.1605
    136  C         -7.6560  -19.2640  -43.1150 C.2   370  MET370      0.2287
    137  O         -7.0660  -18.3460  -43.6970 O.2   370  MET370     -0.2864
    138  CB        -8.3750  -21.1230  -44.6200 C.3   370  MET370      0.0413
    139  CG        -8.0760  -22.4680  -45.2530 C.3   370  MET370      0.0598
    140  SD        -9.0680  -22.7340  -46.7300 S.3   370  MET370     -0.1393
    141  CE        -8.4810  -21.3800  -47.7440 C.3   370  MET370      0.0692
    142  N         -4.2150  -18.1250  -41.0730 N.3   373  MET373     -0.1245
    143  CA        -2.9970  -18.2630  -41.8660 C.3   373  MET373      0.1570
    144  C         -3.4110  -18.2540  -43.3330 C.2   373  MET373      0.2261
    145  O         -3.4720  -19.3130  -43.9760 O.2   373  MET373     -0.2867
    146  CB        -2.2350  -19.5370  -41.5080 C.3   373  MET373      0.0387
    147  CG        -1.8320  -19.6230  -40.0440 C.3   373  MET373      0.0595
    148  SD        -1.4590  -21.3040  -39.5120 S.3   373  MET373     -0.1393
    149  CE        -3.0430  -22.0850  -39.7960 C.3   373  MET373      0.0692
    150  N         -3.5850  -18.6630  -46.9430 N.3   375  PRO375     -0.2116
    151  CA        -2.6340  -19.2940  -47.8630 C.3   375  PRO375      0.1372
    152  C         -2.7060  -18.7970  -49.2960 C.2   375  PRO375      0.2244
    153  O         -1.8560  -19.1900  -50.1070 O.2   375  PRO375     -0.2868
    154  CB        -3.0310  -20.7830  -47.7910 C.3   375  PRO375      0.0268
    155  CG        -4.3530  -20.8360  -46.9980 C.3   375  PRO375      0.0207
    156  CD        -4.8350  -19.4300  -46.8540 C.3   375  PRO375      0.0892
    157  N          9.3880  -16.6180  -38.8490 N.3   503  ALA503     -0.1231
    158  CA         8.2060  -15.9000  -38.4030 C.3   503  ALA503      0.1694
    159  C          7.2520  -16.8680  -37.7180 C.2   503  ALA503      0.2593
    160  O          7.3660  -18.0890  -37.8550 O.2   503  ALA503     -0.2718
    161  CB         7.4970  -15.1980  -39.5690 C.3   503  ALA503      0.0304
    162  N          6.3070  -16.3030  -36.9740 N.am  504  THR504     -0.1939
    163  CA         5.3120  -17.1080  -36.2830 C.3   504  THR504      0.2028
    164  C          4.3690  -17.7700  -37.2850 C.2   504  THR504      0.2642
    165  O          4.2840  -17.3810  -38.4540 O.2   504  THR504     -0.2714
    166  CB         4.5140  -16.2500  -35.3000 C.3   504  THR504      0.1808
    167  OG1        3.4980  -17.0470  -34.6790 O.3   504  THR504     -0.2208
    168  CG2        3.8630  -15.0790  -36.0200 C.3   504  THR504      0.0379
    169  N          3.6580  -18.7950  -36.8090 N.am  505  ALA505     -0.1977
    170  CA         2.6970  -19.4880  -37.6620 C.3   505  ALA505      0.1597
    171  C          1.6090  -18.5360  -38.1400 C.2   505  ALA505      0.2287
    172  O          1.2950  -18.4800  -39.3350 O.2   505  ALA505     -0.2864
    173  CB         2.0890  -20.6730  -36.9110 C.3   505  ALA505      0.0319
@<TRIPOS>BOND
     1    62    61    1
     2   153   152    2
     3    59    60    2
     4    59    58    1
     5    64    65    1
     6    61    58    1
     7    61    63    1
     8    47    45   ar
     9    47    48   ar
    10    45    42   ar
    11    37    38    2
    12    37    36    1
    13    30    29    2
    14   152   151    1
    15    58    57    1
    16    48    46   ar
    17    65    68    1
    18    65    66    1
    19    57    51   am
    20    49    50    1
    21    36    39    1
    22    36    35    1
    23     7     5    1
    24     1     2    1
    25    42    40   ar
    26    42    44   ar
    27    29    35   am
    28    29    28    1
    29    68    69    1
    30    39    40    1
    31    51    50    1
    32    51    52    2
    33    66    67    2
    34    66    74   am
    35   151   154    1
    36   151   150    1
    37     6     5    1
    38   154   155    1
    39   141   140    1
    40    50    53    1
    41    46    44   ar
    42    74    75    1
    43    84    85    1
    44     5     2    1
    45    40    41   ar
    46    27    28    1
    47    76    77    2
    48    76    75    1
    49    44    43   ar
    50    71    69   ar
    51    71    73   ar
    52    69    70   ar
    53    91    92    2
    54    91    90    1
    55     2     3    1
    56    28    31    1
    57   155   156    1
    58   150   156    1
    59   109   110    1
    60   109   106    1
    61   107   108    2
    62   107   106    1
    63   140   139    1
    64    75    78    1
    65    31    32    1
    66    53    54    1
    67    81    79   ar
    68    81    83   ar
    69   112   110   ar
    70   112   114   ar
    71    55    54   ar
    72    93    95    1
    73    93    90    1
    74    93    94    1
    75    89    90    1
    76    89    86   am
    77    78    79    1
    78    85    86    1
    79    85    88    1
    80    41    43   ar
    81   110   111   ar
    82    54    56   ar
    83   106   105    1
    84    73    72   ar
    85    70    72   ar
    86    86    87    2
    87     4     3    2
    88     3     8   am
    89    79    80   ar
    90   105    99   am
    91   114   115   ar
    92    83    82   ar
    93    97    98    1
    94    32    33    1
    95    32    34    1
    96    94    96    1
    97   139   138    1
    98   111   113   ar
    99    99    98    1
   100    99   100    2
   101     8     9    1
   102    80    82   ar
   103   115   113   ar
   104   138   135    1
   105    98   101    1
   106   145   144    2
   107   137   136    2
   108     9    10    1
   109     9    12    1
   110   101   102    1
   111   135   136    1
   112   135   134    1
   113   144   143    1
   114    26    25    2
   115    22    21    2
   116    10    11    2
   117    19    20    1
   118    25    24    1
   119    12    13    1
   120   134   126   am
   121    21    20    1
   122    21    23   am
   123   102   104    1
   124   102   103    1
   125    14    13   ar
   126    14    16   ar
   127   143   146    1
   128   143   142    1
   129    13    15   ar
   130   127   126    2
   131   146   147    1
   132    24    23    1
   133   126   125    1
   134    16    18   ar
   135   128   125    1
   136   128   129    1
   137    15    17   ar
   138   125   124    1
   139   118   119    2
   140   118   117    1
   141   147   148    1
   142    18    17   ar
   143   149   148    1
   144   161   158    1
   145   130   129   ar
   146   130   132   ar
   147   129   131   ar
   148   172   171    2
   149   116   117    1
   150   117   120    1
   151   157   158    1
   152   122   120    1
   153   120   121    1
   154   165   164    2
   155   158   159    1
   156   132   133   ar
   157   171   170    1
   158   131   133   ar
   159   160   159    2
   160   159   162   am
   161   170   173    1
   162   170   169    1
   163   121   123    1
   164   164   169   am
   165   164   163    1
   166   162   163    1
   167   163   166    1
   168   168   166    1
   169   166   167    1
