@<TRIPOS>MOLECULE
tmp/6hqbA18.pdb
 175 168 0 0 0
SMALL
GASTEIGER

@<TRIPOS>ATOM
      1  N        -19.2270  -29.7080  -61.9850 N.3    86  TRP86      -0.1227
      2  CA       -19.3170  -28.4280  -61.2860 C.3    86  TRP86       0.1737
      3  C        -18.0050  -27.6510  -61.3590 C.2    86  TRP86       0.2595
      4  O        -18.0110  -26.4240  -61.5120 O.2    86  TRP86      -0.2718
      5  CB       -19.7190  -28.6430  -59.8280 C.3    86  TRP86       0.0564
      6  CG       -19.4730  -27.4310  -58.9790 C.ar   86  TRP86       0.0003
      7  CD1      -20.1810  -26.2650  -58.9900 C.ar   86  TRP86       0.0946
      8  CD2      -18.4390  -27.2640  -58.0010 C.ar   86  TRP86       0.0152
      9  NE1      -19.6540  -25.3830  -58.0770 N.ar   86  TRP86      -0.2442
     10  CE2      -18.5850  -25.9730  -57.4560 C.ar   86  TRP86       0.0810
     11  CE3      -17.4070  -28.0810  -57.5300 C.ar   86  TRP86       0.0012
     12  CZ2      -17.7380  -25.4810  -56.4660 C.ar   86  TRP86       0.0191
     13  CZ3      -16.5670  -27.5900  -56.5460 C.ar   86  TRP86       0.0001
     14  CH2      -16.7380  -26.3020  -56.0250 C.ar   86  TRP86       0.0015
     15  N        -16.8720  -28.3470  -61.2490 N.am   87  LEU87      -0.1980
     16  CA       -15.5810  -27.6610  -61.2320 C.3    87  LEU87       0.1596
     17  C        -15.2090  -27.1370  -62.6170 C.2    87  LEU87       0.2287
     18  O        -14.6610  -26.0300  -62.7480 O.2    87  LEU87      -0.2864
     19  CB       -14.5010  -28.6000  -60.6990 C.3    87  LEU87       0.0297
     20  CG       -13.1740  -27.9500  -60.3160 C.3    87  LEU87       0.0022
     21  CD1      -13.3960  -26.8780  -59.2600 C.3    87  LEU87       0.0001
     22  CD2      -12.1920  -29.0000  -59.8230 C.3    87  LEU87       0.0001
     23  N        -14.1330  -23.2920  -63.8670 N.3    91  TYR91      -0.1241
     24  CA       -13.0070  -22.9590  -64.7350 C.3    91  TYR91       0.1605
     25  C        -13.4770  -22.2920  -66.0250 C.2    91  TYR91       0.2264
     26  O        -12.8490  -21.3370  -66.4980 O.2    91  TYR91      -0.2867
     27  CB       -12.1730  -24.2030  -65.0270 C.3    91  TYR91       0.0534
     28  CG       -11.2560  -24.5630  -63.8830 C.ar   91  TYR91      -0.0201
     29  CD1      -10.1560  -23.7730  -63.5790 C.ar   91  TYR91      -0.0009
     30  CD2      -11.4940  -25.6820  -63.0990 C.ar   91  TYR91      -0.0009
     31  CE1       -9.3150  -24.0910  -62.5300 C.ar   91  TYR91       0.0417
     32  CE2      -10.6570  -26.0100  -62.0470 C.ar   91  TYR91       0.0417
     33  CZ        -9.5690  -25.2110  -61.7680 C.ar   91  TYR91       0.1957
     34  OH        -8.7320  -25.5310  -60.7230 O.3    91  TYR91      -0.2866
     35  N        -16.0870  -16.6170  -53.4800 N.3   141  SER141     -0.1202
     36  CA       -15.5230  -17.9460  -53.2810 C.3   141  SER141      0.2020
     37  C        -14.0020  -17.9640  -53.3640 C.2   141  SER141      0.2619
     38  O        -13.3950  -18.9950  -53.0550 O.2   141  SER141     -0.2717
     39  CB       -16.1150  -18.9220  -54.3020 C.3   141  SER141      0.2103
     40  OG       -15.9730  -18.4350  -55.6250 O.3   141  SER141     -0.2182
     41  N        -13.3760  -16.8590  -53.7630 N.am  142  GLY142     -0.1942
     42  CA       -11.9300  -16.7890  -53.8350 C.3   142  GLY142      0.2014
     43  C        -11.3260  -17.7050  -54.8770 C.2   142  GLY142      0.2638
     44  O        -10.4310  -18.4980  -54.5710 O.2   142  GLY142     -0.2714
     45  N        -11.8110  -17.6090  -56.1150 N.am  143  LEU143     -0.1977
     46  CA       -11.2710  -18.4070  -57.2070 C.3   143  LEU143      0.1596
     47  C        -10.0850  -17.7380  -57.8860 C.2   143  LEU143      0.2287
     48  O         -9.1580  -18.4320  -58.3200 O.2   143  LEU143     -0.2864
     49  CB       -12.3630  -18.6930  -58.2430 C.3   143  LEU143      0.0297
     50  CG       -13.5480  -19.5340  -57.7630 C.3   143  LEU143      0.0022
     51  CD1      -14.5950  -19.6520  -58.8580 C.3   143  LEU143      0.0001
     52  CD2      -13.0840  -20.9100  -57.3080 C.3   143  LEU143      0.0001
     53  N         -7.8310  -15.8980  -56.4420 N.3   145  TYR145     -0.1227
     54  CA        -6.6630  -16.0790  -55.5850 C.3   145  TYR145      0.1736
     55  C         -6.0750  -17.4760  -55.7480 C.2   145  TYR145      0.2595
     56  O         -4.8500  -17.6370  -55.8290 O.2   145  TYR145     -0.2718
     57  CB        -7.0450  -15.8090  -54.1290 C.3   145  TYR145      0.0548
     58  CG        -7.7710  -14.4940  -53.9440 C.ar  145  TYR145     -0.0200
     59  CD1       -7.4330  -13.3850  -54.7050 C.ar  145  TYR145     -0.0009
     60  CD2       -8.8040  -14.3640  -53.0250 C.ar  145  TYR145     -0.0009
     61  CE1       -8.0900  -12.1870  -54.5520 C.ar  145  TYR145      0.0417
     62  CE2       -9.4700  -13.1590  -52.8660 C.ar  145  TYR145      0.0417
     63  CZ        -9.1030  -12.0760  -53.6380 C.ar  145  TYR145      0.1957
     64  OH        -9.7410  -10.8660  -53.5110 O.3   145  TYR145     -0.2866
     65  N         -6.9360  -18.4960  -55.8130 N.am  146  LEU146     -0.1980
     66  CA        -6.4690  -19.8530  -56.0800 C.3   146  LEU146      0.1596
     67  C         -5.7920  -19.9470  -57.4420 C.2   146  LEU146      0.2287
     68  O         -4.7220  -20.5550  -57.5730 O.2   146  LEU146     -0.2864
     69  CB        -7.6420  -20.8310  -55.9980 C.3   146  LEU146      0.0297
     70  CG        -7.4300  -22.2240  -56.5980 C.3   146  LEU146      0.0022
     71  CD1       -6.5310  -23.0750  -55.7160 C.3   146  LEU146      0.0001
     72  CD2       -8.7660  -22.9110  -56.8330 C.3   146  LEU146      0.0001
     73  N        -14.6540  -35.9780  -41.1620 N.3   359  LEU359     -0.1245
     74  CA       -14.6370  -35.0610  -42.2950 C.3   359  LEU359      0.1561
     75  C        -15.2210  -33.7050  -41.9200 C.2   359  LEU359      0.2260
     76  O        -14.6970  -32.6650  -42.3320 O.2   359  LEU359     -0.2867
     77  CB       -15.3970  -35.6760  -43.4700 C.3   359  LEU359      0.0270
     78  CG       -15.3770  -34.9030  -44.7870 C.3   359  LEU359      0.0019
     79  CD1      -13.9570  -34.5190  -45.1540 C.3   359  LEU359      0.0001
     80  CD2      -16.0030  -35.7350  -45.8920 C.3   359  LEU359      0.0001
     81  N        -12.7000  -31.9410  -39.7450 N.3   362  LEU362     -0.1231
     82  CA       -11.5810  -31.4640  -40.5460 C.3   362  LEU362      0.1693
     83  C        -11.9750  -30.2830  -41.4230 C.2   362  LEU362      0.2592
     84  O        -11.1410  -29.4190  -41.6940 O.2   362  LEU362     -0.2718
     85  CB       -11.0190  -32.6050  -41.3950 C.3   362  LEU362      0.0284
     86  CG        -9.6240  -32.4060  -41.9930 C.3   362  LEU362      0.0019
     87  CD1       -8.8680  -33.7250  -42.0140 C.3   362  LEU362      0.0001
     88  CD2       -9.7040  -31.8150  -43.3950 C.3   362  LEU362      0.0001
     89  N        -13.2300  -30.2180  -41.8730 N.am  363  THR363     -0.1953
     90  CA       -13.6830  -29.0300  -42.5950 C.3   363  THR363      0.1897
     91  C        -13.6830  -27.8080  -41.6800 C.2   363  THR363      0.2313
     92  O        -13.2770  -26.7070  -42.0860 O.2   363  THR363     -0.2863
     93  CB       -15.0800  -29.2680  -43.1780 C.3   363  THR363      0.1794
     94  OG1      -15.1690  -30.6030  -43.6930 O.3   363  THR363     -0.2208
     95  CG2      -15.3700  -28.2840  -44.3030 C.3   363  THR363      0.0378
     96  N        -10.2480  -26.7550  -41.3750 N.3   366  VAL366     -0.1245
     97  CA        -9.8450  -26.0560  -42.5930 C.3   366  VAL366      0.1561
     98  C        -10.2350  -24.5900  -42.5080 C.2   366  VAL366      0.2260
     99  O         -9.4360  -23.6970  -42.8100 O.2   366  VAL366     -0.2867
    100  CB       -10.4630  -26.7270  -43.8350 C.3   366  VAL366      0.0252
    101  CG1      -10.3790  -25.7980  -45.0420 C.3   366  VAL366      0.0019
    102  CG2       -9.7680  -28.0440  -44.1340 C.3   366  VAL366      0.0019
    103  N         -7.4960  -21.6120  -42.3890 N.3   370  MET370     -0.1245
    104  CA        -7.3970  -20.7060  -43.5230 C.3   370  MET370      0.1570
    105  C         -7.6560  -19.2640  -43.1150 C.2   370  MET370      0.2261
    106  O         -7.0660  -18.3460  -43.6970 O.2   370  MET370     -0.2867
    107  CB        -8.3750  -21.1230  -44.6200 C.3   370  MET370      0.0387
    108  CG        -8.0760  -22.4680  -45.2530 C.3   370  MET370      0.0595
    109  SD        -9.0680  -22.7340  -46.7300 S.3   370  MET370     -0.1393
    110  CE        -8.4810  -21.3800  -47.7440 C.3   370  MET370      0.0692
    111  N         -3.6800  -17.9600  -49.6300 N.3   376  TYR376     -0.1241
    112  CA        -3.8270  -17.5050  -50.9990 C.3   376  TYR376      0.1605
    113  C         -3.5250  -16.0130  -51.1090 C.2   376  TYR376      0.2264
    114  O         -3.7850  -15.2480  -50.1750 O.2   376  TYR376     -0.2867
    115  CB        -5.2410  -17.7850  -51.5200 C.3   376  TYR376      0.0534
    116  CG        -5.5630  -19.2600  -51.6090 C.ar  376  TYR376     -0.0201
    117  CD1       -5.2400  -19.9930  -52.7420 C.ar  376  TYR376     -0.0009
    118  CD2       -6.1810  -19.9220  -50.5550 C.ar  376  TYR376     -0.0009
    119  CE1       -5.5270  -21.3420  -52.8260 C.ar  376  TYR376      0.0417
    120  CE2       -6.4710  -21.2720  -50.6310 C.ar  376  TYR376      0.0417
    121  CZ        -6.1440  -21.9760  -51.7690 C.ar  376  TYR376      0.1957
    122  OH        -6.4320  -23.3180  -51.8480 O.3   376  TYR376     -0.2866
    123  N         -6.1620  -12.7150  -50.4400 N.3   379  GLN379     -0.1245
    124  CA        -7.4060  -13.1560  -49.8230 C.3   379  GLN379      0.1566
    125  C         -7.6160  -12.5410  -48.4470 C.2   379  GLN379      0.2260
    126  O         -8.7640  -12.3680  -48.0230 O.2   379  GLN379     -0.2867
    127  CB        -7.4490  -14.6850  -49.7200 C.3   379  GLN379      0.0367
    128  CG        -6.7010  -15.2700  -48.5320 C.3   379  GLN379      0.0905
    129  CD        -7.1560  -16.6790  -48.2020 C.2   379  GLN379      0.2608
    130  OE1       -7.5350  -17.4430  -49.0880 O.2   379  GLN379     -0.2717
    131  NE2       -7.1330  -17.0240  -46.9200 N.am  379  GLN379     -0.0878
    132  N        -15.3750  -18.0270  -47.3160 N.3   389  LEU389     -0.1245
    133  CA       -14.7150  -19.3240  -47.1890 C.3   389  LEU389      0.1561
    134  C        -14.8400  -19.8620  -45.7690 C.2   389  LEU389      0.2260
    135  O        -15.1900  -21.0340  -45.5640 O.2   389  LEU389     -0.2867
    136  CB       -13.2440  -19.2100  -47.5910 C.3   389  LEU389      0.0270
    137  CG       -12.9460  -18.9970  -49.0740 C.3   389  LEU389      0.0019
    138  CD1      -11.4520  -18.8540  -49.2960 C.3   389  LEU389      0.0001
    139  CD2      -13.5050  -20.1450  -49.9010 C.3   389  LEU389      0.0001
    140  N        -18.5670  -20.8520  -45.0110 N.3   392  HIS392     -0.1226
    141  CA       -19.0050  -21.9680  -45.8390 C.3   392  HIS392      0.1752
    142  C        -18.3830  -23.2780  -45.3720 C.2   392  HIS392      0.2596
    143  O        -19.0780  -24.3010  -45.2650 O.2   392  HIS392     -0.2718
    144  CB       -18.6600  -21.6810  -47.2990 C.3   392  HIS392      0.0759
    145  CG       -18.8740  -22.8450  -48.2110 C.ar  392  HIS392      0.0818
    146  ND1      -20.0330  -23.5890  -48.2070 N.ar  392  HIS392     -0.2268
    147  CD2      -18.0760  -23.3920  -49.1570 C.ar  392  HIS392      0.1154
    148  CE1      -19.9400  -24.5450  -49.1130 C.ar  392  HIS392      0.1986
    149  NE2      -18.7610  -24.4490  -49.7020 N.ar  392  HIS392     -0.2212
    150  N        -17.0770  -23.2670  -45.0820 N.am  393  HIS393     -0.1975
    151  CA       -16.4300  -24.4550  -44.5420 C.3   393  HIS393      0.1656
    152  C        -16.8060  -24.7160  -43.0910 C.2   393  HIS393      0.2291
    153  O        -16.5320  -25.8090  -42.5850 O.2   393  HIS393     -0.2864
    154  CB       -14.9150  -24.3340  -44.6820 C.3   393  HIS393      0.0771
    155  CG       -14.4460  -24.3330  -46.1020 C.ar  393  HIS393      0.0820
    156  ND1      -13.1450  -24.0510  -46.4570 N.ar  393  HIS393     -0.2267
    157  CD2      -15.1060  -24.5820  -47.2580 C.ar  393  HIS393      0.1154
    158  CE1      -13.0250  -24.1240  -47.7700 C.ar  393  HIS393      0.1986
    159  NE2      -14.2000  -24.4440  -48.2800 N.ar  393  HIS393     -0.2212
    160  N        -20.4640  -26.6000  -43.9600 N.3   396  ILE396     -0.1245
    161  CA       -20.2850  -27.9360  -44.5280 C.3   396  ILE396      0.1561
    162  C        -19.9050  -28.9290  -43.4340 C.2   396  ILE396      0.2260
    163  O        -20.5030  -30.0080  -43.3090 O.2   396  ILE396     -0.2867
    164  CB       -19.2380  -27.9090  -45.6550 C.3   396  ILE396      0.0252
    165  CG1      -19.7500  -27.0870  -46.8380 C.3   396  ILE396      0.0019
    166  CG2      -18.8960  -29.3220  -46.0960 C.3   396  ILE396      0.0019
    167  CD1      -21.0030  -27.6460  -47.4740 C.3   396  ILE396      0.0001
    168  N        -21.9120  -32.2360  -41.9310 N.3   400  LEU400     -0.1245
    169  CA       -21.2700  -33.5440  -41.9970 C.3   400  LEU400      0.1561
    170  C        -21.0360  -34.1450  -40.6180 C.2   400  LEU400      0.2260
    171  O        -20.9080  -35.3680  -40.5020 O.2   400  LEU400     -0.2867
    172  CB       -19.9480  -33.4440  -42.7610 C.3   400  LEU400      0.0270
    173  CG       -20.0650  -33.0330  -44.2320 C.3   400  LEU400      0.0019
    174  CD1      -18.7330  -33.1800  -44.9460 C.3   400  LEU400      0.0001
    175  CD2      -21.1470  -33.8310  -44.9420 C.3   400  LEU400      0.0001
@<TRIPOS>BOND
     1    26    25    2
     2    25    24    1
     3    27    24    1
     4    27    28    1
     5    24    23    1
     6    28    29   ar
     7    28    30   ar
     8    29    31   ar
     9    30    32   ar
    10    18    17    2
    11    17    16    1
    12    31    33   ar
    13    32    33   ar
    14     1     2    1
    15    33    34    1
    16     4     3    2
    17     3     2    1
    18     3    15   am
    19     2     5    1
    20    15    16    1
    21    16    19    1
    22    19    20    1
    23    20    22    1
    24    20    21    1
    25     5     6    1
    26     7     6   ar
    27     7     9   ar
    28     6     8   ar
    29    51    50    1
    30    48    47    2
    31    49    50    1
    32    49    46    1
    33     9    10   ar
    34     8    11   ar
    35     8    10   ar
    36    47    46    1
    37    50    52    1
    38    68    67    2
    39    11    13   ar
    40    10    12   ar
    41    67    66    1
    42    46    45    1
    43    72    70    1
    44    70    69    1
    45    70    71    1
    46    13    14   ar
    47    12    14   ar
    48    53    54    1
    49    45    43   am
    50    66    69    1
    51    66    65    1
    52    56    55    2
    53    65    55   am
    54    55    54    1
    55    40    39    1
    56    54    57    1
    57    43    44    2
    58    43    42    1
    59    59    61   ar
    60    59    58   ar
    61    61    63   ar
    62    39    36    1
    63    57    58    1
    64    58    60   ar
    65    42    41    1
    66    41    37   am
    67    63    64    1
    68    63    62   ar
    69    35    36    1
    70    37    36    1
    71    37    38    2
    72    60    62   ar
    73   119   117   ar
    74   119   121   ar
    75   117   116   ar
    76   122   121    1
    77   121   120   ar
    78   116   115    1
    79   116   118   ar
    80   115   112    1
    81   113   112    1
    82   113   114    2
    83   112   111    1
    84   120   118   ar
    85   123   124    1
    86   139   137    1
    87   124   127    1
    88   124   125    1
    89   127   128    1
    90   149   147   ar
    91   149   148   ar
    92   138   137    1
    93   147   145   ar
    94   148   146   ar
    95   130   129    2
    96   137   136    1
    97   128   129    1
    98   125   126    2
    99   159   158   ar
   100   159   157   ar
   101   145   146   ar
   102   145   144    1
   103   129   131   am
   104   158   156   ar
   105   110   109    1
   106   136   133    1
   107   167   165    1
   108   132   133    1
   109   144   141    1
   110   157   155   ar
   111   133   134    1
   112   165   164    1
   113   109   108    1
   114   156   155   ar
   115   155   154    1
   116   166   164    1
   117    80    78    1
   118   141   142    1
   119   141   140    1
   120   134   135    2
   121   164   161    1
   122   142   143    2
   123   142   150   am
   124   108   107    1
   125    79    78    1
   126   150   151    1
   127   101   100    1
   128   174   173    1
   129   175   173    1
   130    78    77    1
   131   154   151    1
   132   107   104    1
   133   151   152    1
   134   161   160    1
   135   161   162    1
   136    95    93    1
   137   173   172    1
   138   102   100    1
   139   100    97    1
   140   106   105    2
   141    94    93    1
   142   104   105    1
   143   104   103    1
   144    77    74    1
   145   162   163    2
   146    88    86    1
   147    93    90    1
   148   152   153    2
   149    99    98    2
   150   172   169    1
   151    90    89    1
   152    90    91    1
   153    97    98    1
   154    97    96    1
   155    76    75    2
   156    74    75    1
   157    74    73    1
   158    92    91    2
   159    87    86    1
   160   169   168    1
   161   169   170    1
   162    86    85    1
   163    89    83   am
   164    84    83    2
   165    83    82    1
   166    85    82    1
   167   170   171    2
   168    82    81    1
