@<TRIPOS>MOLECULE
tmp/6hqbF05.pdb
 78 76 0 0 0
SMALL
GASTEIGER

@<TRIPOS>ATOM
      1  N        -72.6580  -28.8720  -68.7180 N.3   126  TYR126     -0.1227
      2  CA       -73.5810  -28.4470  -67.6710 C.3   126  TYR126      0.1736
      3  C        -75.0340  -28.6530  -68.0870 C.2   126  TYR126      0.2596
      4  O        -75.8660  -29.0500  -67.2640 O.2   126  TYR126     -0.2718
      5  CB       -73.3370  -26.9820  -67.3060 C.3   126  TYR126      0.0548
      6  CG       -74.2050  -26.5060  -66.1620 C.ar  126  TYR126     -0.0200
      7  CD1      -73.8430  -26.7520  -64.8450 C.ar  126  TYR126     -0.0009
      8  CD2      -75.3910  -25.8220  -66.3990 C.ar  126  TYR126     -0.0009
      9  CE1      -74.6350  -26.3260  -63.7930 C.ar  126  TYR126      0.0417
     10  CE2      -76.1900  -25.3910  -65.3530 C.ar  126  TYR126      0.0417
     11  CZ       -75.8070  -25.6460  -64.0520 C.ar  126  TYR126      0.1957
     12  OH       -76.5950  -25.2220  -63.0050 O.3   126  TYR126     -0.2866
     13  N        -75.3600  -28.3800  -69.3530 N.am  127  THR127     -0.1939
     14  CA       -76.7180  -28.6200  -69.8300 C.3   127  THR127      0.2028
     15  C        -77.0380  -30.1090  -69.8470 C.2   127  THR127      0.2643
     16  O        -78.1260  -30.5210  -69.4270 O.2   127  THR127     -0.2714
     17  CB       -76.9080  -28.0170  -71.2230 C.3   127  THR127      0.1808
     18  OG1      -75.9050  -28.5290  -72.1100 O.3   127  THR127     -0.2208
     19  CG2      -76.8070  -26.5000  -71.1650 C.3   127  THR127      0.0379
     20  N        -76.1040  -30.9310  -70.3280 N.am  128  SER128     -0.1935
     21  CA       -76.2970  -32.3750  -70.2720 C.3   128  SER128      0.2055
     22  C        -76.1630  -32.9010  -68.8480 C.2   128  SER128      0.2643
     23  O        -76.8400  -33.8670  -68.4810 O.2   128  SER128     -0.2714
     24  CB       -75.3020  -33.0740  -71.1990 C.3   128  SER128      0.2130
     25  OG       -73.9700  -32.7010  -70.8910 O.3   128  SER128     -0.2179
     26  N        -75.3030  -32.2850  -68.0380 N.am  129  GLY129     -0.1954
     27  CA       -75.1750  -32.6600  -66.6430 C.3   129  GLY129      0.1869
     28  C        -73.8730  -33.3520  -66.2910 C.2   129  GLY129      0.2309
     29  O        -73.8170  -34.1140  -65.3210 O.2   129  GLY129     -0.2863
     30  N        -71.1110  -30.9570  -63.0550 N.3   132  VAL132     -0.1231
     31  CA       -71.2470  -31.0620  -61.6160 C.3   132  VAL132      0.1692
     32  C        -71.7010  -32.4710  -61.2540 C.2   132  VAL132      0.2592
     33  O        -71.9980  -33.2940  -62.1160 O.2   132  VAL132     -0.2718
     34  CB       -72.2200  -29.9960  -61.0550 C.3   132  VAL132      0.0266
     35  CG1      -71.8040  -29.5710  -59.6490 C.3   132  VAL132      0.0020
     36  CG2      -72.2890  -28.7990  -61.9900 C.3   132  VAL132      0.0020
     37  N        -71.7560  -32.7550  -59.9570 N.am  133  MET133     -0.1965
     38  CA       -72.1700  -34.0470  -59.4270 C.3   133  MET133      0.1736
     39  C        -73.4040  -33.8740  -58.5470 C.2   133  MET133      0.2616
     40  O        -73.9360  -32.7730  -58.3870 O.2   133  MET133     -0.2715
     41  CB       -71.0330  -34.7020  -58.6380 C.3   133  MET133      0.0427
     42  CG       -69.8860  -35.2000  -59.4940 C.3   133  MET133      0.0599
     43  SD       -70.3030  -36.7260  -60.3510 S.3   133  MET133     -0.1393
     44  CE       -70.6110  -37.8160  -58.9620 C.3   133  MET133      0.0692
     45  N        -73.8560  -34.9860  -57.9750 N.am  134  LYS134     -0.1963
     46  CA       -74.9710  -35.0050  -57.0390 C.3   134  LYS134      0.1728
     47  C        -74.4500  -35.2180  -55.6250 C.2   134  LYS134      0.2616
     48  O        -73.5440  -36.0270  -55.4020 O.2   134  LYS134     -0.2715
     49  CB       -75.9720  -36.1090  -57.3900 C.3   134  LYS134      0.0311
     50  CG       -76.8170  -35.8270  -58.6180 C.3   134  LYS134      0.0038
     51  CD       -77.7910  -36.9660  -58.8780 C.3   134  LYS134      0.0206
     52  CE       -78.5960  -37.3010  -57.6290 C.3   134  LYS134      0.1093
     53  NZ       -79.3450  -36.1240  -57.1080 N.3   134  LYS134     -0.1314
     54  N        -75.0330  -34.4900  -54.6690 N.am  135  ASP135     -0.1957
     55  CA       -74.5930  -34.6090  -53.2820 C.3   135  ASP135      0.1840
     56  C        -74.8360  -36.0120  -52.7420 C.2   135  ASP135      0.2622
     57  O        -74.0060  -36.5520  -52.0010 O.2   135  ASP135     -0.2715
     58  CB       -75.3040  -33.5700  -52.4160 C.3   135  ASP135      0.1450
     59  CG       -74.9260  -32.1510  -52.7840 C.2   135  ASP135      0.3671
     60  OD1      -74.0290  -31.9770  -53.6350 O.co2 135  ASP135     -0.2456
     61  OD2      -75.5260  -31.2110  -52.2230 O.co2 135  ASP135     -0.2456
     62  N        -75.9610  -36.6260  -53.1110 N.am  136  SER136     -0.1950
     63  CA       -76.2910  -37.9620  -52.6300 C.3   136  SER136      0.1924
     64  C        -75.4070  -39.0480  -53.2270 C.2   136  SER136      0.2314
     65  O        -75.6280  -40.2290  -52.9350 O.2   136  SER136     -0.2863
     66  CB       -77.7610  -38.2730  -52.9230 C.3   136  SER136      0.2116
     67  OG       -78.0380  -38.1800  -54.3090 O.3   136  SER136     -0.2180
     68  N        -71.8010  -36.1790  -39.9400 N.3   143  ARG143     -0.1245
     69  CA       -72.1710  -34.8190  -39.5640 C.3   143  ARG143      0.1563
     70  C        -72.1020  -34.6180  -38.0560 C.2   143  ARG143      0.2260
     71  O        -72.9440  -35.1240  -37.3130 O.2   143  ARG143     -0.2867
     72  CB       -73.5790  -34.4860  -40.0710 C.3   143  ARG143      0.0307
     73  CG       -73.6310  -33.9900  -41.5090 C.3   143  ARG143      0.0489
     74  CD       -73.2800  -35.0790  -42.5100 C.3   143  ARG143      0.2205
     75  NE       -72.9950  -34.5250  -43.8300 N.pl3 143  ARG143     -0.0865
     76  CZ       -71.7860  -34.1500  -44.2340 C.cat 143  ARG143      0.5346
     77  NH1      -70.7460  -34.2730  -43.4220 N.pl3 143  ARG143      0.1354
     78  NH2      -71.6140  -33.6520  -45.4510 N.pl3 143  ARG143      0.1354
@<TRIPOS>BOND
     1    18    17    1
     2    17    19    1
     3    17    14    1
     4    24    25    1
     5    24    21    1
     6    20    21    1
     7    20    15   am
     8    21    22    1
     9    15    14    1
    10    15    16    2
    11    14    13    1
    12    13     3   am
    13    22    23    2
    14    22    26   am
    15     1     2    1
    16     3     2    1
    17     3     4    2
    18    26    27    1
    19     2     5    1
    20     5     6    1
    21    27    28    1
    22     8     6   ar
    23     8    10   ar
    24    28    29    2
    25     6     7   ar
    26    10    11   ar
    27     7     9   ar
    28    11     9   ar
    29    11    12    1
    30    30    31    1
    31    33    32    2
    32    36    34    1
    33    31    32    1
    34    31    34    1
    35    32    37   am
    36    34    35    1
    37    43    42    1
    38    43    44    1
    39    37    38    1
    40    42    41    1
    41    38    41    1
    42    38    39    1
    43    51    50    1
    44    51    52    1
    45    50    49    1
    46    39    40    2
    47    39    45   am
    48    45    46    1
    49    52    53    1
    50    49    46    1
    51    46    47    1
    52    47    48    2
    53    47    54   am
    54    54    55    1
    55    67    66    1
    56    60    59   ar
    57    55    56    1
    58    55    58    1
    59    64    65    2
    60    64    63    1
    61    62    56   am
    62    62    63    1
    63    66    63    1
    64    59    58    1
    65    59    61   ar
    66    56    57    2
    67    78    76    1
    68    76    75    2
    69    76    77    1
    70    75    74    1
    71    74    73    1
    72    73    72    1
    73    72    69    1
    74    68    69    1
    75    69    70    1
    76    70    71    2
