@<TRIPOS>MOLECULE
tmp/6hqbA04.pdb
 162 158 0 0 0
SMALL
GASTEIGER

@<TRIPOS>ATOM
      1  N          2.9160  -34.8810  -53.2450 N.3   210  LEU210     -0.1231
      2  CA         4.1880  -34.9540  -53.9610 C.3   210  LEU210      0.1693
      3  C          4.0880  -34.2760  -55.3240 C.2   210  LEU210      0.2592
      4  O          4.8740  -33.3770  -55.6530 O.2   210  LEU210     -0.2718
      5  CB         4.6040  -36.4180  -54.1220 C.3   210  LEU210      0.0284
      6  CG         6.0220  -36.8250  -53.7220 C.3   210  LEU210      0.0019
      7  CD1        6.3190  -38.2230  -54.2380 C.3   210  LEU210      0.0001
      8  CD2        7.0560  -35.8250  -54.2190 C.3   210  LEU210      0.0001
      9  N          3.1160  -34.7020  -56.1320 N.am  211  GLY211     -0.1957
     10  CA         2.9520  -34.1340  -57.4560 C.3   211  GLY211      0.1869
     11  C          2.5610  -32.6720  -57.4300 C.2   211  GLY211      0.2309
     12  O          2.9820  -31.9000  -58.2940 O.2   211  GLY211     -0.2863
     13  N          3.4440  -30.5000  -55.0670 N.3   213  ALA213     -0.1231
     14  CA         4.6660  -29.7780  -54.7340 C.3   213  ALA213      0.1694
     15  C          5.5810  -29.6820  -55.9460 C.2   213  ALA213      0.2592
     16  O          6.2130  -28.6450  -56.1750 O.2   213  ALA213     -0.2718
     17  CB         5.3810  -30.4610  -53.5680 C.3   213  ALA213      0.0304
     18  N          5.6620  -30.7560  -56.7340 N.am  214  GLY214     -0.1957
     19  CA         6.4040  -30.6840  -57.9830 C.3   214  GLY214      0.1869
     20  C          5.8480  -29.6310  -58.9220 C.2   214  GLY214      0.2309
     21  O          6.5990  -28.8570  -59.5230 O.2   214  GLY214     -0.2863
     22  N          6.8530  -26.1860  -57.5860 N.3   217  ILE217     -0.1231
     23  CA         8.2600  -25.9060  -57.8420 C.3   217  ILE217      0.1692
     24  C          8.4960  -25.6400  -59.3230 C.2   217  ILE217      0.2592
     25  O          9.4180  -24.9000  -59.6910 O.2   217  ILE217     -0.2718
     26  CB         9.1240  -27.0660  -57.3120 C.3   217  ILE217      0.0266
     27  CG1        8.9380  -27.2030  -55.8010 C.3   217  ILE217      0.0019
     28  CG2       10.5920  -26.8520  -57.6360 C.3   217  ILE217      0.0020
     29  CD1        9.4730  -28.4900  -55.2350 C.3   217  ILE217      0.0001
     30  N          7.6620  -26.2050  -60.1970 N.am  218  HIS218     -0.1976
     31  CA         7.8290  -26.0180  -61.6300 C.3   218  HIS218      0.1656
     32  C          6.8010  -25.0880  -62.2600 C.2   218  HIS218      0.2291
     33  O          6.9170  -24.7970  -63.4550 O.2   218  HIS218     -0.2864
     34  CB         7.7930  -27.3760  -62.3470 C.3   218  HIS218      0.0771
     35  CG         8.9620  -28.2540  -62.0300 C.ar  218  HIS218      0.0820
     36  ND1        9.4640  -28.3870  -60.7540 N.ar  218  HIS218     -0.2267
     37  CD2        9.7290  -29.0400  -62.8220 C.ar  218  HIS218      0.1154
     38  CE1       10.4900  -29.2160  -60.7710 C.ar  218  HIS218      0.1986
     39  NE2       10.6710  -29.6270  -62.0130 N.ar  218  HIS218     -0.2212
     40  N         10.0500  -23.4950  -68.4330 N.3   242  PHE242     -0.1227
     41  CA        10.9760  -23.7280  -67.3350 C.3   242  PHE242      0.1736
     42  C         11.6120  -25.1080  -67.4120 C.2   242  PHE242      0.2595
     43  O         12.7650  -25.2760  -67.0030 O.2   242  PHE242     -0.2718
     44  CB        10.2490  -23.5510  -66.0030 C.3   242  PHE242      0.0547
     45  CG         9.7320  -22.1590  -65.7770 C.ar  242  PHE242     -0.0202
     46  CD1       10.3850  -21.0660  -66.3210 C.ar  242  PHE242     -0.0042
     47  CD2        8.5890  -21.9440  -65.0250 C.ar  242  PHE242     -0.0042
     48  CE1        9.9100  -19.7850  -66.1170 C.ar  242  PHE242     -0.0003
     49  CE2        8.1090  -20.6650  -64.8190 C.ar  242  PHE242     -0.0003
     50  CZ         8.7720  -19.5840  -65.3650 C.ar  242  PHE242     -0.0000
     51  N         10.8850  -26.1000  -67.9210 N.am  243  ILE243     -0.1980
     52  CA        11.4440  -27.4360  -68.1030 C.3   243  ILE243      0.1595
     53  C         12.1530  -27.5540  -69.4470 C.2   243  ILE243      0.2287
     54  O         13.1810  -28.2290  -69.5550 O.2   243  ILE243     -0.2864
     55  CB        10.3400  -28.5050  -67.9430 C.3   243  ILE243      0.0276
     56  CG1        9.9020  -28.6200  -66.4790 C.3   243  ILE243      0.0022
     57  CG2       10.8200  -29.8610  -68.4350 C.3   243  ILE243      0.0022
     58  CD1        8.8210  -27.6430  -66.0620 C.3   243  ILE243      0.0001
     59  N         15.8980  -25.8960  -68.3940 N.3   246  PRO246     -0.2116
     60  CA        16.1760  -26.0790  -66.9600 C.3   246  PRO246      0.1372
     61  C         17.1940  -25.0980  -66.4070 C.2   246  PRO246      0.2244
     62  O         17.2950  -24.9590  -65.1830 O.2   246  PRO246     -0.2868
     63  CB        16.6900  -27.5240  -66.8820 C.3   246  PRO246      0.0268
     64  CG        16.1770  -28.1830  -68.1260 C.3   246  PRO246      0.0207
     65  CD        16.1880  -27.1110  -69.1720 C.3   246  PRO246      0.0892
     66  N         15.4920  -22.2680  -64.5750 N.3   249  MET249     -0.1230
     67  CA        15.1290  -22.6190  -63.2070 C.3   249  MET249      0.1702
     68  C         16.3610  -22.7240  -62.3200 C.2   249  MET249      0.2592
     69  O         16.3150  -22.3470  -61.1440 O.2   249  MET249     -0.2718
     70  CB        14.3460  -23.9300  -63.1870 C.3   249  MET249      0.0401
     71  CG        12.9860  -23.8350  -63.8400 C.3   249  MET249      0.0596
     72  SD        11.9450  -22.5860  -63.0590 S.3   249  MET249     -0.1393
     73  CE        11.7150  -23.3060  -61.4360 C.3   249  MET249      0.0692
     74  N         17.4670  -23.2320  -62.8700 N.am  250  ALA250     -0.1980
     75  CA        18.7050  -23.3240  -62.1050 C.3   250  ALA250      0.1597
     76  C         19.1870  -21.9520  -61.6550 C.2   250  ALA250      0.2287
     77  O         19.8130  -21.8290  -60.5960 O.2   250  ALA250     -0.2864
     78  CB        19.7840  -24.0230  -62.9330 C.3   250  ALA250      0.0319
     79  N         18.7980  -24.3980  -56.9690 N.3   256  PHE256     -0.1241
     80  CA        18.6170  -25.0290  -58.2690 C.3   256  PHE256      0.1605
     81  C         19.8820  -24.9810  -59.1160 C.2   256  PHE256      0.2264
     82  O         19.9810  -25.7170  -60.1040 O.2   256  PHE256     -0.2867
     83  CB        17.4670  -24.3530  -59.0150 C.3   256  PHE256      0.0534
     84  CG        16.2100  -25.1720  -59.0800 C.ar  256  PHE256     -0.0203
     85  CD1       15.3520  -25.2380  -57.9950 C.ar  256  PHE256     -0.0042
     86  CD2       15.8740  -25.8570  -60.2370 C.ar  256  PHE256     -0.0042
     87  CE1       14.1910  -25.9840  -58.0570 C.ar  256  PHE256     -0.0003
     88  CE2       14.7140  -26.6040  -60.3060 C.ar  256  PHE256     -0.0003
     89  CZ        13.8710  -26.6670  -59.2150 C.ar  256  PHE256     -0.0000
     90  N         22.0520  -28.8690  -59.1210 N.3   259  GLY259     -0.1210
     91  CA        21.6800  -30.1350  -59.7190 C.3   259  GLY259      0.1956
     92  C         20.7250  -30.9190  -58.8370 C.2   259  GLY259      0.2611
     93  O         20.1490  -30.4080  -57.8720 O.2   259  GLY259     -0.2717
     94  N         20.5610  -32.1960  -59.1900 N.am  260  LEU260     -0.1979
     95  CA        19.6830  -33.0950  -58.4510 C.3   260  LEU260      0.1596
     96  C         20.4290  -34.0480  -57.5290 C.2   260  LEU260      0.2287
     97  O         19.8260  -34.5650  -56.5820 O.2   260  LEU260     -0.2864
     98  CB        18.8250  -33.9250  -59.4160 C.3   260  LEU260      0.0297
     99  CG        17.9040  -33.1970  -60.3960 C.3   260  LEU260      0.0022
    100  CD1       18.6050  -32.9480  -61.7260 C.3   260  LEU260      0.0001
    101  CD2       16.6220  -33.9900  -60.5930 C.3   260  LEU260      0.0001
    102  N         20.3180  -34.0210  -53.4050 N.3   263  PHE263     -0.1227
    103  CA        19.1500  -34.5850  -52.7340 C.3   263  PHE263      0.1736
    104  C         19.3180  -36.0800  -52.4950 C.2   263  PHE263      0.2595
    105  O         18.9810  -36.5860  -51.4180 O.2   263  PHE263     -0.2718
    106  CB        17.8890  -34.3100  -53.5520 C.3   263  PHE263      0.0547
    107  CG        16.7370  -35.2020  -53.1990 C.ar  263  PHE263     -0.0202
    108  CD1       16.1940  -35.1830  -51.9270 C.ar  263  PHE263     -0.0042
    109  CD2       16.1920  -36.0550  -54.1420 C.ar  263  PHE263     -0.0042
    110  CE1       15.1390  -36.0060  -51.6020 C.ar  263  PHE263     -0.0003
    111  CE2       15.1310  -36.8780  -53.8220 C.ar  263  PHE263     -0.0003
    112  CZ        14.6030  -36.8510  -52.5510 C.ar  263  PHE263     -0.0000
    113  N         19.8390  -36.8040  -53.4880 N.am  264  PHE264     -0.1976
    114  CA        20.0210  -38.2420  -53.3290 C.3   264  PHE264      0.1639
    115  C         21.1840  -38.5620  -52.3990 C.2   264  PHE264      0.2290
    116  O         21.1880  -39.6190  -51.7590 O.2   264  PHE264     -0.2864
    117  CB        20.2340  -38.8980  -54.6930 C.3   264  PHE264      0.0560
    118  CG        19.2670  -38.4350  -55.7450 C.ar  264  PHE264     -0.0200
    119  CD1       17.9220  -38.7470  -55.6560 C.ar  264  PHE264     -0.0042
    120  CD2       19.7050  -37.6930  -56.8280 C.ar  264  PHE264     -0.0042
    121  CE1       17.0290  -38.3240  -56.6220 C.ar  264  PHE264     -0.0003
    122  CE2       18.8180  -37.2680  -57.7990 C.ar  264  PHE264     -0.0003
    123  CZ        17.4780  -37.5840  -57.6950 C.ar  264  PHE264     -0.0000
    124  N         19.1230  -27.1870  -50.4680 N.3   271  TYR271     -0.1241
    125  CA        17.9110  -26.7530  -51.1550 C.3   271  TYR271      0.1605
    126  C         17.1430  -25.7160  -50.3430 C.2   271  TYR271      0.2264
    127  O         15.9250  -25.5820  -50.4930 O.2   271  TYR271     -0.2867
    128  CB        17.0080  -27.9500  -51.4630 C.3   271  TYR271      0.0534
    129  CG        17.6420  -28.9770  -52.3710 C.ar  271  TYR271     -0.0201
    130  CD1       17.6440  -28.8080  -53.7500 C.ar  271  TYR271     -0.0009
    131  CD2       18.2380  -30.1170  -51.8500 C.ar  271  TYR271     -0.0009
    132  CE1       18.2230  -29.7450  -54.5830 C.ar  271  TYR271      0.0417
    133  CE2       18.8190  -31.0580  -52.6750 C.ar  271  TYR271      0.0417
    134  CZ        18.8090  -30.8680  -54.0400 C.ar  271  TYR271      0.1957
    135  OH        19.3850  -31.8030  -54.8670 O.3   271  TYR271     -0.2866
    136  N         14.7590  -22.5390  -52.0060 N.3   274  PHE274     -0.1227
    137  CA        13.3390  -22.5630  -52.3530 C.3   274  PHE274      0.1736
    138  C         12.4930  -23.4350  -51.4370 C.2   274  PHE274      0.2595
    139  O         11.2800  -23.2130  -51.3650 O.2   274  PHE274     -0.2718
    140  CB        13.1350  -23.0130  -53.8080 C.3   274  PHE274      0.0547
    141  CG        13.3360  -24.4850  -54.0370 C.ar  274  PHE274     -0.0202
    142  CD1       12.2500  -25.3360  -54.1590 C.ar  274  PHE274     -0.0042
    143  CD2       14.6080  -25.0150  -54.1570 C.ar  274  PHE274     -0.0042
    144  CE1       12.4320  -26.6880  -54.3820 C.ar  274  PHE274     -0.0003
    145  CE2       14.7970  -26.3660  -54.3780 C.ar  274  PHE274     -0.0003
    146  CZ        13.7070  -27.2030  -54.4900 C.ar  274  PHE274     -0.0000
    147  N         13.0700  -24.4100  -50.7320 N.am  275  LEU275     -0.1980
    148  CA        12.3580  -25.1460  -49.6870 C.3   275  LEU275      0.1596
    149  C         12.6250  -24.4400  -48.3610 C.2   275  LEU275      0.2287
    150  O         13.4120  -24.8850  -47.5230 O.2   275  LEU275     -0.2864
    151  CB        12.7970  -26.6050  -49.6550 C.3   275  LEU275      0.0297
    152  CG        12.5300  -27.4450  -50.9040 C.3   275  LEU275      0.0022
    153  CD1       13.0360  -28.8660  -50.7110 C.3   275  LEU275      0.0001
    154  CD2       11.0500  -27.4440  -51.2420 C.3   275  LEU275      0.0001
    155  N          5.8730  -31.3950  -49.8460 N.3   298  LEU298     -0.1245
    156  CA         6.8770  -32.4490  -49.9680 C.3   298  LEU298      0.1561
    157  C          6.9980  -33.2420  -48.6720 C.2   298  LEU298      0.2260
    158  O          7.0660  -34.4810  -48.6910 O.2   298  LEU298     -0.2867
    159  CB         8.2200  -31.8360  -50.3610 C.3   298  LEU298      0.0270
    160  CG         9.4110  -32.7730  -50.5520 C.3   298  LEU298      0.0019
    161  CD1        9.0740  -33.8920  -51.5230 C.3   298  LEU298      0.0001
    162  CD2       10.6160  -31.9870  -51.0420 C.3   298  LEU298      0.0001
@<TRIPOS>BOND
     1    54    53    2
     2    53    52    1
     3    65    59    1
     4    65    64    1
     5    57    55    1
     6    40    41    1
     7    59    60    1
     8    64    63    1
     9    52    55    1
    10    52    51    1
    11    55    56    1
    12    51    42   am
    13    42    41    1
    14    42    43    2
    15    41    44    1
    16    60    63    1
    17    60    61    1
    18    56    58    1
    19    61    62    2
    20    46    48   ar
    21    46    45   ar
    22    48    50   ar
    23    44    45    1
    24    45    47   ar
    25    50    49   ar
    26    47    49   ar
    27    66    67    1
    28    71    70    1
    29    71    72    1
    30    33    32    2
    31    67    70    1
    32    67    68    1
    33    72    73    1
    34    78    75    1
    35    74    68   am
    36    74    75    1
    37    37    35   ar
    38    37    39   ar
    39    34    35    1
    40    34    31    1
    41    68    69    2
    42    32    31    1
    43    75    76    1
    44    35    36   ar
    45    39    38   ar
    46   100    99    1
    47    76    77    2
    48    31    30    1
    49    38    36   ar
    50   101    99    1
    51    99    98    1
    52    88    86   ar
    53    88    89   ar
    54    86    84   ar
    55    30    24   am
    56    82    81    2
    57    91    90    1
    58    91    92    1
    59    25    24    2
    60    21    20    2
    61    98    95    1
    62    24    23    1
    63    89    87   ar
    64    94    92   am
    65    94    95    1
    66    81    80    1
    67    84    83    1
    68    84    85   ar
    69    83    80    1
    70    20    19    1
    71    92    93    2
    72    95    96    1
    73    12    11    2
    74    80    79    1
    75    87    85   ar
    76    19    18    1
    77    23    22    1
    78    23    26    1
    79   122   123   ar
    80   122   120   ar
    81   123   121   ar
    82    28    26    1
    83    96    97    2
    84    10    11    1
    85    10     9    1
    86    26    27    1
    87   120   118   ar
    88    18    15   am
    89   121   119   ar
    90    16    15    2
    91     9     3   am
    92    15    14    1
    93    27    29    1
    94   118   119   ar
    95   118   117    1
    96     4     3    2
    97     3     2    1
    98    13    14    1
    99   135   134    1
   100    14    17    1
   101   117   114    1
   102   132   134   ar
   103   132   130   ar
   104   146   144   ar
   105   146   145   ar
   106   144   142   ar
   107   145   143   ar
   108     7     6    1
   109     8     6    1
   110   142   141   ar
   111   143   141   ar
   112   109   111   ar
   113   109   107   ar
   114     5     2    1
   115     5     6    1
   116   134   133   ar
   117   141   140    1
   118     2     1    1
   119   111   112   ar
   120   140   137    1
   121   130   129   ar
   122   106   107    1
   123   106   103    1
   124   113   114    1
   125   113   104   am
   126   102   103    1
   127   114   115    1
   128   107   108   ar
   129   103   104    1
   130   133   131   ar
   131   112   110   ar
   132   104   105    2
   133   115   116    2
   134   129   131   ar
   135   129   128    1
   136   137   136    1
   137   137   138    1
   138   108   110   ar
   139   161   160    1
   140   128   125    1
   141   138   139    2
   142   138   147   am
   143   154   152    1
   144   125   124    1
   145   125   126    1
   146   162   160    1
   147   152   153    1
   148   152   151    1
   149   147   148    1
   150   160   159    1
   151   127   126    2
   152   159   156    1
   153   156   155    1
   154   156   157    1
   155   148   151    1
   156   148   149    1
   157   158   157    2
   158   149   150    2
