@<TRIPOS>MOLECULE
tmp/6hqbA03.pdb
 153 150 0 0 0
SMALL
GASTEIGER

@<TRIPOS>ATOM
      1  N        -14.1330  -23.2920  -63.8670 N.3    91  TYR91      -0.1241
      2  CA       -13.0070  -22.9590  -64.7350 C.3    91  TYR91       0.1605
      3  C        -13.4770  -22.2920  -66.0250 C.2    91  TYR91       0.2264
      4  O        -12.8490  -21.3370  -66.4980 O.2    91  TYR91      -0.2867
      5  CB       -12.1730  -24.2030  -65.0270 C.3    91  TYR91       0.0534
      6  CG       -11.2560  -24.5630  -63.8830 C.ar   91  TYR91      -0.0201
      7  CD1      -10.1560  -23.7730  -63.5790 C.ar   91  TYR91      -0.0009
      8  CD2      -11.4940  -25.6820  -63.0990 C.ar   91  TYR91      -0.0009
      9  CE1       -9.3150  -24.0910  -62.5300 C.ar   91  TYR91       0.0417
     10  CE2      -10.6570  -26.0100  -62.0470 C.ar   91  TYR91       0.0417
     11  CZ        -9.5690  -25.2110  -61.7680 C.ar   91  TYR91       0.1957
     12  OH        -8.7320  -25.5310  -60.7230 O.3    91  TYR91      -0.2866
     13  N         -1.9140  -20.8250  -58.2690 N.3   150  SER150     -0.1202
     14  CA        -1.6550  -22.0140  -59.0710 C.3   150  SER150      0.2020
     15  C         -0.8800  -21.7210  -60.3500 C.2   150  SER150      0.2619
     16  O         -0.4110  -22.6630  -60.9970 O.2   150  SER150     -0.2717
     17  CB        -2.9740  -22.7120  -59.4250 C.3   150  SER150      0.2103
     18  OG        -3.6260  -23.1880  -58.2600 O.3   150  SER150     -0.2182
     19  N         -0.7350  -20.4550  -60.7280 N.am  151  GLY151     -0.1942
     20  CA         0.0220  -20.0880  -61.9050 C.3   151  GLY151      0.2014
     21  C         -0.7900  -19.7580  -63.1380 C.2   151  GLY151      0.2638
     22  O         -0.2030  -19.5970  -64.2140 O.2   151  GLY151     -0.2714
     23  N         -2.1120  -19.6540  -63.0220 N.am  152  PHE152     -0.1973
     24  CA        -2.9380  -19.3170  -64.1740 C.3   152  PHE152      0.1639
     25  C         -2.7200  -17.8640  -64.5730 C.2   152  PHE152      0.2290
     26  O         -2.7570  -16.9630  -63.7290 O.2   152  PHE152     -0.2864
     27  CB        -4.4140  -19.5670  -63.8670 C.3   152  PHE152      0.0560
     28  CG        -4.7920  -21.0190  -63.8460 C.ar  152  PHE152     -0.0200
     29  CD1       -5.0550  -21.6940  -65.0250 C.ar  152  PHE152     -0.0042
     30  CD2       -4.8880  -21.7080  -62.6490 C.ar  152  PHE152     -0.0042
     31  CE1       -5.4040  -23.0280  -65.0130 C.ar  152  PHE152     -0.0003
     32  CE2       -5.2360  -23.0440  -62.6300 C.ar  152  PHE152     -0.0003
     33  CZ        -5.4950  -23.7050  -63.8140 C.ar  152  PHE152     -0.0000
     34  N         -5.7620  -21.2200  -70.4630 N.3   157  GLN157     -0.1245
     35  CA        -5.4150  -22.1640  -69.4060 C.3   157  GLN157      0.1566
     36  C         -6.6570  -22.6150  -68.6460 C.2   157  GLN157      0.2260
     37  O         -6.8680  -23.8150  -68.4290 O.2   157  GLN157     -0.2867
     38  CB        -4.3980  -21.5260  -68.4600 C.3   157  GLN157      0.0367
     39  CG        -3.1060  -21.1020  -69.1390 C.3   157  GLN157      0.0905
     40  CD        -2.2610  -20.1930  -68.2690 C.2   157  GLN157      0.2608
     41  OE1       -2.7840  -19.4570  -67.4320 O.2   157  GLN157     -0.2717
     42  NE2       -0.9480  -20.2400  -68.4610 N.am  157  GLN157     -0.0878
     43  N         -8.7700  -24.9010  -70.9180 N.3   160  CYS160     -0.1221
     44  CA        -8.2850  -26.2760  -70.9470 C.3   160  CYS160      0.1808
     45  C         -8.5170  -26.9810  -69.6170 C.2   160  CYS160      0.2601
     46  O         -8.7520  -28.1940  -69.5950 O.2   160  CYS160     -0.2717
     47  CB        -6.8050  -26.3080  -71.3200 C.3   160  CYS160      0.0970
     48  SG        -6.4890  -25.9310  -73.0540 S.3   160  CYS160     -0.0800
     49  N         -8.4660  -26.2430  -68.5050 N.am  161  THR161     -0.1953
     50  CA        -8.7920  -26.8450  -67.2160 C.3   161  THR161      0.1897
     51  C        -10.2430  -27.3090  -67.1820 C.2   161  THR161      0.2313
     52  O        -10.5430  -28.4030  -66.6910 O.2   161  THR161     -0.2863
     53  CB        -8.5250  -25.8540  -66.0850 C.3   161  THR161      0.1794
     54  OG1       -7.3160  -25.1350  -66.3530 O.3   161  THR161     -0.2208
     55  CG2       -8.3840  -26.5960  -64.7670 C.3   161  THR161      0.0378
     56  N        -12.0220  -28.1230  -69.8050 N.3   163  ILE163     -0.1231
     57  CA       -12.1220  -29.2580  -70.7230 C.3   163  ILE163      0.1692
     58  C        -11.6600  -30.5380  -70.0330 C.2   163  ILE163      0.2592
     59  O        -12.3040  -31.5910  -70.1310 O.2   163  ILE163     -0.2718
     60  CB       -11.3170  -28.9880  -72.0070 C.3   163  ILE163      0.0266
     61  CG1      -11.9060  -27.7980  -72.7670 C.3   163  ILE163      0.0019
     62  CG2      -11.2930  -30.2220  -72.8940 C.3   163  ILE163      0.0020
     63  CD1      -13.3280  -28.0140  -73.2340 C.3   163  ILE163      0.0001
     64  N        -10.5340  -30.4630  -69.3180 N.am  164  GLY164     -0.1957
     65  CA       -10.0560  -31.6230  -68.5820 C.3   164  GLY164      0.1869
     66  C        -11.0080  -32.0440  -67.4800 C.2   164  GLY164      0.2309
     67  O        -11.1750  -33.2370  -67.2120 O.2   164  GLY164     -0.2863
     68  N          1.3970  -39.3430  -52.7990 N.3   207  LEU207     -0.1231
     69  CA         1.7750  -38.9670  -54.1550 C.3   207  LEU207      0.1693
     70  C          1.0290  -37.7260  -54.6240 C.2   207  LEU207      0.2592
     71  O          1.5340  -36.9900  -55.4750 O.2   207  LEU207     -0.2718
     72  CB         1.5260  -40.1320  -55.1120 C.3   207  LEU207      0.0284
     73  CG         2.3080  -41.4110  -54.8150 C.3   207  LEU207      0.0019
     74  CD1        1.9570  -42.4960  -55.8180 C.3   207  LEU207      0.0001
     75  CD2        3.8010  -41.1330  -54.8210 C.3   207  LEU207      0.0001
     76  N         -0.1560  -37.4650  -54.0750 N.am  208  GLY208     -0.1957
     77  CA        -0.8910  -36.2620  -54.4160 C.3   208  GLY208      0.1869
     78  C         -0.1480  -34.9940  -54.0450 C.2   208  GLY208      0.2309
     79  O          0.1140  -34.1410  -54.9030 O.2   208  GLY208     -0.2863
     80  N          3.1160  -34.7020  -56.1320 N.3   211  GLY211     -0.1210
     81  CA         2.9520  -34.1340  -57.4560 C.3   211  GLY211      0.1956
     82  C          2.5610  -32.6720  -57.4300 C.2   211  GLY211      0.2611
     83  O          2.9820  -31.9000  -58.2940 O.2   211  GLY211     -0.2717
     84  N          1.7670  -32.2620  -56.4380 N.am  212  TRP212     -0.1976
     85  CA         1.3990  -30.8520  -56.3670 C.3   212  TRP212      0.1640
     86  C          2.5850  -29.9890  -55.9520 C.2   212  TRP212      0.2290
     87  O          2.7290  -28.8580  -56.4280 O.2   212  TRP212     -0.2864
     88  CB         0.2310  -30.6410  -55.4110 C.3   212  TRP212      0.0576
     89  CG        -0.1690  -29.2020  -55.3350 C.ar  212  TRP212      0.0006
     90  CD1        0.0480  -28.3450  -54.2990 C.ar  212  TRP212      0.0946
     91  CD2       -0.8300  -28.4420  -56.3540 C.ar  212  TRP212      0.0152
     92  NE1       -0.4520  -27.1020  -54.6000 N.ar  212  TRP212     -0.2442
     93  CE2       -0.9970  -27.1350  -55.8570 C.ar  212  TRP212      0.0810
     94  CE3       -1.3070  -28.7420  -57.6340 C.ar  212  TRP212      0.0012
     95  CZ2       -1.6170  -26.1280  -56.5950 C.ar  212  TRP212      0.0191
     96  CZ3       -1.9240  -27.7420  -58.3650 C.ar  212  TRP212      0.0001
     97  CH2       -2.0740  -26.4510  -57.8430 C.ar  212  TRP212      0.0015
     98  N          5.6620  -30.7560  -56.7340 N.3   214  GLY214     -0.1210
     99  CA         6.4040  -30.6840  -57.9830 C.3   214  GLY214      0.1956
    100  C          5.8480  -29.6310  -58.9220 C.2   214  GLY214      0.2611
    101  O          6.5990  -28.8570  -59.5230 O.2   214  GLY214     -0.2717
    102  N          4.5210  -29.5850  -59.0530 N.am  215  HIS215     -0.1975
    103  CA         3.8690  -28.5370  -59.8310 C.3   215  HIS215      0.1656
    104  C          4.2750  -27.1540  -59.3430 C.2   215  HIS215      0.2291
    105  O          4.6970  -26.3020  -60.1310 O.2   215  HIS215     -0.2864
    106  CB         2.3510  -28.7010  -59.7530 C.3   215  HIS215      0.0771
    107  CG         1.5890  -27.4970  -60.2120 C.ar  215  HIS215      0.0820
    108  ND1        0.9750  -26.6270  -59.3380 N.ar  215  HIS215     -0.2267
    109  CD2        1.3450  -27.0170  -61.4530 C.ar  215  HIS215      0.1154
    110  CE1        0.3840  -25.6640  -60.0220 C.ar  215  HIS215      0.1986
    111  NE2        0.5920  -25.8780  -61.3080 N.ar  215  HIS215     -0.2212
    112  N          7.6620  -26.2050  -60.1970 N.3   218  HIS218     -0.1226
    113  CA         7.8290  -26.0180  -61.6300 C.3   218  HIS218      0.1752
    114  C          6.8010  -25.0880  -62.2600 C.2   218  HIS218      0.2595
    115  O          6.9170  -24.7970  -63.4550 O.2   218  HIS218     -0.2718
    116  CB         7.7930  -27.3760  -62.3470 C.3   218  HIS218      0.0759
    117  CG         8.9620  -28.2540  -62.0300 C.ar  218  HIS218      0.0818
    118  ND1        9.4640  -28.3870  -60.7540 N.ar  218  HIS218     -0.2268
    119  CD2        9.7290  -29.0400  -62.8220 C.ar  218  HIS218      0.1154
    120  CE1       10.4900  -29.2160  -60.7710 C.ar  218  HIS218      0.1986
    121  NE2       10.6710  -29.6270  -62.0130 N.ar  218  HIS218     -0.2212
    122  N          5.8050  -24.6200  -61.5060 N.am  219  VAL219     -0.1980
    123  CA         4.7880  -23.7280  -62.0580 C.3   219  VAL219      0.1595
    124  C          4.5020  -22.5800  -61.0980 C.2   219  VAL219      0.2287
    125  O          4.6790  -21.4070  -61.4460 O.2   219  VAL219     -0.2864
    126  CB         3.4850  -24.4850  -62.3820 C.3   219  VAL219      0.0276
    127  CG1        2.4250  -23.5210  -62.8910 C.3   219  VAL219      0.0022
    128  CG2        3.7350  -25.5950  -63.3940 C.3   219  VAL219      0.0022
    129  N          4.8930  -22.0120  -67.8510 N.3   239  PRO239     -0.2102
    130  CA         5.4410  -23.0430  -66.9530 C.3   239  PRO239      0.1504
    131  C          6.3010  -24.0820  -67.6540 C.2   239  PRO239      0.2575
    132  O          7.2640  -24.5750  -67.0530 O.2   239  PRO239     -0.2718
    133  CB         4.1830  -23.6730  -66.3400 C.3   239  PRO239      0.0282
    134  CG         3.1320  -22.6250  -66.4640 C.3   239  PRO239      0.0208
    135  CD         3.4260  -21.9200  -67.7510 C.3   239  PRO239      0.0893
    136  N          5.9900  -24.4360  -68.9030 N.am  240  HIS240     -0.1976
    137  CA         6.7750  -25.4460  -69.6030 C.3   240  HIS240      0.1656
    138  C          8.0650  -24.8900  -70.1920 C.2   240  HIS240      0.2291
    139  O          8.9790  -25.6680  -70.4920 O.2   240  HIS240     -0.2864
    140  CB         5.9360  -26.1040  -70.7010 C.3   240  HIS240      0.0771
    141  CG         5.2110  -25.1320  -71.5780 C.ar  240  HIS240      0.0820
    142  ND1        5.7990  -24.5320  -72.6700 N.ar  240  HIS240     -0.2267
    143  CD2        3.9430  -24.6590  -71.5260 C.ar  240  HIS240      0.1154
    144  CE1        4.9260  -23.7300  -73.2520 C.ar  240  HIS240      0.1986
    145  NE2        3.7920  -23.7890  -72.5770 N.ar  240  HIS240     -0.2212
    146  N         10.8850  -26.1000  -67.9210 N.3   243  ILE243     -0.1245
    147  CA        11.4440  -27.4360  -68.1030 C.3   243  ILE243      0.1561
    148  C         12.1530  -27.5540  -69.4470 C.2   243  ILE243      0.2260
    149  O         13.1810  -28.2290  -69.5550 O.2   243  ILE243     -0.2867
    150  CB        10.3400  -28.5050  -67.9430 C.3   243  ILE243      0.0252
    151  CG1        9.9020  -28.6200  -66.4790 C.3   243  ILE243      0.0019
    152  CG2       10.8200  -29.8610  -68.4350 C.3   243  ILE243      0.0019
    153  CD1        8.8210  -27.6430  -66.0620 C.3   243  ILE243      0.0001
@<TRIPOS>BOND
     1   144   142   ar
     2   144   145   ar
     3    63    61    1
     4    48    47    1
     5    62    60    1
     6    61    60    1
     7   142   141   ar
     8   145   143   ar
     9    60    57    1
    10   141   143   ar
    11   141   140    1
    12    47    44    1
    13    44    43    1
    14    44    45    1
    15    57    58    1
    16    57    56    1
    17   140   137    1
    18   139   138    2
    19    34    35    1
    20   138   137    1
    21    59    58    2
    22    58    64   am
    23    45    46    2
    24    45    49   am
    25   137   136    1
    26   149   148    2
    27   148   147    1
    28    35    36    1
    29    35    38    1
    30    64    65    1
    31    39    38    1
    32    39    40    1
    33   136   131   am
    34    36    37    2
    35    65    66    1
    36    49    50    1
    37    42    40   am
    38   152   150    1
    39    40    41    2
    40   147   150    1
    41   147   146    1
    42   150   151    1
    43   129   135    1
    44   129   130    1
    45   135   134    1
    46   131   132    2
    47   131   130    1
    48    66    67    2
    49    50    51    1
    50    50    53    1
    51    51    52    2
    52   130   133    1
    53     4     3    2
    54   151   153    1
    55   134   133    1
    56    54    53    1
    57    53    55    1
    58     3     2    1
    59     5     2    1
    60     5     6    1
    61    29    31   ar
    62    29    28   ar
    63    31    33   ar
    64     2     1    1
    65    25    24    1
    66    25    26    2
    67    22    21    2
    68    24    27    1
    69    24    23    1
    70     6     7   ar
    71     6     8   ar
    72    27    28    1
    73    28    30   ar
    74    33    32   ar
    75     7     9   ar
    76   115   114    2
    77   128   126    1
    78    21    23   am
    79    21    20    1
    80     8    10   ar
    81   127   126    1
    82   119   117   ar
    83   119   121   ar
    84    30    32   ar
    85     9    11   ar
    86   126   123    1
    87   116   117    1
    88   116   113    1
    89   114   113    1
    90   114   122   am
    91   123   122    1
    92   123   124    1
    93    10    11   ar
    94   117   118   ar
    95   121   120   ar
    96    20    19    1
    97    11    12    1
    98   113   112    1
    99   109   111   ar
   100   109   107   ar
   101   125   124    2
   102   111   110   ar
   103    16    15    2
   104   120   118   ar
   105    19    15   am
   106    15    14    1
   107   107   106    1
   108   107   108   ar
   109   105   104    2
   110   110   108   ar
   111   103   106    1
   112   103   104    1
   113   103   102    1
   114   101   100    2
   115    17    14    1
   116    17    18    1
   117    14    13    1
   118   102   100   am
   119   100    99    1
   120    96    97   ar
   121    96    94   ar
   122    83    82    2
   123    99    98    1
   124    97    95   ar
   125    94    91   ar
   126    81    82    1
   127    81    80    1
   128    82    84   am
   129    95    93   ar
   130    84    85    1
   131    87    86    2
   132    85    86    1
   133    85    88    1
   134    91    93   ar
   135    91    89   ar
   136    93    92   ar
   137    74    73    1
   138    71    70    2
   139    88    89    1
   140    89    90   ar
   141    72    73    1
   142    72    69    1
   143    79    78    2
   144    75    73    1
   145    70    69    1
   146    70    76   am
   147    92    90   ar
   148    77    76    1
   149    77    78    1
   150    69    68    1
