@<TRIPOS>MOLECULE
tmp/6hqbF09.pdb
 110 107 0 0 0
SMALL
GASTEIGER

@<TRIPOS>ATOM
      1  N        -59.4170    0.1310  -60.7130 N.3    55  VAL55      -0.1231
      2  CA       -60.0460   -1.1450  -61.0210 C.3    55  VAL55       0.1692
      3  C        -61.5070   -1.1740  -60.5750 C.2    55  VAL55       0.2592
      4  O        -62.0800   -2.2440  -60.3980 O.2    55  VAL55      -0.2718
      5  CB       -59.2550   -2.3120  -60.3970 C.3    55  VAL55       0.0266
      6  CG1      -57.8280   -2.3270  -60.9170 C.3    55  VAL55       0.0020
      7  CG2      -59.2660   -2.2050  -58.8790 C.3    55  VAL55       0.0020
      8  N        -62.1260   -0.0050  -60.3960 N.am   56  ASP56      -0.1960
      9  CA       -63.5080    0.0320  -59.9320 C.3    56  ASP56       0.1840
     10  C        -64.4990   -0.4670  -60.9740 C.2    56  ASP56       0.2622
     11  O        -65.6800   -0.6270  -60.6500 O.2    56  ASP56      -0.2715
     12  CB       -63.8920    1.4490  -59.5000 C.3    56  ASP56       0.1450
     13  CG       -63.6950    2.4750  -60.6030 C.2    56  ASP56       0.3671
     14  OD1      -63.4130    2.0840  -61.7540 O.co2  56  ASP56      -0.2456
     15  OD2      -63.8170    3.6830  -60.3110 O.co2  56  ASP56      -0.2456
     16  N        -64.0550   -0.7040  -62.2050 N.am   57  GLY57      -0.1954
     17  CA       -64.9090   -1.1960  -63.2670 C.3    57  GLY57       0.1869
     18  C        -65.0950   -0.2360  -64.4170 C.2    57  GLY57       0.2309
     19  O        -65.6950   -0.6210  -65.4300 O.2    57  GLY57      -0.2863
     20  N        -57.0890   -3.4250  -65.8190 N.3    65  PHE65      -0.1227
     21  CA       -57.4830   -4.6500  -65.1320 C.3    65  PHE65       0.1736
     22  C        -58.3200   -5.5800  -66.0030 C.2    65  PHE65       0.2595
     23  O        -58.2140   -6.8040  -65.8790 O.2    65  PHE65      -0.2718
     24  CB       -58.2540   -4.3120  -63.8550 C.3    65  PHE65       0.0547
     25  CG       -58.7080   -5.5200  -63.0860 C.ar   65  PHE65      -0.0202
     26  CD1      -57.7910   -6.3290  -62.4300 C.ar   65  PHE65      -0.0042
     27  CD2      -60.0510   -5.8470  -63.0150 C.ar   65  PHE65      -0.0042
     28  CE1      -58.2040   -7.4450  -61.7210 C.ar   65  PHE65      -0.0003
     29  CE2      -60.4710   -6.9590  -62.3070 C.ar   65  PHE65      -0.0003
     30  CZ       -59.5440   -7.7590  -61.6580 C.ar   65  PHE65      -0.0000
     31  N        -59.1510   -5.0170  -66.8820 N.am   66  LEU66      -0.1980
     32  CA       -60.1040   -5.8340  -67.6310 C.3    66  LEU66       0.1596
     33  C        -59.3920   -6.7800  -68.5950 C.2    66  LEU66       0.2287
     34  O        -59.6930   -7.9790  -68.6400 O.2    66  LEU66      -0.2864
     35  CB       -61.0840   -4.9280  -68.3790 C.3    66  LEU66       0.0297
     36  CG       -62.5580   -5.3340  -68.4460 C.3    66  LEU66       0.0022
     37  CD1      -63.3860   -4.2180  -69.0700 C.3    66  LEU66       0.0001
     38  CD2      -62.7400   -6.6330  -69.2150 C.3    66  LEU66       0.0001
     39  N        -56.4160  -19.7450  -67.7880 N.3    76  ALA76      -0.1231
     40  CA       -56.6060  -20.5690  -66.6000 C.3    76  ALA76       0.1694
     41  C        -57.7440  -21.5630  -66.7890 C.2    76  ALA76       0.2592
     42  O        -57.6410  -22.7190  -66.3610 O.2    76  ALA76      -0.2718
     43  CB       -56.8660  -19.6830  -65.3830 C.3    76  ALA76       0.0304
     44  N        -58.8440  -21.1320  -67.4120 N.am   77  GLY77      -0.1957
     45  CA       -59.8910  -22.0710  -67.7640 C.3    77  GLY77       0.1869
     46  C        -59.4070  -23.1190  -68.7440 C.2    77  GLY77       0.2309
     47  O        -59.7700  -24.2890  -68.6410 O.2    77  GLY77      -0.2863
     48  N        -57.3210  -25.6100  -66.5590 N.3    80  GLY80      -0.1210
     49  CA       -58.1430  -26.4390  -65.6940 C.3    80  GLY80       0.1956
     50  C        -59.0410  -27.3830  -66.4690 C.2    80  GLY80       0.2611
     51  O        -59.2660  -28.5230  -66.0560 O.2    80  GLY80      -0.2717
     52  N        -59.5390  -26.9400  -67.6260 N.am   81  TRP81      -0.1976
     53  CA       -60.4500  -27.7730  -68.3960 C.3    81  TRP81       0.1640
     54  C        -59.7180  -28.9300  -69.0560 C.2    81  TRP81       0.2290
     55  O        -60.2070  -30.0660  -69.0350 O.2    81  TRP81      -0.2864
     56  CB       -61.1780  -26.9320  -69.4410 C.3    81  TRP81       0.0576
     57  CG       -62.3610  -27.6380  -70.0220 C.ar   81  TRP81       0.0006
     58  CD1      -62.4940  -28.1170  -71.2950 C.ar   81  TRP81       0.0946
     59  CD2      -63.5750  -27.9670  -69.3410 C.ar   81  TRP81       0.0152
     60  NE1      -63.7230  -28.7130  -71.4490 N.ar   81  TRP81      -0.2442
     61  CE2      -64.4050  -28.6350  -70.2630 C.ar   81  TRP81       0.0810
     62  CE3      -64.0440  -27.7580  -68.0410 C.ar   81  TRP81       0.0012
     63  CZ2      -65.6750  -29.0940  -69.9250 C.ar   81  TRP81       0.0191
     64  CZ3      -65.3020  -28.2130  -67.7080 C.ar   81  TRP81       0.0001
     65  CH2      -66.1030  -28.8740  -68.6450 C.ar   81  TRP81       0.0015
     66  N        -58.9350  -31.3870  -66.2450 N.3    84  ARG84      -0.1245
     67  CA       -60.1010  -32.1570  -65.8180 C.3    84  ARG84       0.1563
     68  C        -60.4880  -33.2080  -66.8530 C.2    84  ARG84       0.2260
     69  O        -60.7810  -34.3590  -66.5020 O.2    84  ARG84      -0.2867
     70  CB       -61.2700  -31.2100  -65.5510 C.3    84  ARG84       0.0307
     71  CG       -62.5580  -31.8890  -65.1350 C.3    84  ARG84       0.0489
     72  CD       -63.6540  -30.8560  -64.9330 C.3    84  ARG84       0.2205
     73  NE       -64.8950  -31.4590  -64.4650 N.pl3  84  ARG84      -0.0865
     74  CZ       -65.8180  -31.9790  -65.2660 C.cat  84  ARG84       0.5346
     75  NH1      -65.6370  -31.9700  -66.5800 N.pl3  84  ARG84       0.1354
     76  NH2      -66.9190  -32.5100  -64.7550 N.pl3  84  ARG84       0.1354
     77  N        -63.0790  -24.4440  -74.4540 N.3   118  TRP118     -0.1241
     78  CA       -63.4820  -24.9520  -73.1480 C.3   118  TRP118      0.1605
     79  C        -64.7710  -24.3250  -72.6080 C.2   118  TRP118      0.2264
     80  O        -65.4990  -25.0110  -71.8790 O.2   118  TRP118     -0.2867
     81  CB       -62.3420  -24.7930  -72.1330 C.3   118  TRP118      0.0550
     82  CG       -61.9600  -23.3880  -71.7840 C.ar  118  TRP118      0.0003
     83  CD1      -61.0300  -22.6110  -72.4100 C.ar  118  TRP118      0.0946
     84  CD2      -62.4830  -22.5990  -70.7080 C.ar  118  TRP118      0.0152
     85  NE1      -60.9490  -21.3840  -71.7980 N.ar  118  TRP118     -0.2442
     86  CE2      -61.8310  -21.3500  -70.7510 C.ar  118  TRP118      0.0810
     87  CE3      -63.4450  -22.8240  -69.7180 C.ar  118  TRP118      0.0012
     88  CZ2      -62.1090  -20.3310  -69.8420 C.ar  118  TRP118      0.0191
     89  CZ3      -63.7190  -21.8110  -68.8170 C.ar  118  TRP118      0.0001
     90  CH2      -63.0530  -20.5810  -68.8850 C.ar  118  TRP118      0.0015
     91  N        -67.8010  -26.7350  -71.5680 N.3   122  ALA122     -0.1245
     92  CA       -68.2910  -26.6870  -70.1960 C.3   122  ALA122      0.1562
     93  C        -69.7950  -26.4480  -70.1520 C.2   122  ALA122      0.2260
     94  O        -70.5010  -27.0550  -69.3390 O.2   122  ALA122     -0.2867
     95  CB       -67.5480  -25.6080  -69.4120 C.3   122  ALA122      0.0290
     96  N        -70.8400  -31.5840  -65.8600 N.3   131  LEU131     -0.1231
     97  CA       -69.9060  -30.7070  -65.1610 C.3   131  LEU131      0.1693
     98  C        -69.9280  -30.9500  -63.6550 C.2   131  LEU131      0.2591
     99  O        -68.8760  -31.1310  -63.0310 O.2   131  LEU131     -0.2718
    100  CB       -70.2290  -29.2470  -65.4800 C.3   131  LEU131      0.0284
    101  CG       -69.3020  -28.1950  -64.8730 C.3   131  LEU131      0.0019
    102  CD1      -67.8610  -28.4540  -65.2810 C.3   131  LEU131      0.0001
    103  CD2      -69.7410  -26.8010  -65.2910 C.3   131  LEU131      0.0001
    104  N        -71.1110  -30.9570  -63.0550 N.am  132  VAL132     -0.1980
    105  CA       -71.2470  -31.0620  -61.6160 C.3   132  VAL132      0.1595
    106  C        -71.7010  -32.4710  -61.2540 C.2   132  VAL132      0.2287
    107  O        -71.9980  -33.2940  -62.1160 O.2   132  VAL132     -0.2864
    108  CB       -72.2200  -29.9960  -61.0550 C.3   132  VAL132      0.0276
    109  CG1      -71.8040  -29.5710  -59.6490 C.3   132  VAL132      0.0022
    110  CG2      -72.2890  -28.7990  -61.9900 C.3   132  VAL132      0.0022
@<TRIPOS>BOND
     1    77    78    1
     2    78    79    1
     3    78    81    1
     4    79    80    2
     5    83    85   ar
     6    83    82   ar
     7    81    82    1
     8    85    86   ar
     9    82    84   ar
    10    91    92    1
    11    60    58   ar
    12    60    61   ar
    13    58    57   ar
    14    86    84   ar
    15    86    88   ar
    16    84    87   ar
    17    61    63   ar
    18    61    59   ar
    19    92    93    1
    20    92    95    1
    21    93    94    2
    22    57    56    1
    23    57    59   ar
    24    63    65   ar
    25    88    90   ar
    26    87    89   ar
    27    56    53    1
    28    59    62   ar
    29    38    36    1
    30    37    36    1
    31    54    55    2
    32    54    53    1
    33    90    89   ar
    34    46    47    2
    35    46    45    1
    36    65    64   ar
    37    34    33    2
    38    33    32    1
    39    36    35    1
    40    53    52    1
    41    35    32    1
    42    62    64   ar
    43    39    40    1
    44    45    44    1
    45    32    31    1
    46    52    50   am
    47    44    41   am
    48    31    22   am
    49    68    69    2
    50    68    67    1
    51    41    40    1
    52    41    42    2
    53    40    43    1
    54    75    74    1
    55    48    49    1
    56    50    51    2
    57    50    49    1
    58    66    67    1
    59    22    23    2
    60    22    21    1
    61    96    97    1
    62    20    21    1
    63    67    70    1
    64    70    71    1
    65   100    97    1
    66   100   101    1
    67    19    18    2
    68   103   101    1
    69   102   101    1
    70    74    76    1
    71    74    73    2
    72    97    98    1
    73    71    72    1
    74    21    24    1
    75    72    73    1
    76    18    17    1
    77    24    25    1
    78    98   104   am
    79    98    99    2
    80    17    16    1
    81    25    27   ar
    82    25    26   ar
    83   104   105    1
    84    27    29   ar
    85    26    28   ar
    86    29    30   ar
    87    16    10   am
    88   107   106    2
    89   110   108    1
    90    14    13   ar
    91    28    30   ar
    92   105   106    1
    93   105   108    1
    94   108   109    1
    95     2     1    1
    96     2     3    1
    97     2     5    1
    98    10    11    2
    99    10     9    1
   100     6     5    1
   101    13    15   ar
   102    13    12    1
   103     3     4    2
   104     3     8   am
   105     5     7    1
   106     8     9    1
   107     9    12    1
