@<TRIPOS>MOLECULE
tmp/6hqbA50.pdb
 94 94 0 0 0
SMALL
GASTEIGER

@<TRIPOS>ATOM
      1  N        -38.7410  -15.0660  -44.9000 N.3   677  PHE677     -0.1241
      2  CA       -40.0000  -15.7050  -45.2710 C.3   677  PHE677      0.1605
      3  C        -39.9540  -17.2080  -45.0240 C.2   677  PHE677      0.2264
      4  O        -40.8610  -17.7730  -44.4010 O.2   677  PHE677     -0.2867
      5  CB       -40.3110  -15.4120  -46.7380 C.3   677  PHE677      0.0534
      6  CG       -41.5640  -16.0660  -47.2390 C.ar  677  PHE677     -0.0203
      7  CD1      -42.8060  -15.5260  -46.9460 C.ar  677  PHE677     -0.0042
      8  CD2      -41.5000  -17.2120  -48.0180 C.ar  677  PHE677     -0.0042
      9  CE1      -43.9640  -16.1230  -47.4130 C.ar  677  PHE677     -0.0003
     10  CE2      -42.6530  -17.8150  -48.4890 C.ar  677  PHE677     -0.0003
     11  CZ       -43.8870  -17.2710  -48.1870 C.ar  677  PHE677     -0.0000
     12  N        -40.1670  -18.4140  -41.3360 N.3   680  ALA680     -0.1231
     13  CA       -41.5050  -18.4400  -40.7630 C.3   680  ALA680      0.1694
     14  C        -42.3770  -19.4920  -41.4300 C.2   680  ALA680      0.2592
     15  O        -43.2640  -20.0590  -40.7830 O.2   680  ALA680     -0.2718
     16  CB       -42.1460  -17.0610  -40.8770 C.3   680  ALA680      0.0304
     17  N        -42.1430  -19.7620  -42.7160 N.am  681  PHE681     -0.1976
     18  CA       -42.8900  -20.8150  -43.3950 C.3   681  PHE681      0.1639
     19  C        -42.6420  -22.1750  -42.7540 C.2   681  PHE681      0.2290
     20  O        -43.5450  -23.0190  -42.7130 O.2   681  PHE681     -0.2864
     21  CB       -42.5250  -20.8360  -44.8800 C.3   681  PHE681      0.0560
     22  CG       -43.2960  -21.8450  -45.6800 C.ar  681  PHE681     -0.0200
     23  CD1      -44.6460  -21.6630  -45.9280 C.ar  681  PHE681     -0.0042
     24  CD2      -42.6710  -22.9750  -46.1860 C.ar  681  PHE681     -0.0042
     25  CE1      -45.3620  -22.5950  -46.6630 C.ar  681  PHE681     -0.0003
     26  CE2      -43.3800  -23.9110  -46.9250 C.ar  681  PHE681     -0.0003
     27  CZ       -44.7260  -23.7210  -47.1620 C.ar  681  PHE681     -0.0000
     28  N        -42.3050  -22.7420  -39.6310 N.3   683  LEU683     -0.1231
     29  CA       -42.9770  -22.8330  -38.3380 C.3   683  LEU683      0.1693
     30  C        -44.3680  -23.4410  -38.4670 C.2   683  LEU683      0.2591
     31  O        -44.8580  -24.0710  -37.5200 O.2   683  LEU683     -0.2718
     32  CB       -43.0560  -21.4500  -37.6930 C.3   683  LEU683      0.0284
     33  CG       -41.7530  -20.6480  -37.7200 C.3   683  LEU683      0.0019
     34  CD1      -41.9220  -19.2960  -37.0410 C.3   683  LEU683      0.0001
     35  CD2      -40.6310  -21.4440  -37.0740 C.3   683  LEU683      0.0001
     36  N        -45.0110  -23.2680  -39.6260 N.am  684  MET684     -0.1979
     37  CA       -46.3010  -23.9060  -39.8680 C.3   684  MET684      0.1605
     38  C        -46.2010  -25.4200  -39.7280 C.2   684  MET684      0.2287
     39  O        -47.0590  -26.0540  -39.1040 O.2   684  MET684     -0.2864
     40  CB       -46.8140  -23.5230  -41.2570 C.3   684  MET684      0.0413
     41  CG       -48.2010  -24.0490  -41.5830 C.3   684  MET684      0.0598
     42  SD       -48.6690  -23.7680  -43.3030 S.3   684  MET684     -0.1393
     43  CE       -47.3960  -24.6870  -44.1570 C.3   684  MET684      0.0692
     44  N        -44.9670  -26.4850  -35.8630 N.3   687  PHE687     -0.1227
     45  CA       -45.8590  -26.2670  -34.7320 C.3   687  PHE687      0.1736
     46  C        -47.1860  -27.0070  -34.8320 C.2   687  PHE687      0.2596
     47  O        -47.9390  -27.0180  -33.8510 O.2   687  PHE687     -0.2718
     48  CB       -46.1400  -24.7660  -34.5480 C.3   687  PHE687      0.0547
     49  CG       -44.9500  -23.9660  -34.0920 C.ar  687  PHE687     -0.0202
     50  CD1      -43.7330  -24.5780  -33.8300 C.ar  687  PHE687     -0.0042
     51  CD2      -45.0560  -22.5950  -33.9140 C.ar  687  PHE687     -0.0042
     52  CE1      -42.6420  -23.8380  -33.4120 C.ar  687  PHE687     -0.0003
     53  CE2      -43.9710  -21.8500  -33.4920 C.ar  687  PHE687     -0.0003
     54  CZ       -42.7620  -22.4740  -33.2400 C.ar  687  PHE687     -0.0000
     55  N        -47.4930  -27.6270  -35.9670 N.am  688  SER688     -0.1952
     56  CA       -48.7900  -28.2500  -36.1970 C.3   688  SER688      0.1924
     57  C        -48.6560  -29.7700  -36.2830 C.2   688  SER688      0.2314
     58  O        -47.5760  -30.3410  -36.1040 O.2   688  SER688     -0.2863
     59  CB       -49.4350  -27.6890  -37.4680 C.3   688  SER688      0.2116
     60  OG       -48.6180  -27.9270  -38.6010 O.3   688  SER688     -0.2180
     61  N        -54.9000  -32.4630  -38.4880 N.3   692  TYR692     -0.1227
     62  CA       -55.7210  -31.3470  -38.9400 C.3   692  TYR692      0.1736
     63  C        -55.6790  -31.2170  -40.4590 C.2   692  TYR692      0.2595
     64  O        -56.7090  -30.9640  -41.1040 O.2   692  TYR692     -0.2718
     65  CB       -55.2290  -30.0670  -38.2570 C.3   692  TYR692      0.0548
     66  CG       -55.8000  -28.7660  -38.7730 C.ar  692  TYR692     -0.0200
     67  CD1      -56.9020  -28.1800  -38.1640 C.ar  692  TYR692     -0.0009
     68  CD2      -55.2120  -28.1000  -39.8420 C.ar  692  TYR692     -0.0009
     69  CE1      -57.4160  -26.9780  -38.6190 C.ar  692  TYR692      0.0417
     70  CE2      -55.7230  -26.9020  -40.3080 C.ar  692  TYR692      0.0417
     71  CZ       -56.8270  -26.3450  -39.6930 C.ar  692  TYR692      0.1957
     72  OH       -57.3410  -25.1510  -40.1490 O.3   692  TYR692     -0.2866
     73  N        -54.4940  -31.4110  -41.0440 N.am  693  TRP693     -0.1976
     74  CA       -54.3340  -31.2260  -42.4790 C.3   693  TRP693      0.1640
     75  C        -55.0320  -32.3230  -43.2670 C.2   693  TRP693      0.2290
     76  O        -55.5540  -32.0590  -44.3540 O.2   693  TRP693     -0.2864
     77  CB       -52.8490  -31.1590  -42.8310 C.3   693  TRP693      0.0576
     78  CG       -52.1360  -30.0990  -42.0550 C.ar  693  TRP693      0.0006
     79  CD1      -51.2430  -30.2840  -41.0410 C.ar  693  TRP693      0.0946
     80  CD2      -52.2850  -28.6820  -42.2060 C.ar  693  TRP693      0.0152
     81  NE1      -50.8160  -29.0700  -40.5590 N.ar  693  TRP693     -0.2442
     82  CE2      -51.4400  -28.0700  -41.2590 C.ar  693  TRP693      0.0810
     83  CE3      -53.0460  -27.8720  -43.0540 C.ar  693  TRP693      0.0012
     84  CZ2      -51.3350  -26.6840  -41.1380 C.ar  693  TRP693      0.0191
     85  CZ3      -52.9400  -26.4990  -42.9320 C.ar  693  TRP693      0.0001
     86  CH2      -52.0900  -25.9180  -41.9820 C.ar  693  TRP693      0.0015
     87  N        -58.6420  -31.3970  -43.3340 N.3   696  LEU696     -0.1245
     88  CA       -58.8710  -30.3370  -44.3170 C.3   696  LEU696      0.1561
     89  C        -58.8310  -30.8800  -45.7450 C.2   696  LEU696      0.2260
     90  O        -59.6550  -30.4990  -46.5950 O.2   696  LEU696     -0.2867
     91  CB       -57.8370  -29.2270  -44.1340 C.3   696  LEU696      0.0270
     92  CG       -57.8290  -28.1160  -45.1840 C.3   696  LEU696      0.0019
     93  CD1      -59.1540  -27.3740  -45.1880 C.3   696  LEU696      0.0001
     94  CD2      -56.6750  -27.1620  -44.9310 C.3   696  LEU696      0.0001
@<TRIPOS>BOND
     1    10    11   ar
     2    10     8   ar
     3    11     9   ar
     4     8     6   ar
     5     9     7   ar
     6     6     7   ar
     7     6     5    1
     8    27    26   ar
     9    27    25   ar
    10    26    24   ar
    11     5     2    1
    12    25    23   ar
    13    90    89    2
    14    24    22   ar
    15    23    22   ar
    16    89    88    1
    17    22    21    1
    18     2     3    1
    19     2     1    1
    20    93    92    1
    21    92    94    1
    22    92    91    1
    23     3     4    2
    24    21    18    1
    25    76    75    2
    26    88    91    1
    27    88    87    1
    28    43    42    1
    29    18    19    1
    30    18    17    1
    31    42    41    1
    32    75    74    1
    33    83    85   ar
    34    83    80   ar
    35    85    86   ar
    36    77    74    1
    37    77    78    1
    38    19    20    2
    39    17    14   am
    40    74    73    1
    41    80    78   ar
    42    80    82   ar
    43    78    79   ar
    44    86    84   ar
    45    41    40    1
    46    14    15    2
    47    14    13    1
    48    12    13    1
    49    82    84   ar
    50    82    81   ar
    51    40    37    1
    52    64    63    2
    53    73    63   am
    54    79    81   ar
    55    16    13    1
    56    63    62    1
    57    70    68   ar
    58    70    71   ar
    59    72    71    1
    60    37    38    1
    61    37    36    1
    62    68    66   ar
    63    38    39    2
    64    71    69   ar
    65    28    29    1
    66    36    30   am
    67    62    61    1
    68    62    65    1
    69    66    65    1
    70    66    67   ar
    71    69    67   ar
    72    60    59    1
    73    30    29    1
    74    30    31    2
    75    29    32    1
    76    33    32    1
    77    33    35    1
    78    33    34    1
    79    59    56    1
    80    57    56    1
    81    57    58    2
    82    56    55    1
    83    55    46   am
    84    44    45    1
    85    46    45    1
    86    46    47    2
    87    45    48    1
    88    48    49    1
    89    49    51   ar
    90    49    50   ar
    91    51    53   ar
    92    50    52   ar
    93    53    54   ar
    94    52    54   ar
