@<TRIPOS>MOLECULE
tmp/6hqbA02.pdb
 168 167 0 0 0
SMALL
GASTEIGER

@<TRIPOS>ATOM
      1  N        -22.7890  -48.7520  -53.9030 N.3    72  ILE72      -0.1231
      2  CA       -22.1350  -47.5970  -53.2920 C.3    72  ILE72       0.1692
      3  C        -20.9300  -47.1530  -54.1170 C.2    72  ILE72       0.2592
      4  O        -20.6660  -45.9520  -54.2570 O.2    72  ILE72      -0.2718
      5  CB       -21.7370  -47.9240  -51.8420 C.3    72  ILE72       0.0266
      6  CG1      -22.9780  -48.1880  -50.9910 C.3    72  ILE72       0.0019
      7  CG2      -20.9240  -46.7950  -51.2360 C.3    72  ILE72       0.0020
      8  CD1      -22.6780  -48.9340  -49.7150 C.3    72  ILE72       0.0001
      9  N        -20.1750  -48.1080  -54.6620 N.am   73  PHE73      -0.1976
     10  CA       -18.9960  -47.7580  -55.4550 C.3    73  PHE73       0.1639
     11  C        -19.3810  -46.9100  -56.6690 C.2    73  PHE73       0.2290
     12  O        -18.8160  -45.8290  -56.9040 O.2    73  PHE73      -0.2864
     13  CB       -18.2710  -49.0370  -55.8810 C.3    73  PHE73       0.0560
     14  CG       -16.8430  -48.8240  -56.2970 C.ar   73  PHE73      -0.0200
     15  CD1      -15.9180  -48.2990  -55.4100 C.ar   73  PHE73      -0.0042
     16  CD2      -16.4200  -49.1750  -57.5690 C.ar   73  PHE73      -0.0042
     17  CE1      -14.6000  -48.1100  -55.7890 C.ar   73  PHE73      -0.0003
     18  CE2      -15.1040  -48.9910  -57.9530 C.ar   73  PHE73      -0.0003
     19  CZ       -14.1940  -48.4560  -57.0630 C.ar   73  PHE73      -0.0000
     20  N        -20.4750  -43.4280  -55.6920 N.3    76  HIS76      -0.1226
     21  CA       -19.3440  -42.5240  -55.5060 C.3    76  HIS76       0.1752
     22  C        -18.7940  -42.0510  -56.8430 C.2    76  HIS76       0.2596
     23  O        -18.4390  -40.8750  -56.9980 O.2    76  HIS76      -0.2718
     24  CB       -18.2400  -43.2070  -54.7050 C.3    76  HIS76       0.0759
     25  CG       -18.5870  -43.4430  -53.2710 C.ar   76  HIS76       0.0818
     26  ND1      -17.6340  -43.4780  -52.2770 N.ar   76  HIS76      -0.2268
     27  CD2      -19.7750  -43.6620  -52.6620 C.ar   76  HIS76       0.1154
     28  CE1      -18.2200  -43.7070  -51.1170 C.ar   76  HIS76       0.1986
     29  NE2      -19.5180  -43.8290  -51.3240 N.ar   76  HIS76      -0.2212
     30  N        -18.6910  -42.9620  -57.8140 N.am   77  PHE77      -0.1976
     31  CA       -18.2360  -42.5610  -59.1440 C.3    77  PHE77       0.1639
     32  C        -19.1540  -41.5010  -59.7470 C.2    77  PHE77       0.2290
     33  O        -18.6840  -40.5170  -60.3360 O.2    77  PHE77      -0.2864
     34  CB       -18.1500  -43.7790  -60.0600 C.3    77  PHE77       0.0560
     35  CG       -16.8040  -44.4440  -60.0640 C.ar   77  PHE77      -0.0200
     36  CD1      -15.6430  -43.6930  -60.0130 C.ar   77  PHE77      -0.0042
     37  CD2      -16.7000  -45.8240  -60.1190 C.ar   77  PHE77      -0.0042
     38  CE1      -14.4050  -44.3060  -60.0190 C.ar   77  PHE77      -0.0003
     39  CE2      -15.4650  -46.4400  -60.1230 C.ar   77  PHE77      -0.0003
     40  CZ       -14.3170  -45.6810  -60.0720 C.ar   77  PHE77      -0.0000
     41  N        -18.5200  -38.1950  -58.1240 N.3    80  LEU80      -0.1245
     42  CA       -17.2970  -37.5830  -58.6330 C.3    80  LEU80       0.1561
     43  C        -17.5150  -36.9810  -60.0150 C.2    80  LEU80       0.2260
     44  O        -16.9510  -35.9270  -60.3340 O.2    80  LEU80      -0.2867
     45  CB       -16.1670  -38.6100  -58.6570 C.3    80  LEU80       0.0270
     46  CG       -15.5140  -38.8020  -57.2910 C.3    80  LEU80       0.0019
     47  CD1      -14.4760  -39.9100  -57.3170 C.3    80  LEU80       0.0001
     48  CD2      -14.8960  -37.4880  -56.8460 C.3    80  LEU80       0.0001
     49  N        -16.8790  -33.0710  -60.8630 N.3    84  PHE84      -0.1241
     50  CA       -16.0280  -32.6170  -61.9570 C.3    84  PHE84       0.1605
     51  C        -16.7970  -31.7180  -62.9180 C.2    84  PHE84       0.2264
     52  O        -16.2390  -30.7440  -63.4400 O.2    84  PHE84      -0.2867
     53  CB       -15.4250  -33.8150  -62.6870 C.3    84  PHE84       0.0534
     54  CG       -14.2080  -34.3800  -62.0140 C.ar   84  PHE84      -0.0203
     55  CD1      -13.2860  -33.5400  -61.4080 C.ar   84  PHE84      -0.0042
     56  CD2      -13.9890  -35.7460  -61.9750 C.ar   84  PHE84      -0.0042
     57  CE1      -12.1640  -34.0520  -60.7840 C.ar   84  PHE84      -0.0003
     58  CE2      -12.8680  -36.2650  -61.3510 C.ar   84  PHE84      -0.0003
     59  CZ       -11.9550  -35.4170  -60.7540 C.ar   84  PHE84      -0.0000
     60  N        -15.4190  -40.5670  -64.7290 N.3   172  MET172     -0.1245
     61  CA       -16.0230  -41.0640  -63.4930 C.3   172  MET172      0.1570
     62  C        -17.4190  -41.6180  -63.7490 C.2   172  MET172      0.2261
     63  O        -17.7840  -42.6760  -63.2140 O.2   172  MET172     -0.2867
     64  CB       -16.0730  -39.9580  -62.4380 C.3   172  MET172      0.0387
     65  CG       -14.7520  -39.2520  -62.2180 C.3   172  MET172      0.0595
     66  SD       -13.3410  -40.3710  -62.2520 S.3   172  MET172     -0.1393
     67  CE       -13.4110  -41.0460  -60.5990 C.3   172  MET172      0.0692
     68  N        -12.5500  -58.2500  -53.0200 N.3   189  TRP189     -0.1227
     69  CA       -11.8140  -57.0430  -53.3720 C.3   189  TRP189      0.1737
     70  C        -11.9910  -55.9210  -52.3560 C.2   189  TRP189      0.2595
     71  O        -11.1230  -55.0460  -52.2650 O.2   189  TRP189     -0.2718
     72  CB       -12.2390  -56.5490  -54.7570 C.3   189  TRP189      0.0564
     73  CG       -11.5250  -55.3050  -55.1740 C.ar  189  TRP189      0.0003
     74  CD1      -10.2480  -55.2140  -55.6440 C.ar  189  TRP189      0.0946
     75  CD2      -12.0380  -53.9680  -55.1460 C.ar  189  TRP189      0.0152
     76  NE1       -9.9340  -53.9040  -55.9110 N.ar  189  TRP189     -0.2442
     77  CE2      -11.0160  -53.1190  -55.6130 C.ar  189  TRP189      0.0810
     78  CE3      -13.2620  -53.4060  -54.7710 C.ar  189  TRP189      0.0012
     79  CZ2      -11.1830  -51.7410  -55.7250 C.ar  189  TRP189      0.0191
     80  CZ3      -13.4230  -52.0360  -54.8780 C.ar  189  TRP189      0.0001
     81  CH2      -12.3890  -51.2190  -55.3500 C.ar  189  TRP189      0.0015
     82  N        -13.0770  -55.9310  -51.5840 N.am  190  PHE190     -0.1976
     83  CA       -13.3890  -54.8210  -50.6870 C.3   190  PHE190      0.1639
     84  C        -12.7340  -54.9680  -49.3140 C.2   190  PHE190      0.2290
     85  O        -11.8970  -54.1470  -48.9280 O.2   190  PHE190     -0.2864
     86  CB       -14.9080  -54.6830  -50.5260 C.3   190  PHE190      0.0560
     87  CG       -15.5800  -53.9680  -51.6610 C.ar  190  PHE190     -0.0200
     88  CD1      -15.5040  -52.5910  -51.7700 C.ar  190  PHE190     -0.0042
     89  CD2      -16.3030  -54.6700  -52.6090 C.ar  190  PHE190     -0.0042
     90  CE1      -16.1270  -51.9290  -52.8110 C.ar  190  PHE190     -0.0003
     91  CE2      -16.9280  -54.0140  -53.6520 C.ar  190  PHE190     -0.0003
     92  CZ       -16.8400  -52.6420  -53.7530 C.ar  190  PHE190     -0.0000
     93  N        -10.4800  -55.5670  -47.6010 N.3   192  ASN192     -0.1240
     94  CA        -9.0570  -55.4740  -47.2910 C.3   192  ASN192      0.1653
     95  C         -8.7550  -54.0760  -46.7540 C.2   192  ASN192      0.2266
     96  O         -8.1600  -53.2270  -47.4200 O.2   192  ASN192     -0.2867
     97  CB        -8.2250  -55.8020  -48.5270 C.3   192  ASN192      0.1155
     98  CG        -8.6950  -57.0620  -49.2250 C.2   192  ASN192      0.2627
     99  OD1       -8.2890  -58.1690  -48.8740 O.2   192  ASN192     -0.2716
    100  ND2       -9.5580  -56.8980  -50.2220 N.am  192  ASN192     -0.0877
    101  N         -5.0950  -53.3060  -46.6740 N.3   195  SER195     -0.1202
    102  CA        -4.6390  -52.9650  -48.0160 C.3   195  SER195      0.2020
    103  C         -5.2110  -51.6290  -48.4730 C.2   195  SER195      0.2618
    104  O         -4.5020  -50.8150  -49.0810 O.2   195  SER195     -0.2717
    105  CB        -5.0260  -54.0810  -48.9870 C.3   195  SER195      0.2103
    106  OG        -4.7610  -53.7170  -50.3280 O.3   195  SER195     -0.2182
    107  N         -6.4930  -51.3800  -48.1880 N.am  196  MET196     -0.1979
    108  CA        -7.0960  -50.1170  -48.6040 C.3   196  MET196      0.1605
    109  C         -6.4520  -48.9390  -47.8890 C.2   196  MET196      0.2287
    110  O         -6.2530  -47.8800  -48.4910 O.2   196  MET196     -0.2864
    111  CB        -8.6040  -50.1220  -48.3570 C.3   196  MET196      0.0413
    112  CG        -9.3090  -48.9300  -49.0040 C.3   196  MET196      0.0598
    113  SD       -11.0700  -48.7800  -48.6420 S.3   196  MET196     -0.1393
    114  CE       -11.6750  -50.3660  -49.2070 C.3   196  MET196      0.0692
    115  N         -3.0840  -48.2720  -49.4880 N.3   199  HIS199     -0.1226
    116  CA        -3.1920  -47.6250  -50.7920 C.3   199  HIS199      0.1752
    117  C         -3.6820  -46.1860  -50.6710 C.2   199  HIS199      0.2596
    118  O         -3.2520  -45.3140  -51.4350 O.2   199  HIS199     -0.2718
    119  CB        -4.1120  -48.4340  -51.7020 C.3   199  HIS199      0.0759
    120  CG        -3.5620  -49.7750  -52.0690 C.ar  199  HIS199      0.0818
    121  ND1       -3.5250  -50.8310  -51.1850 N.ar  199  HIS199     -0.2268
    122  CD2       -3.0110  -50.2270  -53.2200 C.ar  199  HIS199      0.1154
    123  CE1       -2.9820  -51.8790  -51.7780 C.ar  199  HIS199      0.1986
    124  NE2       -2.6630  -51.5390  -53.0130 N.ar  199  HIS199     -0.2212
    125  N         -4.5810  -45.9150  -49.7230 N.am  200  HIS200     -0.1975
    126  CA        -5.1000  -44.5660  -49.5430 C.3   200  HIS200      0.1656
    127  C         -4.1080  -43.6400  -48.8570 C.2   200  HIS200      0.2291
    128  O         -4.2320  -42.4170  -48.9900 O.2   200  HIS200     -0.2864
    129  CB        -6.4050  -44.6040  -48.7430 C.3   200  HIS200      0.0771
    130  CG        -7.6060  -44.9640  -49.5620 C.ar  200  HIS200      0.0820
    131  ND1       -8.8050  -45.3420  -48.9970 N.ar  200  HIS200     -0.2267
    132  CD2       -7.7950  -44.9960  -50.9020 C.ar  200  HIS200      0.1154
    133  CE1       -9.6800  -45.5950  -49.9540 C.ar  200  HIS200      0.1986
    134  NE2       -9.0920  -45.3930  -51.1200 N.ar  200  HIS200     -0.2212
    135  N         -0.5320  -43.8210  -51.7860 N.3   203  GLY203     -0.1210
    136  CA        -0.7800  -43.3760  -53.1430 C.3   203  GLY203      0.1956
    137  C         -1.6100  -42.1160  -53.2720 C.2   203  GLY203      0.2611
    138  O         -1.2710  -41.2230  -54.0540 O.2   203  GLY203     -0.2717
    139  N         -2.7020  -42.0270  -52.5130 N.am  204  LEU204     -0.1979
    140  CA        -3.6230  -40.9070  -52.6750 C.3   204  LEU204      0.1596
    141  C         -3.0930  -39.6440  -52.0030 C.2   204  LEU204      0.2287
    142  O         -2.8200  -38.6400  -52.6700 O.2   204  LEU204     -0.2864
    143  CB        -5.0000  -41.2790  -52.1190 C.3   204  LEU204      0.0297
    144  CG        -6.1370  -40.3060  -52.4370 C.3   204  LEU204      0.0022
    145  CD1       -6.2830  -40.1310  -53.9400 C.3   204  LEU204      0.0001
    146  CD2       -7.4420  -40.7870  -51.8210 C.3   204  LEU204      0.0001
    147  N          1.3970  -39.3430  -52.7990 N.3   207  LEU207     -0.1245
    148  CA         1.7750  -38.9670  -54.1550 C.3   207  LEU207      0.1561
    149  C          1.0290  -37.7260  -54.6240 C.2   207  LEU207      0.2260
    150  O          1.5340  -36.9900  -55.4750 O.2   207  LEU207     -0.2867
    151  CB         1.5260  -40.1320  -55.1120 C.3   207  LEU207      0.0270
    152  CG         2.3080  -41.4110  -54.8150 C.3   207  LEU207      0.0019
    153  CD1        1.9570  -42.4960  -55.8180 C.3   207  LEU207      0.0001
    154  CD2        3.8010  -41.1330  -54.8210 C.3   207  LEU207      0.0001
    155  N        -21.6660  -50.6620  -43.0840 N.3   348  TRP348     -0.1241
    156  CA       -21.3110  -49.4250  -43.7710 C.3   348  TRP348      0.1605
    157  C        -21.6810  -48.2080  -42.9340 C.2   348  TRP348      0.2264
    158  O        -20.9790  -47.1910  -42.9630 O.2   348  TRP348     -0.2867
    159  CB       -22.0040  -49.3530  -45.1290 C.3   348  TRP348      0.0550
    160  CG       -21.2990  -50.0940  -46.2180 C.ar  348  TRP348      0.0003
    161  CD1      -21.4380  -51.4130  -46.5370 C.ar  348  TRP348      0.0946
    162  CD2      -20.3550  -49.5520  -47.1480 C.ar  348  TRP348      0.0152
    163  NE1      -20.6320  -51.7290  -47.6050 N.ar  348  TRP348     -0.2442
    164  CE2      -19.9570  -50.6030  -47.9990 C.ar  348  TRP348      0.0810
    165  CE3      -19.8050  -48.2820  -47.3430 C.ar  348  TRP348      0.0012
    166  CZ2      -19.0340  -50.4220  -49.0260 C.ar  348  TRP348      0.0191
    167  CZ3      -18.8880  -48.1040  -48.3640 C.ar  348  TRP348      0.0001
    168  CH2      -18.5120  -49.1690  -49.1930 C.ar  348  TRP348      0.0015
@<TRIPOS>BOND
     1    60    61    1
     2    62    61    1
     3    62    63    2
     4    61    64    1
     5    52    51    2
     6    51    50    1
     7    53    54    1
     8    53    50    1
     9    64    65    1
    10    66    65    1
    11    66    67    1
    12    54    56   ar
    13    54    55   ar
    14    56    58   ar
    15    50    49    1
    16    55    57   ar
    17    58    59   ar
    18    57    59   ar
    19    33    32    2
    20    44    43    2
    21    39    37   ar
    22    39    40   ar
    23    37    35   ar
    24    40    38   ar
    25    35    34    1
    26    35    36   ar
    27    34    31    1
    28    38    36   ar
    29    43    42    1
    30    32    31    1
    31    31    30    1
    32    45    42    1
    33    45    46    1
    34    42    41    1
    35    18    16   ar
    36    18    19   ar
    37    30    22   am
    38    16    14   ar
    39    47    46    1
    40    46    48    1
    41    19    17   ar
    42    23    22    2
    43    12    11    2
    44    22    21    1
    45    11    10    1
    46    14    13    1
    47    14    15   ar
    48    76    74   ar
    49    76    77   ar
    50    13    10    1
    51   153   152    1
    52    17    15   ar
    53    79    77   ar
    54    79    81   ar
    55    20    21    1
    56    74    73   ar
    57    77    75   ar
    58    21    24    1
    59   150   149    2
    60    10     9    1
    61    81    80   ar
    62    73    75   ar
    63    73    72    1
    64    75    78   ar
    65   151   152    1
    66   151   148    1
    67    80    78   ar
    68   154   152    1
    69    72    69    1
    70    24    25    1
    71     9     3   am
    72   149   148    1
    73     4     3    2
    74   148   147    1
    75     3     2    1
    76   138   137    2
    77   145   144    1
    78     1     2    1
    79    92    91   ar
    80    92    90   ar
    81    91    89   ar
    82    69    68    1
    83    69    70    1
    84     2     5    1
    85   137   136    1
    86   137   139   am
    87    25    27   ar
    88    25    26   ar
    89   122   124   ar
    90   122   120   ar
    91   136   135    1
    92   124   123   ar
    93    90    88   ar
    94   140   139    1
    95   140   143    1
    96   140   141    1
    97   142   141    2
    98    27    29   ar
    99    89    87   ar
   100   144   143    1
   101   144   146    1
   102    70    71    2
   103    70    82   am
   104    26    28   ar
   105   120   119    1
   106   120   121   ar
   107     5     7    1
   108     5     6    1
   109   123   121   ar
   110    88    87   ar
   111   119   116    1
   112    87    86    1
   113    82    83    1
   114   118   117    2
   115    29    28   ar
   116   134   132   ar
   117   134   133   ar
   118     6     8    1
   119   132   130   ar
   120   116   117    1
   121   116   115    1
   122    83    86    1
   123    83    84    1
   124   117   125   am
   125   106   105    1
   126   100    98   am
   127   133   131   ar
   128   125   126    1
   129   130   131   ar
   130   130   129    1
   131   126   127    1
   132   126   129    1
   133    84    85    2
   134    98    99    2
   135    98    97    1
   136   114   113    1
   137   168   166   ar
   138   168   167   ar
   139   104   103    2
   140   166   164   ar
   141   112   113    1
   142   112   111    1
   143   128   127    2
   144   105   102    1
   145   108   111    1
   146   108   107    1
   147   108   109    1
   148    97    94    1
   149   110   109    2
   150   103   107   am
   151   103   102    1
   152   167   165   ar
   153   102   101    1
   154   164   163   ar
   155   164   162   ar
   156   163   161   ar
   157    93    94    1
   158    96    95    2
   159   165   162   ar
   160    94    95    1
   161   162   160   ar
   162   161   160   ar
   163   160   159    1
   164   159   156    1
   165   156   155    1
   166   156   157    1
   167   158   157    2
