@<TRIPOS>MOLECULE
tmp/6hqbA06.pdb
 135 132 0 0 0
SMALL
GASTEIGER

@<TRIPOS>ATOM
      1  N         20.3180  -34.0210  -53.4050 N.3   263  PHE263     -0.1241
      2  CA        19.1500  -34.5850  -52.7340 C.3   263  PHE263      0.1605
      3  C         19.3180  -36.0800  -52.4950 C.2   263  PHE263      0.2264
      4  O         18.9810  -36.5860  -51.4180 O.2   263  PHE263     -0.2867
      5  CB        17.8890  -34.3100  -53.5520 C.3   263  PHE263      0.0534
      6  CG        16.7370  -35.2020  -53.1990 C.ar  263  PHE263     -0.0203
      7  CD1       16.1940  -35.1830  -51.9270 C.ar  263  PHE263     -0.0042
      8  CD2       16.1920  -36.0550  -54.1420 C.ar  263  PHE263     -0.0042
      9  CE1       15.1390  -36.0060  -51.6020 C.ar  263  PHE263     -0.0003
     10  CE2       15.1310  -36.8780  -53.8220 C.ar  263  PHE263     -0.0003
     11  CZ        14.6030  -36.8510  -52.5510 C.ar  263  PHE263     -0.0000
     12  N         20.2780  -32.2730  -48.0770 N.3   268  TRP268     -0.1227
     13  CA        19.0160  -31.5390  -48.1100 C.3   268  TRP268      0.1737
     14  C         19.2170  -30.0560  -47.8270 C.2   268  TRP268      0.2596
     15  O         18.5720  -29.2060  -48.4530 O.2   268  TRP268     -0.2718
     16  CB        18.0370  -32.1320  -47.0980 C.3   268  TRP268      0.0564
     17  CG        17.3660  -33.3890  -47.5410 C.ar  268  TRP268      0.0003
     18  CD1       17.6480  -34.1260  -48.6540 C.ar  268  TRP268      0.0946
     19  CD2       16.2870  -34.0570  -46.8800 C.ar  268  TRP268      0.0152
     20  NE1       16.8120  -35.2150  -48.7230 N.ar  268  TRP268     -0.2442
     21  CE2       15.9670  -35.1930  -47.6450 C.ar  268  TRP268      0.0810
     22  CE3       15.5610  -33.8040  -45.7120 C.ar  268  TRP268      0.0012
     23  CZ2       14.9530  -36.0740  -47.2800 C.ar  268  TRP268      0.0191
     24  CZ3       14.5560  -34.6810  -45.3520 C.ar  268  TRP268      0.0001
     25  CH2       14.2590  -35.8010  -46.1340 C.ar  268  TRP268      0.0015
     26  N         20.1060  -29.7270  -46.8860 N.am  269  GLY269     -0.1957
     27  CA        20.2780  -28.3500  -46.4520 C.3   269  GLY269      0.1869
     28  C         20.6360  -27.3800  -47.5580 C.2   269  GLY269      0.2309
     29  O         20.4840  -26.1670  -47.3800 O.2   269  GLY269     -0.2863
     30  N         19.1230  -27.1870  -50.4680 N.3   271  TYR271     -0.1227
     31  CA        17.9110  -26.7530  -51.1550 C.3   271  TYR271      0.1736
     32  C         17.1430  -25.7160  -50.3430 C.2   271  TYR271      0.2596
     33  O         15.9250  -25.5820  -50.4930 O.2   271  TYR271     -0.2718
     34  CB        17.0080  -27.9500  -51.4630 C.3   271  TYR271      0.0548
     35  CG        17.6420  -28.9770  -52.3710 C.ar  271  TYR271     -0.0200
     36  CD1       17.6440  -28.8080  -53.7500 C.ar  271  TYR271     -0.0009
     37  CD2       18.2380  -30.1170  -51.8500 C.ar  271  TYR271     -0.0009
     38  CE1       18.2230  -29.7450  -54.5830 C.ar  271  TYR271      0.0417
     39  CE2       18.8190  -31.0580  -52.6750 C.ar  271  TYR271      0.0417
     40  CZ        18.8090  -30.8680  -54.0400 C.ar  271  TYR271      0.1957
     41  OH        19.3850  -31.8030  -54.8670 O.3   271  TYR271     -0.2866
     42  N         17.8460  -24.9740  -49.4890 N.am  272  SER272     -0.1952
     43  CA        17.2220  -23.9700  -48.6370 C.3   272  SER272      0.1924
     44  C         16.8560  -22.6940  -49.3840 C.2   272  SER272      0.2314
     45  O         16.2910  -21.7800  -48.7720 O.2   272  SER272     -0.2863
     46  CB        18.1480  -23.6290  -47.4670 C.3   272  SER272      0.2116
     47  OG        19.3960  -23.1460  -47.9310 O.3   272  SER272     -0.2180
     48  N         13.0700  -24.4100  -50.7320 N.3   275  LEU275     -0.1231
     49  CA        12.3580  -25.1460  -49.6870 C.3   275  LEU275      0.1693
     50  C         12.6250  -24.4400  -48.3610 C.2   275  LEU275      0.2593
     51  O         13.4120  -24.8850  -47.5230 O.2   275  LEU275     -0.2718
     52  CB        12.7970  -26.6050  -49.6550 C.3   275  LEU275      0.0284
     53  CG        12.5300  -27.4450  -50.9040 C.3   275  LEU275      0.0019
     54  CD1       13.0360  -28.8660  -50.7110 C.3   275  LEU275      0.0001
     55  CD2       11.0500  -27.4440  -51.2420 C.3   275  LEU275      0.0001
     56  N         11.9510  -23.3110  -48.1780 N.am  276  THR276     -0.1939
     57  CA        12.2190  -22.4270  -47.0560 C.3   276  THR276      0.2028
     58  C         11.3000  -22.7340  -45.8760 C.2   276  THR276      0.2642
     59  O         10.3580  -23.5230  -45.9680 O.2   276  THR276     -0.2714
     60  CB        12.0560  -20.9670  -47.4800 C.3   276  THR276      0.1808
     61  OG1       10.6920  -20.7250  -47.8470 O.3   276  THR276     -0.2208
     62  CG2       12.9570  -20.6550  -48.6650 C.3   276  THR276      0.0379
     63  N         11.5950  -22.0890  -44.7500 N.am  277  PHE277     -0.1973
     64  CA        10.7790  -22.1670  -43.5430 C.3   277  PHE277      0.1639
     65  C         10.6170  -20.7660  -42.9640 C.2   277  PHE277      0.2290
     66  O         10.8600  -20.5180  -41.7820 O.2   277  PHE277     -0.2864
     67  CB        11.3970  -23.1200  -42.5210 C.3   277  PHE277      0.0560
     68  CG        10.3900  -23.8010  -41.6310 C.ar  277  PHE277     -0.0200
     69  CD1        9.9470  -25.0820  -41.9190 C.ar  277  PHE277     -0.0042
     70  CD2        9.8940  -23.1650  -40.5050 C.ar  277  PHE277     -0.0042
     71  CE1        9.0260  -25.7150  -41.1040 C.ar  277  PHE277     -0.0003
     72  CE2        8.9720  -23.7920  -39.6870 C.ar  277  PHE277     -0.0003
     73  CZ         8.5370  -25.0690  -39.9880 C.ar  277  PHE277     -0.0000
     74  N          7.6010  -26.9270  -49.8480 N.3   295  HIS295     -0.1241
     75  CA         8.3240  -27.7150  -48.8550 C.3   295  HIS295      0.1621
     76  C          7.3630  -28.4860  -47.9590 C.2   295  HIS295      0.2264
     77  O          7.5940  -29.6610  -47.6400 O.2   295  HIS295     -0.2867
     78  CB         9.2040  -26.7780  -48.0280 C.3   295  HIS295      0.0745
     79  CG        10.1500  -27.4800  -47.1110 C.ar  295  HIS295      0.0817
     80  ND1       10.7230  -26.8610  -46.0210 N.ar  295  HIS295     -0.2268
     81  CD2       10.6350  -28.7430  -47.1260 C.ar  295  HIS295      0.1154
     82  CE1       11.5160  -27.7150  -45.4000 C.ar  295  HIS295      0.1986
     83  NE2       11.4800  -28.8630  -46.0510 N.ar  295  HIS295     -0.2212
     84  N          5.8730  -31.3950  -49.8460 N.3   298  LEU298     -0.1231
     85  CA         6.8770  -32.4490  -49.9680 C.3   298  LEU298      0.1693
     86  C          6.9980  -33.2420  -48.6720 C.2   298  LEU298      0.2592
     87  O          7.0660  -34.4810  -48.6910 O.2   298  LEU298     -0.2718
     88  CB         8.2200  -31.8360  -50.3610 C.3   298  LEU298      0.0284
     89  CG         9.4110  -32.7730  -50.5520 C.3   298  LEU298      0.0019
     90  CD1        9.0740  -33.8920  -51.5230 C.3   298  LEU298      0.0001
     91  CD2       10.6160  -31.9870  -51.0420 C.3   298  LEU298      0.0001
     92  N          7.0180  -32.5430  -47.5350 N.am  299  ALA299     -0.1966
     93  CA         7.0860  -33.2220  -46.2440 C.3   299  ALA299      0.1728
     94  C          5.8580  -34.0980  -46.0180 C.2   299  ALA299      0.2616
     95  O          5.9730  -35.2530  -45.5890 O.2   299  ALA299     -0.2715
     96  CB         7.2310  -32.1970  -45.1200 C.3   299  ALA299      0.0334
     97  N          4.6710  -33.5570  -46.3020 N.am  300  ILE300     -0.1977
     98  CA         3.4360  -34.3170  -46.1290 C.3   300  ILE300      0.1596
     99  C          3.4200  -35.5250  -47.0560 C.2   300  ILE300      0.2287
    100  O          2.9350  -36.6020  -46.6910 O.2   300  ILE300     -0.2864
    101  CB         2.2160  -33.4050  -46.3590 C.3   300  ILE300      0.0276
    102  CG1        2.1670  -32.3140  -45.2910 C.3   300  ILE300      0.0022
    103  CG2        0.9270  -34.2040  -46.3540 C.3   300  ILE300      0.0022
    104  CD1        2.2850  -32.8360  -43.8780 C.3   300  ILE300      0.0001
    105  N          6.1110  -37.2720  -48.2330 N.3   302  VAL302     -0.1231
    106  CA         6.9870  -38.2910  -47.6590 C.3   302  VAL302      0.1692
    107  C          6.3050  -38.9640  -46.4740 C.2   302  VAL302      0.2591
    108  O          6.3060  -40.1990  -46.3530 O.2   302  VAL302     -0.2718
    109  CB         8.3420  -37.6750  -47.2640 C.3   302  VAL302      0.0266
    110  CG1        9.1810  -38.6800  -46.4910 C.3   302  VAL302      0.0020
    111  CG2        9.0880  -37.2020  -48.5020 C.3   302  VAL302      0.0020
    112  N          5.6830  -38.1660  -45.6000 N.am  303  LEU303     -0.1980
    113  CA         5.0480  -38.7160  -44.4060 C.3   303  LEU303      0.1596
    114  C          3.9260  -39.6810  -44.7650 C.2   303  LEU303      0.2287
    115  O          3.8240  -40.7680  -44.1860 O.2   303  LEU303     -0.2864
    116  CB         4.5210  -37.5790  -43.5320 C.3   303  LEU303      0.0297
    117  CG         4.8980  -37.6160  -42.0500 C.3   303  LEU303      0.0022
    118  CD1        4.4500  -36.3400  -41.3540 C.3   303  LEU303      0.0001
    119  CD2        4.3010  -38.8380  -41.3710 C.3   303  LEU303      0.0001
    120  N          5.1960  -42.9420  -46.3520 N.3   306  ILE306     -0.1245
    121  CA         5.7180  -43.8110  -45.3000 C.3   306  ILE306      0.1561
    122  C          4.5780  -44.4270  -44.4950 C.2   306  ILE306      0.2260
    123  O          4.6240  -45.6080  -44.1310 O.2   306  ILE306     -0.2867
    124  CB         6.6950  -43.0320  -44.4020 C.3   306  ILE306      0.0252
    125  CG1        7.9330  -42.6190  -45.1970 C.3   306  ILE306      0.0019
    126  CG2        7.0970  -43.8660  -43.1970 C.3   306  ILE306      0.0019
    127  CD1        8.8550  -41.6970  -44.4390 C.3   306  ILE306      0.0001
    128  N         14.7550  -22.6150  -36.5490 N.3   500  ASN500     -0.1240
    129  CA        14.7550  -22.5270  -38.0040 C.3   500  ASN500      0.1653
    130  C         13.6080  -21.6730  -38.5250 C.2   500  ASN500      0.2266
    131  O         13.7220  -21.0850  -39.6070 O.2   500  ASN500     -0.2867
    132  CB        14.6850  -23.9270  -38.6160 C.3   500  ASN500      0.1155
    133  CG        15.8000  -24.8300  -38.1300 C.2   500  ASN500      0.2627
    134  OD1       16.8600  -24.3590  -37.7170 O.2   500  ASN500     -0.2716
    135  ND2       15.5660  -26.1360  -38.1760 N.am  500  ASN500     -0.0877
@<TRIPOS>BOND
     1    41    40    1
     2    38    40   ar
     3    38    36   ar
     4     8    10   ar
     5     8     6   ar
     6    40    39   ar
     7    10    11   ar
     8    36    35   ar
     9     5     6    1
    10     5     2    1
    11     1     2    1
    12     6     7   ar
    13     2     3    1
    14    39    37   ar
    15    11     9   ar
    16     3     4    2
    17    35    37   ar
    18    35    34    1
    19     7     9   ar
    20    90    89    1
    21    34    31    1
    22    55    53    1
    23    31    30    1
    24    31    32    1
    25    91    89    1
    26    53    54    1
    27    53    52    1
    28    48    49    1
    29    89    88    1
    30    33    32    2
    31    88    85    1
    32    32    42   am
    33    85    84    1
    34    85    86    1
    35    74    75    1
    36    49    52    1
    37    49    50    1
    38    42    43    1
    39    44    45    2
    40    44    43    1
    41    75    78    1
    42    75    76    1
    43    20    18   ar
    44    20    21   ar
    45    87    86    2
    46    86    92   am
    47    62    60    1
    48    18    17   ar
    49    43    46    1
    50   111   109    1
    51    15    14    2
    52    50    56   am
    53    50    51    2
    54   105   106    1
    55    56    57    1
    56    13    12    1
    57    13    14    1
    58    13    16    1
    59    78    79    1
    60    76    77    2
    61    47    46    1
    62    61    60    1
    63    14    26   am
    64   106   109    1
    65   106   107    1
    66    21    23   ar
    67    21    19   ar
    68    28    29    2
    69    28    27    1
    70    17    16    1
    71    17    19   ar
    72    92    93    1
    73    60    57    1
    74    23    25   ar
    75   109   110    1
    76    81    79   ar
    77    81    83   ar
    78    79    80   ar
    79    99   100    2
    80    99    98    1
    81    57    58    1
    82    26    27    1
    83    19    22   ar
    84   107   108    2
    85   107   112   am
    86   101   103    1
    87   101    98    1
    88   101   102    1
    89   120   121    1
    90    97    98    1
    91    97    94   am
    92    93    94    1
    93    93    96    1
    94    25    24   ar
    95    83    82   ar
    96    80    82   ar
    97    94    95    2
    98    59    58    2
    99    58    63   am
   100    22    24   ar
   101   112   113    1
   102   121   122    1
   103   121   124    1
   104   102   104    1
   105   125   127    1
   106   125   124    1
   107   114   113    1
   108   114   115    2
   109    63    64    1
   110   122   123    2
   111   113   116    1
   112   124   126    1
   113    64    65    1
   114    64    67    1
   115   116   117    1
   116    65    66    2
   117    67    68    1
   118   117   119    1
   119   117   118    1
   120    69    68   ar
   121    69    71   ar
   122    68    70   ar
   123    71    73   ar
   124    70    72   ar
   125    73    72   ar
   126   131   130    2
   127   132   133    1
   128   132   129    1
   129   130   129    1
   130   135   133   am
   131   133   134    2
   132   129   128    1
