@<TRIPOS>MOLECULE
tmp/6hqbA25.pdb
 142 143 0 0 0
SMALL
GASTEIGER

@<TRIPOS>ATOM
      1  N        -25.9930  -32.7570  -16.8730 N.3   442  TRP442     -0.1227
      2  CA       -25.4990  -31.8410  -15.8490 C.3   442  TRP442      0.1737
      3  C        -24.4740  -30.8700  -16.4230 C.2   442  TRP442      0.2595
      4  O        -24.4920  -29.6740  -16.1030 O.2   442  TRP442     -0.2718
      5  CB       -24.9010  -32.6320  -14.6850 C.3   442  TRP442      0.0564
      6  CG       -24.2440  -31.7700  -13.6530 C.ar  442  TRP442      0.0003
      7  CD1      -24.8360  -31.1930  -12.5670 C.ar  442  TRP442      0.0946
      8  CD2      -22.8660  -31.3810  -13.6110 C.ar  442  TRP442      0.0152
      9  NE1      -23.9130  -30.4690  -11.8530 N.ar  442  TRP442     -0.2442
     10  CE2      -22.6950  -30.5690  -12.4730 C.ar  442  TRP442      0.0810
     11  CE3      -21.7600  -31.6410  -14.4260 C.ar  442  TRP442      0.0012
     12  CZ2      -21.4650  -30.0150  -12.1300 C.ar  442  TRP442      0.0191
     13  CZ3      -20.5400  -31.0910  -14.0840 C.ar  442  TRP442      0.0001
     14  CH2      -20.4020  -30.2870  -12.9460 C.ar  442  TRP442      0.0015
     15  N        -23.5710  -31.3650  -17.2740 N.am  443  VAL443     -0.1980
     16  CA       -22.5430  -30.5020  -17.8540 C.3   443  VAL443      0.1595
     17  C        -23.1780  -29.4290  -18.7280 C.2   443  VAL443      0.2287
     18  O        -22.7620  -28.2650  -18.7090 O.2   443  VAL443     -0.2864
     19  CB       -21.5190  -31.3350  -18.6460 C.3   443  VAL443      0.0276
     20  CG1      -20.5170  -30.4230  -19.3350 C.3   443  VAL443      0.0022
     21  CG2      -20.8010  -32.2930  -17.7300 C.3   443  VAL443      0.0022
     22  N        -24.7350  -26.8040  -16.5430 N.3   446  PHE446     -0.1227
     23  CA       -23.6810  -25.9670  -15.9830 C.3   446  PHE446      0.1736
     24  C        -23.1890  -24.9500  -17.0040 C.2   446  PHE446      0.2595
     25  O        -23.1160  -23.7500  -16.7170 O.2   446  PHE446     -0.2718
     26  CB       -22.5280  -26.8450  -15.4940 C.3   446  PHE446      0.0547
     27  CG       -21.3290  -26.0690  -15.0300 C.ar  446  PHE446     -0.0202
     28  CD1      -21.2970  -25.5090  -13.7640 C.ar  446  PHE446     -0.0042
     29  CD2      -20.2300  -25.9050  -15.8590 C.ar  446  PHE446     -0.0042
     30  CE1      -20.1950  -24.7950  -13.3330 C.ar  446  PHE446     -0.0003
     31  CE2      -19.1240  -25.1930  -15.4360 C.ar  446  PHE446     -0.0003
     32  CZ       -19.1060  -24.6370  -14.1700 C.ar  446  PHE446     -0.0000
     33  N        -22.8530  -25.4160  -18.2090 N.am  447  LEU447     -0.1980
     34  CA       -22.3700  -24.5200  -19.2520 C.3   447  LEU447      0.1596
     35  C        -23.4320  -23.5280  -19.7030 C.2   447  LEU447      0.2287
     36  O        -23.0840  -22.4540  -20.2020 O.2   447  LEU447     -0.2864
     37  CB       -21.8700  -25.3240  -20.4530 C.3   447  LEU447      0.0297
     38  CG       -20.5070  -26.0020  -20.3150 C.3   447  LEU447      0.0022
     39  CD1      -20.1550  -26.7280  -21.5970 C.3   447  LEU447      0.0001
     40  CD2      -19.4330  -24.9860  -19.9670 C.3   447  LEU447      0.0001
     41  N        -10.6180  -12.4100  -17.5960 N.3   479  GLN479     -0.1231
     42  CA        -9.5400  -12.4670  -18.5770 C.3   479  GLN479      0.1683
     43  C         -9.2010  -13.9170  -18.9080 C.2   479  GLN479      0.2434
     44  O         -9.0560  -14.7370  -17.9960 O.2   479  GLN479     -0.2733
     45  CB        -8.3010  -11.7470  -18.0510 C.3   479  GLN479      0.0380
     46  CG        -8.5280  -10.2830  -17.7030 C.3   479  GLN479      0.0905
     47  CD        -8.6390   -9.3940  -18.9290 C.2   479  GLN479      0.2608
     48  OE1       -8.2940   -9.7980  -20.0390 O.2   479  GLN479     -0.2717
     49  NE2       -9.1190   -8.1720  -18.7300 N.am  479  GLN479     -0.0878
     50  N         -9.0760  -14.2710  -20.1920 N.am  480  PRO480     -0.2718
     51  CA        -8.6710  -15.6380  -20.5470 C.3   480  PRO480      0.1535
     52  C         -7.1610  -15.8210  -20.4920 C.2   480  PRO480      0.2598
     53  O         -6.4400  -15.3940  -21.3980 O.2   480  PRO480     -0.2715
     54  CB        -9.2120  -15.7990  -21.9720 C.3   480  PRO480      0.0310
     55  CG        -9.1850  -14.4080  -22.5310 C.3   480  PRO480      0.0237
     56  CD        -9.4240  -13.4650  -21.3760 C.3   480  PRO480      0.0939
     57  N         -6.6700  -16.4640  -19.4330 N.am  481  ILE481     -0.1964
     58  CA        -5.2280  -16.5460  -19.2250 C.3   481  ILE481      0.1727
     59  C         -4.5960  -17.5960  -20.1350 C.2   481  ILE481      0.2616
     60  O         -3.5040  -17.3850  -20.6730 O.2   481  ILE481     -0.2715
     61  CB        -4.9250  -16.8180  -17.7400 C.3   481  ILE481      0.0290
     62  CG1       -5.7210  -18.0240  -17.2360 C.3   481  ILE481      0.0022
     63  CG2       -5.2390  -15.5870  -16.9020 C.3   481  ILE481      0.0023
     64  CD1       -5.4890  -18.3430  -15.7740 C.3   481  ILE481      0.0001
     65  N         -5.2700  -18.7310  -20.3310 N.am  482  PHE482     -0.1960
     66  CA        -4.6790  -19.8270  -21.0950 C.3   482  PHE482      0.1771
     67  C         -4.4800  -19.4430  -22.5570 C.2   482  PHE482      0.2619
     68  O         -3.4130  -19.6870  -23.1380 O.2   482  PHE482     -0.2715
     69  CB        -5.5580  -21.0730  -20.9810 C.3   482  PHE482      0.0574
     70  CG        -5.7300  -21.5740  -19.5750 C.ar  482  PHE482     -0.0200
     71  CD1       -4.7710  -22.3850  -18.9920 C.ar  482  PHE482     -0.0042
     72  CD2       -6.8580  -21.2450  -18.8410 C.ar  482  PHE482     -0.0042
     73  CE1       -4.9290  -22.8510  -17.7010 C.ar  482  PHE482     -0.0003
     74  CE2       -7.0220  -21.7090  -17.5490 C.ar  482  PHE482     -0.0003
     75  CZ        -6.0560  -22.5120  -16.9780 C.ar  482  PHE482     -0.0000
     76  N         -5.5030  -18.8430  -23.1710 N.am  483  ALA483     -0.1977
     77  CA        -5.4110  -18.4880  -24.5830 C.3   483  ALA483      0.1597
     78  C         -4.3580  -17.4120  -24.8190 C.2   483  ALA483      0.2287
     79  O         -3.5860  -17.4960  -25.7810 O.2   483  ALA483     -0.2864
     80  CB        -6.7740  -18.0300  -25.0970 C.3   483  ALA483      0.0319
     81  N         -7.4390  -11.1390  -26.7170 N.3   527  LEU527     -0.1245
     82  CA        -8.5190  -11.9090  -26.1150 C.3   527  LEU527      0.1561
     83  C         -8.7760  -11.3970  -24.7040 C.2   527  LEU527      0.2260
     84  O         -7.8660  -11.3850  -23.8680 O.2   527  LEU527     -0.2867
     85  CB        -8.1800  -13.3980  -26.1030 C.3   527  LEU527      0.0270
     86  CG        -7.8380  -13.9680  -27.4810 C.3   527  LEU527      0.0019
     87  CD1       -7.6980  -15.4770  -27.4240 C.3   527  LEU527      0.0001
     88  CD2       -8.8850  -13.5630  -28.5070 C.3   527  LEU527      0.0001
     89  N        -14.2720  -12.1850  -25.2400 N.3   531  ASP531     -0.1225
     90  CA       -13.8840  -13.4090  -25.9280 C.3   531  ASP531      0.1805
     91  C        -14.0830  -14.6400  -25.0530 C.2   531  ASP531      0.2597
     92  O        -14.5250  -15.6850  -25.5430 O.2   531  ASP531     -0.2718
     93  CB       -12.4270  -13.3100  -26.3850 C.3   531  ASP531      0.1424
     94  CG       -12.2250  -12.2530  -27.4540 C.2   531  ASP531      0.3668
     95  OD1      -12.8440  -12.3710  -28.5310 O.co2 531  ASP531     -0.2456
     96  OD2      -11.4620  -11.2950  -27.2130 O.co2 531  ASP531     -0.2456
     97  N        -13.7690  -14.5270  -23.7610 N.am  532  PHE532     -0.1976
     98  CA       -13.9910  -15.6260  -22.8250 C.3   532  PHE532      0.1639
     99  C        -15.4640  -16.0210  -22.7810 C.2   532  PHE532      0.2290
    100  O        -15.8100  -17.2110  -22.8650 O.2   532  PHE532     -0.2864
    101  CB       -13.4850  -15.2100  -21.4410 C.3   532  PHE532      0.0560
    102  CG       -13.8450  -16.1610  -20.3340 C.ar  532  PHE532     -0.0200
    103  CD1      -13.0770  -17.2850  -20.0920 C.ar  532  PHE532     -0.0042
    104  CD2      -14.9310  -15.9070  -19.5110 C.ar  532  PHE532     -0.0042
    105  CE1      -13.3980  -18.1500  -19.0650 C.ar  532  PHE532     -0.0003
    106  CE2      -15.2590  -16.7690  -18.4840 C.ar  532  PHE532     -0.0003
    107  CZ       -14.4910  -17.8930  -18.2610 C.ar  532  PHE532     -0.0000
    108  N        -16.5560  -17.7050  -26.0360 N.3   535  HIS535     -0.1226
    109  CA       -15.9920  -19.0470  -26.1300 C.3   535  HIS535      0.1752
    110  C        -16.7730  -20.0270  -25.2660 C.2   535  HIS535      0.2596
    111  O        -17.0460  -21.1600  -25.6850 O.2   535  HIS535     -0.2718
    112  CB       -14.5170  -19.0320  -25.7260 C.3   535  HIS535      0.0759
    113  CG       -13.6050  -18.4980  -26.7860 C.ar  535  HIS535      0.0818
    114  ND1      -13.5750  -17.1670  -27.1440 N.ar  535  HIS535     -0.2268
    115  CD2      -12.6880  -19.1170  -27.5660 C.ar  535  HIS535      0.1154
    116  CE1      -12.6790  -16.9900  -28.0980 C.ar  535  HIS535      0.1986
    117  NE2      -12.1260  -18.1570  -28.3720 N.ar  535  HIS535     -0.2212
    118  N        -17.1530  -19.6070  -24.0560 N.am  536  HIS536     -0.1975
    119  CA       -17.9540  -20.4940  -23.2170 C.3   536  HIS536      0.1656
    120  C        -19.3540  -20.6970  -23.7860 C.2   536  HIS536      0.2291
    121  O        -19.9300  -21.7810  -23.6360 O.2   536  HIS536     -0.2864
    122  CB       -18.0120  -19.9600  -21.7890 C.3   536  HIS536      0.0771
    123  CG       -16.8190  -20.3350  -20.9680 C.ar  536  HIS536      0.0820
    124  ND1      -15.5480  -20.3980  -21.4970 N.ar  536  HIS536     -0.2267
    125  CD2      -16.7030  -20.6830  -19.6650 C.ar  536  HIS536      0.1154
    126  CE1      -14.6990  -20.7610  -20.5530 C.ar  536  HIS536      0.1986
    127  NE2      -15.3740  -20.9390  -19.4310 N.ar  536  HIS536     -0.2212
    128  N        -18.8370  -23.3870  -26.3370 N.3   539  ALA539     -0.1245
    129  CA       -18.6730  -24.6740  -25.6710 C.3   539  ALA539      0.1562
    130  C        -20.0110  -25.2220  -25.1910 C.2   539  ALA539      0.2260
    131  O        -20.2900  -26.4170  -25.3410 O.2   539  ALA539     -0.2867
    132  CB       -17.6960  -24.5420  -24.5040 C.3   539  ALA539      0.0290
    133  N        -21.8490  -28.5680  -26.4840 N.3   543  HIS543     -0.1241
    134  CA       -22.1280  -29.6160  -25.5070 C.3   543  HIS543      0.1621
    135  C        -23.5700  -30.0890  -25.5980 C.2   543  HIS543      0.2264
    136  O        -23.8400  -31.2940  -25.5330 O.2   543  HIS543     -0.2867
    137  CB       -21.8220  -29.1190  -24.0960 C.3   543  HIS543      0.0745
    138  CG       -20.4850  -29.5510  -23.5840 C.ar  543  HIS543      0.0817
    139  ND1      -19.3070  -28.9570  -23.9830 N.ar  543  HIS543     -0.2268
    140  CD2      -20.1380  -30.5260  -22.7110 C.ar  543  HIS543      0.1154
    141  CE1      -18.2930  -29.5430  -23.3730 C.ar  543  HIS543      0.1986
    142  NE2      -18.7700  -30.4980  -22.5940 N.ar  543  HIS543     -0.2212
@<TRIPOS>BOND
     1    95    94   ar
     2    88    86    1
     3   117   116   ar
     4   117   115   ar
     5   116   114   ar
     6   115   113   ar
     7    86    87    1
     8    86    85    1
     9    94    96   ar
    10    94    93    1
    11   114   113   ar
    12   113   112    1
    13    81    82    1
    14   133   134    1
    15    93    90    1
    16   128   129    1
    17   109   108    1
    18   109   112    1
    19   109   110    1
    20    82    85    1
    21    82    83    1
    22    90    89    1
    23    90    91    1
    24    79    78    2
    25   111   110    2
    26   129   130    1
    27   129   132    1
    28   135   136    2
    29   135   134    1
    30    92    91    2
    31   134   137    1
    32   131   130    2
    33   110   118   am
    34    80    77    1
    35    91    97   am
    36    78    77    1
    37    83    84    2
    38    77    76    1
    39   137   138    1
    40   118   119    1
    41   139   138   ar
    42   139   141   ar
    43   120   121    2
    44   120   119    1
    45    97    98    1
    46   138   140   ar
    47   141   142   ar
    48   119   122    1
    49    76    67   am
    50    68    67    2
    51   100    99    2
    52    98    99    1
    53    98   101    1
    54   140   142   ar
    55    67    66    1
    56    55    54    1
    57    55    56    1
    58    54    51    1
    59   122   123    1
    60    39    38    1
    61   124   123   ar
    62   124   126   ar
    63   101   102    1
    64    53    52    2
    65    56    50    1
    66    66    69    1
    67    66    65    1
    68    69    70    1
    69   123   125   ar
    70    60    59    2
    71   126   127   ar
    72    51    52    1
    73    51    50    1
    74    52    57   am
    75    37    38    1
    76    37    34    1
    77   102   103   ar
    78   102   104   ar
    79    65    59   am
    80    38    40    1
    81    36    35    2
    82    50    43   am
    83    59    58    1
    84   103   105   ar
    85    48    47    2
    86    35    34    1
    87   125   127   ar
    88    70    71   ar
    89    70    72   ar
    90   104   106   ar
    91    57    58    1
    92    20    19    1
    93    34    33    1
    94    58    61    1
    95   105   107   ar
    96    71    73   ar
    97    47    49   am
    98    47    46    1
    99    43    42    1
   100    43    44    2
   101    72    74   ar
   102    17    18    2
   103    17    16    1
   104    19    16    1
   105    19    21    1
   106    42    45    1
   107    42    41    1
   108   106   107   ar
   109    33    24   am
   110    45    46    1
   111    16    15    1
   112    61    62    1
   113    61    63    1
   114    73    75   ar
   115    74    75   ar
   116    15     3   am
   117    62    64    1
   118    24    25    2
   119    24    23    1
   120     1     2    1
   121    22    23    1
   122     3     4    2
   123     3     2    1
   124    23    26    1
   125    29    31   ar
   126    29    27   ar
   127     2     5    1
   128    26    27    1
   129    31    32   ar
   130    27    28   ar
   131     5     6    1
   132    11    13   ar
   133    11     8   ar
   134    32    30   ar
   135    13    14   ar
   136    28    30   ar
   137     6     8   ar
   138     6     7   ar
   139     8    10   ar
   140    14    12   ar
   141     7     9   ar
   142    10    12   ar
   143    10     9   ar
