@<TRIPOS>MOLECULE
tmp/6hqbA14.pdb
 192 183 0 0 0
SMALL
GASTEIGER

@<TRIPOS>ATOM
      1  N        -20.4750  -43.4280  -55.6920 N.3    76  HIS76      -0.1241
      2  CA       -19.3440  -42.5240  -55.5060 C.3    76  HIS76       0.1621
      3  C        -18.7940  -42.0510  -56.8430 C.2    76  HIS76       0.2264
      4  O        -18.4390  -40.8750  -56.9980 O.2    76  HIS76      -0.2867
      5  CB       -18.2400  -43.2070  -54.7050 C.3    76  HIS76       0.0745
      6  CG       -18.5870  -43.4430  -53.2710 C.ar   76  HIS76       0.0817
      7  ND1      -17.6340  -43.4780  -52.2770 N.ar   76  HIS76      -0.2268
      8  CD2      -19.7750  -43.6620  -52.6620 C.ar   76  HIS76       0.1154
      9  CE1      -18.2200  -43.7070  -51.1170 C.ar   76  HIS76       0.1986
     10  NE2      -19.5180  -43.8290  -51.3240 N.ar   76  HIS76      -0.2212
     11  N        -13.0770  -55.9310  -51.5840 N.3   190  PHE190     -0.1241
     12  CA       -13.3890  -54.8210  -50.6870 C.3   190  PHE190      0.1605
     13  C        -12.7340  -54.9680  -49.3140 C.2   190  PHE190      0.2264
     14  O        -11.8970  -54.1470  -48.9280 O.2   190  PHE190     -0.2867
     15  CB       -14.9080  -54.6830  -50.5260 C.3   190  PHE190      0.0534
     16  CG       -15.5800  -53.9680  -51.6610 C.ar  190  PHE190     -0.0203
     17  CD1      -15.5040  -52.5910  -51.7700 C.ar  190  PHE190     -0.0042
     18  CD2      -16.3030  -54.6700  -52.6090 C.ar  190  PHE190     -0.0042
     19  CE1      -16.1270  -51.9290  -52.8110 C.ar  190  PHE190     -0.0003
     20  CE2      -16.9280  -54.0140  -53.6520 C.ar  190  PHE190     -0.0003
     21  CZ       -16.8400  -52.6420  -53.7530 C.ar  190  PHE190     -0.0000
     22  N         -9.1930  -53.8480  -45.5130 N.3   193  VAL193     -0.1245
     23  CA        -9.0540  -52.5220  -44.9200 C.3   193  VAL193      0.1561
     24  C         -7.5890  -52.1980  -44.6600 C.2   193  VAL193      0.2260
     25  O         -7.1830  -51.0330  -44.7390 O.2   193  VAL193     -0.2867
     26  CB        -9.9070  -52.4080  -43.6410 C.3   193  VAL193      0.0252
     27  CG1      -11.2420  -53.1170  -43.8270 C.3   193  VAL193      0.0019
     28  CG2       -9.1680  -52.9540  -42.4340 C.3   193  VAL193      0.0019
     29  N         -6.4930  -51.3800  -48.1880 N.3   196  MET196     -0.1230
     30  CA        -7.0960  -50.1170  -48.6040 C.3   196  MET196      0.1702
     31  C         -6.4520  -48.9390  -47.8890 C.2   196  MET196      0.2592
     32  O         -6.2530  -47.8800  -48.4910 O.2   196  MET196     -0.2718
     33  CB        -8.6040  -50.1220  -48.3570 C.3   196  MET196      0.0401
     34  CG        -9.3090  -48.9300  -49.0040 C.3   196  MET196      0.0596
     35  SD       -11.0700  -48.7800  -48.6420 S.3   196  MET196     -0.1393
     36  CE       -11.6750  -50.3660  -49.2070 C.3   196  MET196      0.0692
     37  N         -6.1160  -49.1000  -46.6070 N.am  197  MET197     -0.1979
     38  CA        -5.4490  -48.0180  -45.8920 C.3   197  MET197      0.1605
     39  C         -4.0470  -47.7870  -46.4370 C.2   197  MET197      0.2287
     40  O         -3.6240  -46.6360  -46.6060 O.2   197  MET197     -0.2864
     41  CB        -5.4040  -48.3190  -44.3960 C.3   197  MET197      0.0413
     42  CG        -4.9630  -47.1330  -43.5590 C.3   197  MET197      0.0598
     43  SD        -6.0190  -45.6960  -43.8110 S.3   197  MET197     -0.1393
     44  CE        -7.5830  -46.3330  -43.2240 C.3   197  MET197      0.0692
     45  N         -4.5810  -45.9150  -49.7230 N.3   200  HIS200     -0.1226
     46  CA        -5.1000  -44.5660  -49.5430 C.3   200  HIS200      0.1752
     47  C         -4.1080  -43.6400  -48.8570 C.2   200  HIS200      0.2595
     48  O         -4.2320  -42.4170  -48.9900 O.2   200  HIS200     -0.2718
     49  CB        -6.4050  -44.6040  -48.7430 C.3   200  HIS200      0.0759
     50  CG        -7.6060  -44.9640  -49.5620 C.ar  200  HIS200      0.0818
     51  ND1       -8.8050  -45.3420  -48.9970 N.ar  200  HIS200     -0.2268
     52  CD2       -7.7950  -44.9960  -50.9020 C.ar  200  HIS200      0.1154
     53  CE1       -9.6800  -45.5950  -49.9540 C.ar  200  HIS200      0.1986
     54  NE2       -9.0920  -45.3930  -51.1200 N.ar  200  HIS200     -0.2212
     55  N         -3.1360  -44.1840  -48.1270 N.am  201  LEU201     -0.1980
     56  CA        -2.1100  -43.3440  -47.5220 C.3   201  LEU201      0.1596
     57  C         -0.9140  -43.1470  -48.4480 C.2   201  LEU201      0.2287
     58  O         -0.4850  -42.0110  -48.6770 O.2   201  LEU201     -0.2864
     59  CB        -1.6550  -43.9460  -46.1890 C.3   201  LEU201      0.0297
     60  CG        -2.6690  -43.9260  -45.0440 C.3   201  LEU201      0.0022
     61  CD1       -2.0910  -44.5920  -43.8050 C.3   201  LEU201      0.0001
     62  CD2       -3.0980  -42.5010  -44.7400 C.3   201  LEU201      0.0001
     63  N         -2.7020  -42.0270  -52.5130 N.3   204  LEU204     -0.1231
     64  CA        -3.6230  -40.9070  -52.6750 C.3   204  LEU204      0.1693
     65  C         -3.0930  -39.6440  -52.0030 C.2   204  LEU204      0.2591
     66  O         -2.8200  -38.6400  -52.6700 O.2   204  LEU204     -0.2718
     67  CB        -5.0000  -41.2790  -52.1190 C.3   204  LEU204      0.0284
     68  CG        -6.1370  -40.3060  -52.4370 C.3   204  LEU204      0.0019
     69  CD1       -6.2830  -40.1310  -53.9400 C.3   204  LEU204      0.0001
     70  CD2       -7.4420  -40.7870  -51.8210 C.3   204  LEU204      0.0001
     71  N         -2.9370  -39.6790  -50.6790 N.am  205  LEU205     -0.1980
     72  CA        -2.5440  -38.4870  -49.9400 C.3   205  LEU205      0.1596
     73  C         -1.0450  -38.2220  -49.9840 C.2   205  LEU205      0.2287
     74  O         -0.6220  -37.0930  -49.7140 O.2   205  LEU205     -0.2864
     75  CB        -3.0090  -38.5970  -48.4860 C.3   205  LEU205      0.0297
     76  CG        -4.5210  -38.5510  -48.2630 C.3   205  LEU205      0.0022
     77  CD1       -4.8500  -38.5990  -46.7790 C.3   205  LEU205      0.0001
     78  CD2       -5.1160  -37.3090  -48.9090 C.3   205  LEU205      0.0001
     79  N         -5.1420  -54.7460  -38.4680 N.3   321  MET321     -0.1245
     80  CA        -5.8920  -53.9650  -37.4900 C.3   321  MET321      0.1570
     81  C         -6.6800  -54.8610  -36.5470 C.2   321  MET321      0.2261
     82  O         -6.9300  -54.4850  -35.3960 O.2   321  MET321     -0.2867
     83  CB        -6.8210  -52.9890  -38.2090 C.3   321  MET321      0.0387
     84  CG        -6.1580  -52.2870  -39.3800 C.3   321  MET321      0.0595
     85  SD        -7.1390  -50.9540  -40.0880 S.3   321  MET321     -0.1393
     86  CE        -7.2850  -49.8560  -38.6800 C.3   321  MET321      0.0692
     87  N         -6.5810  -54.3420  -32.5200 N.3   325  LEU325     -0.1245
     88  CA        -7.7970  -54.1570  -31.7360 C.3   325  LEU325      0.1561
     89  C         -7.9570  -55.2560  -30.6930 C.2   325  LEU325      0.2260
     90  O         -8.3110  -54.9750  -29.5410 O.2   325  LEU325     -0.2867
     91  CB        -9.0130  -54.1030  -32.6590 C.3   325  LEU325      0.0270
     92  CG        -9.0420  -52.9270  -33.6390 C.3   325  LEU325      0.0019
     93  CD1      -10.3110  -52.9530  -34.4740 C.3   325  LEU325      0.0001
     94  CD2       -8.8970  -51.6000  -32.9060 C.3   325  LEU325      0.0001
     95  N        -14.3330  -54.9280  -32.9630 N.3   340  LEU340     -0.1231
     96  CA       -14.4980  -53.6470  -33.6430 C.3   340  LEU340      0.1693
     97  C        -14.0800  -53.7290  -35.1070 C.2   340  LEU340      0.2592
     98  O        -14.6860  -53.0760  -35.9650 O.2   340  LEU340     -0.2718
     99  CB       -13.7010  -52.5600  -32.9200 C.3   340  LEU340      0.0284
    100  CG       -14.3890  -51.8210  -31.7680 C.3   340  LEU340      0.0019
    101  CD1      -14.8420  -52.7720  -30.6680 C.3   340  LEU340      0.0001
    102  CD2      -13.4640  -50.7550  -31.2040 C.3   340  LEU340      0.0001
    103  N        -13.0410  -54.5130  -35.4060 N.am  341  TYR341     -0.1976
    104  CA       -12.6680  -54.7470  -36.7970 C.3   341  TYR341      0.1639
    105  C        -13.8320  -55.3520  -37.5670 C.2   341  TYR341      0.2290
    106  O        -14.1460  -54.9260  -38.6840 O.2   341  TYR341     -0.2864
    107  CB       -11.4400  -55.6570  -36.8650 C.3   341  TYR341      0.0560
    108  CG       -10.9770  -55.9760  -38.2720 C.ar  341  TYR341     -0.0198
    109  CD1      -10.0240  -55.1910  -38.9040 C.ar  341  TYR341     -0.0009
    110  CD2      -11.4880  -57.0680  -38.9650 C.ar  341  TYR341     -0.0009
    111  CE1       -9.5960  -55.4800  -40.1860 C.ar  341  TYR341      0.0417
    112  CE2      -11.0680  -57.3610  -40.2500 C.ar  341  TYR341      0.0417
    113  CZ       -10.1220  -56.5640  -40.8550 C.ar  341  TYR341      0.1957
    114  OH        -9.6990  -56.8520  -42.1330 O.3   341  TYR341     -0.2866
    115  N        -16.5280  -52.6770  -38.1990 N.3   344  LEU344     -0.1231
    116  CA       -16.2230  -51.7100  -39.2430 C.3   344  LEU344      0.1693
    117  C        -15.8820  -52.3530  -40.5810 C.2   344  LEU344      0.2592
    118  O        -15.6490  -51.6280  -41.5540 O.2   344  LEU344     -0.2718
    119  CB       -15.0740  -50.8050  -38.7910 C.3   344  LEU344      0.0284
    120  CG       -15.3890  -49.9580  -37.5590 C.3   344  LEU344      0.0019
    121  CD1      -14.1970  -49.1090  -37.1630 C.3   344  LEU344      0.0001
    122  CD2      -16.6030  -49.0870  -37.8210 C.3   344  LEU344      0.0001
    123  N        -15.8470  -53.6810  -40.6610 N.am  345  THR345     -0.1953
    124  CA       -15.6390  -54.3670  -41.9290 C.3   345  THR345      0.1897
    125  C        -16.9310  -54.9310  -42.5050 C.2   345  THR345      0.2313
    126  O        -16.9090  -55.4990  -43.6010 O.2   345  THR345     -0.2863
    127  CB       -14.6110  -55.4940  -41.7710 C.3   345  THR345      0.1794
    128  OG1      -14.0880  -55.8490  -43.0560 O.3   345  THR345     -0.2208
    129  CG2      -15.2550  -56.7190  -41.1520 C.3   345  THR345      0.0378
    130  N        -21.6660  -50.6620  -43.0840 N.3   348  TRP348     -0.1241
    131  CA       -21.3110  -49.4250  -43.7710 C.3   348  TRP348      0.1605
    132  C        -21.6810  -48.2080  -42.9340 C.2   348  TRP348      0.2264
    133  O        -20.9790  -47.1910  -42.9630 O.2   348  TRP348     -0.2867
    134  CB       -22.0040  -49.3530  -45.1290 C.3   348  TRP348      0.0550
    135  CG       -21.2990  -50.0940  -46.2180 C.ar  348  TRP348      0.0003
    136  CD1      -21.4380  -51.4130  -46.5370 C.ar  348  TRP348      0.0946
    137  CD2      -20.3550  -49.5520  -47.1480 C.ar  348  TRP348      0.0152
    138  NE1      -20.6320  -51.7290  -47.6050 N.ar  348  TRP348     -0.2442
    139  CE2      -19.9570  -50.6030  -47.9990 C.ar  348  TRP348      0.0810
    140  CE3      -19.8050  -48.2820  -47.3430 C.ar  348  TRP348      0.0012
    141  CZ2      -19.0340  -50.4220  -49.0260 C.ar  348  TRP348      0.0191
    142  CZ3      -18.8880  -48.1040  -48.3640 C.ar  348  TRP348      0.0001
    143  CH2      -18.5120  -49.1690  -49.1930 C.ar  348  TRP348      0.0015
    144  N        -19.0310  -47.3620  -40.4740 N.3   351  GLN351     -0.1245
    145  CA       -17.9210  -46.6430  -41.0930 C.3   351  GLN351      0.1566
    146  C        -18.2900  -45.1950  -41.3820 C.2   351  GLN351      0.2260
    147  O        -17.4720  -44.2850  -41.1890 O.2   351  GLN351     -0.2867
    148  CB       -17.4970  -47.3500  -42.3820 C.3   351  GLN351      0.0367
    149  CG       -16.6450  -48.5880  -42.1730 C.3   351  GLN351      0.0905
    150  CD       -15.1750  -48.2590  -42.0070 C.2   351  GLN351      0.2608
    151  OE1      -14.7530  -47.1230  -42.2260 O.2   351  GLN351     -0.2717
    152  NE2      -14.3850  -49.2550  -41.6230 N.am  351  GLN351     -0.0878
    153  N        -18.1150  -42.6790  -38.5770 N.3   354  ILE354     -0.1231
    154  CA       -16.7740  -42.1970  -38.2610 C.3   354  ILE354      0.1692
    155  C        -16.2830  -41.2250  -39.3220 C.2   354  ILE354      0.2592
    156  O        -15.7330  -40.1620  -39.0100 O.2   354  ILE354     -0.2718
    157  CB       -15.8070  -43.3900  -38.1120 C.3   354  ILE354      0.0266
    158  CG1      -16.3950  -44.4470  -37.1770 C.3   354  ILE354      0.0019
    159  CG2      -14.4530  -42.9210  -37.6040 C.3   354  ILE354      0.0020
    160  CD1      -15.5470  -45.6910  -37.0650 C.3   354  ILE354      0.0001
    161  N        -16.4840  -41.5900  -40.5900 N.am  355  ASN355     -0.1974
    162  CA       -15.9820  -40.7740  -41.6880 C.3   355  ASN355      0.1688
    163  C        -16.6490  -39.4060  -41.7130 C.2   355  ASN355      0.2292
    164  O        -15.9810  -38.3930  -41.9340 O.2   355  ASN355     -0.2864
    165  CB       -16.1860  -41.5020  -43.0150 C.3   355  ASN355      0.1181
    166  CG       -15.5200  -42.8620  -43.0390 C.2   355  ASN355      0.2629
    167  OD1      -14.6010  -43.1300  -42.2650 O.2   355  ASN355     -0.2716
    168  ND2      -15.9830  -43.7310  -43.9290 N.am  355  ASN355     -0.0877
    169  N        -15.2940  -37.2380  -38.7400 N.3   358  LEU358     -0.1231
    170  CA       -13.9330  -36.7590  -38.9550 C.3   358  LEU358      0.1693
    171  C        -13.8670  -35.7620  -40.1050 C.2   358  LEU358      0.2591
    172  O        -13.1270  -34.7750  -40.0310 O.2   358  LEU358     -0.2718
    173  CB       -12.9900  -37.9380  -39.1960 C.3   358  LEU358      0.0284
    174  CG       -12.3720  -38.5520  -37.9350 C.3   358  LEU358      0.0019
    175  CD1      -11.5580  -37.5120  -37.1790 C.3   358  LEU358      0.0001
    176  CD2      -13.4360  -39.1550  -37.0280 C.3   358  LEU358      0.0001
    177  N        -14.6540  -35.9780  -41.1620 N.am  359  LEU359     -0.1980
    178  CA       -14.6370  -35.0610  -42.2950 C.3   359  LEU359      0.1596
    179  C        -15.2210  -33.7050  -41.9200 C.2   359  LEU359      0.2287
    180  O        -14.6970  -32.6650  -42.3320 O.2   359  LEU359     -0.2864
    181  CB       -15.3970  -35.6760  -43.4700 C.3   359  LEU359      0.0297
    182  CG       -15.3770  -34.9030  -44.7870 C.3   359  LEU359      0.0022
    183  CD1      -13.9570  -34.5190  -45.1540 C.3   359  LEU359      0.0001
    184  CD2      -16.0030  -35.7350  -45.8920 C.3   359  LEU359      0.0001
    185  N        -12.7000  -31.9410  -39.7450 N.3   362  LEU362     -0.1245
    186  CA       -11.5810  -31.4640  -40.5460 C.3   362  LEU362      0.1561
    187  C        -11.9750  -30.2830  -41.4230 C.2   362  LEU362      0.2260
    188  O        -11.1410  -29.4190  -41.6940 O.2   362  LEU362     -0.2867
    189  CB       -11.0190  -32.6050  -41.3950 C.3   362  LEU362      0.0270
    190  CG        -9.6240  -32.4060  -41.9930 C.3   362  LEU362      0.0019
    191  CD1       -8.8680  -33.7250  -42.0140 C.3   362  LEU362      0.0001
    192  CD2       -9.7040  -31.8150  -43.3950 C.3   362  LEU362      0.0001
@<TRIPOS>BOND
     1     4     3    2
     2     3     2    1
     3     1     2    1
     4     2     5    1
     5     5     6    1
     6    69    68    1
     7    21    20   ar
     8    21    19   ar
     9    20    18   ar
    10     6     8   ar
    11     6     7   ar
    12    19    17   ar
    13    64    63    1
    14    64    67    1
    15    64    65    1
    16    66    65    2
    17     8    10   ar
    18    18    16   ar
    19    68    67    1
    20    68    70    1
    21     7     9   ar
    22    65    71   am
    23    17    16   ar
    24    16    15    1
    25    11    12    1
    26    10     9   ar
    27    54    52   ar
    28    54    53   ar
    29    52    50   ar
    30    12    15    1
    31    12    13    1
    32    71    72    1
    33    73    72    1
    34    73    74    2
    35    53    51   ar
    36    72    75    1
    37    45    46    1
    38    50    51   ar
    39    50    49    1
    40    46    47    1
    41    46    49    1
    42    13    14    2
    43    36    35    1
    44   143   141   ar
    45   143   142   ar
    46   141   139   ar
    47    34    35    1
    48    34    33    1
    49    48    47    2
    50    78    76    1
    51    47    55   am
    52    58    57    2
    53    30    33    1
    54    30    29    1
    55    30    31    1
    56    32    31    2
    57    75    76    1
    58    57    56    1
    59   142   140   ar
    60    76    77    1
    61    55    56    1
    62   139   138   ar
    63   139   137   ar
    64    31    37   am
    65   138   136   ar
    66    56    59    1
    67   140   137   ar
    68   137   135   ar
    69    37    38    1
    70    40    39    2
    71   136   135   ar
    72    39    38    1
    73   135   134    1
    74    59    60    1
    75   184   182    1
    76    38    41    1
    77    22    23    1
    78   183   182    1
    79   134   131    1
    80    60    62    1
    81    60    61    1
    82    23    24    1
    83    23    26    1
    84   182   181    1
    85    25    24    2
    86    41    42    1
    87   168   166   am
    88    27    26    1
    89    43    42    1
    90    43    44    1
    91   131   130    1
    92   131   132    1
    93    26    28    1
    94   126   125    2
    95   181   178    1
    96   192   190    1
    97   128   127    1
    98   166   165    1
    99   166   167    2
   100   165   162    1
   101   133   132    2
   102   125   124    1
   103   148   149    1
   104   148   145    1
   105   180   179    2
   106   178   179    1
   107   178   177    1
   108   151   150    2
   109   149   150    1
   110   114   113    1
   111   191   190    1
   112   150   152   am
   113   190   189    1
   114   164   163    2
   115   124   127    1
   116   124   123    1
   117   127   129    1
   118   163   162    1
   119   188   187    2
   120   162   161    1
   121   118   117    2
   122   187   186    1
   123   189   186    1
   124   146   147    2
   125   146   145    1
   126   177   171   am
   127   145   144    1
   128   113   112   ar
   129   113   111   ar
   130   123   117   am
   131   161   155   am
   132   117   116    1
   133   186   185    1
   134   112   110   ar
   135   111   109   ar
   136   171   172    2
   137   171   170    1
   138    85    84    1
   139    85    86    1
   140    84    83    1
   141   155   156    2
   142   155   154    1
   143   116   119    1
   144   116   115    1
   145   173   170    1
   146   173   174    1
   147   110   108   ar
   148   170   169    1
   149   109   108   ar
   150   119   120    1
   151   106   105    2
   152   153   154    1
   153    79    80    1
   154   108   107    1
   155   154   157    1
   156    83    80    1
   157   157   159    1
   158   157   158    1
   159   174   175    1
   160   174   176    1
   161   122   120    1
   162   105   104    1
   163   120   121    1
   164    80    81    1
   165   158   160    1
   166   107   104    1
   167   104   103    1
   168    81    82    2
   169    98    97    2
   170   103    97   am
   171    97    96    1
   172    93    92    1
   173    96    95    1
   174    96    99    1
   175    92    94    1
   176    92    91    1
   177    99   100    1
   178    91    88    1
   179    87    88    1
   180   100   102    1
   181   100   101    1
   182    88    89    1
   183    89    90    2
