@<TRIPOS>MOLECULE
tmp/6hqbB12.pdb
 138 138 0 0 0
SMALL
GASTEIGER

@<TRIPOS>ATOM
      1  N        -88.2840   21.3090  -19.6330 N.3   225  PHE225     -0.1241
      2  CA       -88.3500   19.9340  -20.1150 C.3   225  PHE225      0.1605
      3  C        -89.7910   19.5270  -20.3840 C.2   225  PHE225      0.2264
      4  O        -90.0750   18.8290  -21.3650 O.2   225  PHE225     -0.2867
      5  CB       -87.7020   18.9820  -19.1090 C.3   225  PHE225      0.0534
      6  CG       -88.1060   17.5450  -19.2880 C.ar  225  PHE225     -0.0203
      7  CD1      -87.5640   16.7800  -20.3080 C.ar  225  PHE225     -0.0042
      8  CD2      -89.0270   16.9580  -18.4340 C.ar  225  PHE225     -0.0042
      9  CE1      -87.9350   15.4580  -20.4750 C.ar  225  PHE225     -0.0003
     10  CE2      -89.4020   15.6370  -18.5970 C.ar  225  PHE225     -0.0003
     11  CZ       -88.8550   14.8860  -19.6180 C.ar  225  PHE225     -0.0000
     12  N        -88.3810   22.2680  -27.0050 N.3   230  TRP230     -0.1227
     13  CA       -87.1140   21.8290  -26.4420 C.3   230  TRP230      0.1737
     14  C        -85.9200   22.5950  -26.9880 C.2   230  TRP230      0.2596
     15  O        -84.7890   22.3240  -26.5690 O.2   230  TRP230     -0.2718
     16  CB       -86.9120   20.3290  -26.6890 C.3   230  TRP230      0.0564
     17  CG       -87.6470   19.4580  -25.7190 C.ar  230  TRP230      0.0003
     18  CD1      -88.1750   19.8330  -24.5180 C.ar  230  TRP230      0.0946
     19  CD2      -87.9390   18.0630  -25.8690 C.ar  230  TRP230      0.0152
     20  NE1      -88.7760   18.7570  -23.9080 N.ar  230  TRP230     -0.2442
     21  CE2      -88.6450   17.6590  -24.7180 C.ar  230  TRP230      0.0810
     22  CE3      -87.6720   17.1170  -26.8630 C.ar  230  TRP230      0.0012
     23  CZ2      -89.0870   16.3480  -24.5340 C.ar  230  TRP230      0.0191
     24  CZ3      -88.1120   15.8170  -26.6790 C.ar  230  TRP230      0.0001
     25  CH2      -88.8110   15.4450  -25.5240 C.ar  230  TRP230      0.0015
     26  N        -86.1330   23.5410  -27.9040 N.am  231  GLY231     -0.1957
     27  CA       -85.0270   24.3010  -28.4570 C.3   231  GLY231      0.1869
     28  C        -84.2620   25.1060  -27.4290 C.2   231  GLY231      0.2309
     29  O        -83.1130   25.4830  -27.6800 O.2   231  GLY231     -0.2863
     30  N        -82.9100   24.1280  -24.8110 N.3   233  TYR233     -0.1227
     31  CA       -81.7210   23.4090  -24.3780 C.3   233  TYR233      0.1736
     32  C        -80.6520   23.3470  -25.4570 C.2   233  TYR233      0.2595
     33  O        -79.4710   23.1750  -25.1320 O.2   233  TYR233     -0.2718
     34  CB       -82.0970   22.0000  -23.9140 C.3   233  TYR233      0.0548
     35  CG       -82.9520   22.0150  -22.6670 C.ar  233  TYR233     -0.0200
     36  CD1      -82.3840   22.2370  -21.4180 C.ar  233  TYR233     -0.0009
     37  CD2      -84.3270   21.8280  -22.7380 C.ar  233  TYR233     -0.0009
     38  CE1      -83.1600   22.2620  -20.2730 C.ar  233  TYR233      0.0417
     39  CE2      -85.1120   21.8500  -21.5980 C.ar  233  TYR233      0.0417
     40  CZ       -84.5230   22.0680  -20.3690 C.ar  233  TYR233      0.1957
     41  OH       -85.2980   22.0910  -19.2320 O.3   233  TYR233     -0.2866
     42  N        -81.0360   23.4810  -26.7290 N.am  234  ALA234     -0.1980
     43  CA       -80.0510   23.8050  -27.7540 C.3   234  ALA234      0.1597
     44  C        -79.4490   25.1780  -27.4910 C.2   234  ALA234      0.2287
     45  O        -78.2400   25.3760  -27.6590 O.2   234  ALA234     -0.2864
     46  CB       -80.6910   23.7470  -29.1410 C.3   234  ALA234      0.0319
     47  N        -77.8140   19.9440  -24.2180 N.3   255  LEU255     -0.1231
     48  CA       -78.2220   18.8830  -25.1410 C.3   255  LEU255      0.1693
     49  C        -78.2400   19.4620  -26.5510 C.2   255  LEU255      0.2593
     50  O        -79.2410   20.0420  -26.9810 O.2   255  LEU255     -0.2718
     51  CB       -79.5800   18.3110  -24.7510 C.3   255  LEU255      0.0284
     52  CG       -79.6620   17.6440  -23.3790 C.3   255  LEU255      0.0019
     53  CD1      -81.0640   17.1110  -23.1260 C.3   255  LEU255      0.0001
     54  CD2      -78.6320   16.5320  -23.2670 C.3   255  LEU255      0.0001
     55  N        -77.1360   19.2990  -27.2690 N.am  256  THR256     -0.1939
     56  CA       -76.9950   19.8060  -28.6250 C.3   256  THR256      0.2028
     57  C        -76.8080   18.6450  -29.5940 C.2   256  THR256      0.2642
     58  O        -76.8490   17.4710  -29.2180 O.2   256  THR256     -0.2714
     59  CB       -75.8190   20.7820  -28.7350 C.3   256  THR256      0.1808
     60  OG1      -74.5850   20.0680  -28.5830 O.3   256  THR256     -0.2208
     61  CG2      -75.9140   21.8530  -27.6670 C.3   256  THR256      0.0379
     62  N        -76.5980   19.0000  -30.8600 N.am  257  PHE257     -0.1973
     63  CA       -76.3000   18.0300  -31.9040 C.3   257  PHE257      0.1639
     64  C        -75.6530   18.7430  -33.0830 C.2   257  PHE257      0.2290
     65  O        -76.0820   18.5740  -34.2280 O.2   257  PHE257     -0.2864
     66  CB       -77.5700   17.2980  -32.3450 C.3   257  PHE257      0.0560
     67  CG       -77.3140   15.9430  -32.9450 C.ar  257  PHE257     -0.0200
     68  CD1      -76.0200   15.5090  -33.1950 C.ar  257  PHE257     -0.0042
     69  CD2      -78.3690   15.1020  -33.2600 C.ar  257  PHE257     -0.0042
     70  CE1      -75.7840   14.2640  -33.7440 C.ar  257  PHE257     -0.0003
     71  CE2      -78.1410   13.8560  -33.8120 C.ar  257  PHE257     -0.0003
     72  CZ       -76.8460   13.4360  -34.0530 C.ar  257  PHE257     -0.0000
     73  N        -76.4170   14.0450  -25.0040 N.3   275  HIS275     -0.1241
     74  CA       -77.6130   13.8530  -25.8190 C.3   275  HIS275      0.1621
     75  C        -77.6470   12.4510  -26.4210 C.2   275  HIS275      0.2264
     76  O        -78.7100   11.8180  -26.4920 O.2   275  HIS275     -0.2867
     77  CB       -77.6510   14.9270  -26.9090 C.3   275  HIS275      0.0745
     78  CG       -78.8760   14.8900  -27.7680 C.ar  275  HIS275      0.0817
     79  ND1      -78.9740   15.5980  -28.9460 N.ar  275  HIS275     -0.2268
     80  CD2      -80.0540   14.2410  -27.6190 C.ar  275  HIS275      0.1154
     81  CE1      -80.1580   15.3800  -29.4900 C.ar  275  HIS275      0.1986
     82  NE2      -80.8320   14.5590  -28.7060 N.ar  275  HIS275     -0.2212
     83  N        -78.6350   10.0290  -23.7290 N.3   278  LEU278     -0.1231
     84  CA       -80.0640   10.1630  -23.4550 C.3   278  LEU278      0.1693
     85  C        -80.9000    9.4450  -24.5120 C.2   278  LEU278      0.2591
     86  O        -81.8280    8.6880  -24.1870 O.2   278  LEU278     -0.2718
     87  CB       -80.4330   11.6450  -23.3800 C.3   278  LEU278      0.0284
     88  CG       -81.9110   12.0110  -23.2530 C.3   278  LEU278      0.0019
     89  CD1      -82.5360   11.3100  -22.0640 C.3   278  LEU278      0.0001
     90  CD2      -82.0610   13.5170  -23.1280 C.3   278  LEU278      0.0001
     91  N        -80.5820    9.6750  -25.7890 N.am  279  ALA279     -0.1980
     92  CA       -81.3190    9.0270  -26.8690 C.3   279  ALA279      0.1597
     93  C        -81.2100    7.5100  -26.7780 C.2   279  ALA279      0.2287
     94  O        -82.2210    6.7950  -26.8170 O.2   279  ALA279     -0.2864
     95  CB       -80.8060    9.5250  -28.2210 C.3   279  ALA279      0.0319
     96  N        -83.2330    6.0680  -23.8870 N.3   282  VAL282     -0.1231
     97  CA       -84.6320    5.8960  -24.2750 C.3   282  VAL282      0.1692
     98  C        -84.7940    4.6480  -25.1350 C.2   282  VAL282      0.2591
     99  O        -85.7220    3.8510  -24.9380 O.2   282  VAL282     -0.2718
    100  CB       -85.1490    7.1520  -25.0010 C.3   282  VAL282      0.0266
    101  CG1      -86.5630    6.9240  -25.5170 C.3   282  VAL282      0.0020
    102  CG2      -85.1080    8.3580  -24.0770 C.3   282  VAL282      0.0020
    103  N        -83.8780    4.4490  -26.0860 N.am  283  ILE283     -0.1980
    104  CA       -83.9770    3.3080  -26.9950 C.3   283  ILE283      0.1595
    105  C        -83.8620    1.9890  -26.2320 C.2   283  ILE283      0.2287
    106  O        -84.6380    1.0520  -26.4590 O.2   283  ILE283     -0.2864
    107  CB       -82.9140    3.4210  -28.1040 C.3   283  ILE283      0.0276
    108  CG1      -83.1170    4.7040  -28.9080 C.3   283  ILE283      0.0022
    109  CG2      -82.9860    2.2370  -29.0360 C.3   283  ILE283      0.0022
    110  CD1      -82.1220    4.8820  -30.0320 C.3   283  ILE283      0.0001
    111  N        -81.5600   20.4580  -43.1520 N.3   487  GLY487     -0.1210
    112  CA       -81.4990   21.2430  -41.9360 C.3   487  GLY487      0.1956
    113  C        -80.8890   20.5070  -40.7690 C.2   487  GLY487      0.2612
    114  O        -81.1790   20.8350  -39.6160 O.2   487  GLY487     -0.2717
    115  N        -80.0540   19.5070  -41.0390 N.am  488  ALA488     -0.1965
    116  CA       -79.4520   18.7210  -39.9730 C.3   488  ALA488      0.1728
    117  C        -78.4870   19.5780  -39.1670 C.2   488  ALA488      0.2616
    118  O        -77.6210   20.2550  -39.7300 O.2   488  ALA488     -0.2715
    119  CB       -78.7280   17.5080  -40.5540 C.3   488  ALA488      0.0334
    120  N        -78.6380   19.5460  -37.8430 N.am  489  ALA489     -0.1963
    121  CA       -77.7890   20.3640  -36.9850 C.3   489  ALA489      0.1728
    122  C        -76.3530   19.8560  -36.9560 C.2   489  ALA489      0.2616
    123  O        -75.4260   20.6410  -36.7270 O.2   489  ALA489     -0.2715
    124  CB       -78.3650   20.4130  -35.5700 C.3   489  ALA489      0.0334
    125  N        -76.1460   18.5570  -37.1870 N.am  490  TRP490     -0.1974
    126  CA       -74.8110   17.9800  -37.0840 C.3   490  TRP490      0.1640
    127  C        -73.9930   18.1350  -38.3600 C.2   490  TRP490      0.2290
    128  O        -72.7640   18.0200  -38.3060 O.2   490  TRP490     -0.2864
    129  CB       -74.9060   16.4980  -36.7080 C.3   490  TRP490      0.0576
    130  CG       -75.6350   15.6540  -37.7120 C.ar  490  TRP490      0.0006
    131  CD1      -75.0990   15.0260  -38.7990 C.ar  490  TRP490      0.0946
    132  CD2      -77.0340   15.3400  -37.7170 C.ar  490  TRP490      0.0152
    133  NE1      -76.0770   14.3450  -39.4830 N.ar  490  TRP490     -0.2442
    134  CE2      -77.2740   14.5220  -38.8390 C.ar  490  TRP490      0.0810
    135  CE3      -78.1070   15.6740  -36.8840 C.ar  490  TRP490      0.0012
    136  CZ2      -78.5420   14.0320  -39.1490 C.ar  490  TRP490      0.0191
    137  CZ3      -79.3650   15.1860  -37.1930 C.ar  490  TRP490      0.0001
    138  CH2      -79.5720   14.3740  -38.3160 C.ar  490  TRP490      0.0015
@<TRIPOS>BOND
     1   111   112    1
     2   112   113    1
     3   115   113   am
     4   115   116    1
     5   113   114    2
     6   119   116    1
     7   116   117    1
     8   118   117    2
     9   133   134   ar
    10   133   131   ar
    11   117   120   am
    12   136   134   ar
    13   136   138   ar
    14   134   132   ar
    15   131   130   ar
    16   127   128    2
    17   127   126    1
    18   138   137   ar
    19   120   121    1
    20   132   130   ar
    21   132   135   ar
    22   130   129    1
    23   137   135   ar
    24   125   126    1
    25   125   122   am
    26   126   129    1
    27   121   122    1
    28   121   124    1
    29   122   123    2
    30    65    64    2
    31    72    71   ar
    32    72    70   ar
    33    71    69   ar
    34    70    68   ar
    35    69    67   ar
    36    68    67   ar
    37    64    63    1
    38    67    66    1
    39    66    63    1
    40    63    62    1
    41    62    57   am
    42   110   108    1
    43    57    58    2
    44    57    56    1
    45    81    79   ar
    46    81    82   ar
    47    46    43    1
    48   109   107    1
    49    79    78   ar
    50   108   107    1
    51    59    56    1
    52    59    60    1
    53    59    61    1
    54    82    80   ar
    55    56    55    1
    56    27    26    1
    57    27    28    1
    58    95    92    1
    59   107   104    1
    60    26    14   am
    61    78    80   ar
    62    78    77    1
    63    43    44    1
    64    43    42    1
    65    29    28    2
    66    45    44    2
    67    55    49   am
    68    12    13    1
    69   104   105    1
    70   104   103    1
    71    14    15    2
    72    14    13    1
    73    50    49    2
    74    77    74    1
    75    92    93    1
    76    92    91    1
    77    22    24   ar
    78    22    19   ar
    79    94    93    2
    80    42    32   am
    81    16    13    1
    82    16    17    1
    83    24    25   ar
    84    49    48    1
    85    76    75    2
    86   106   105    2
    87    75    74    1
    88   103    98   am
    89    19    17   ar
    90    19    21   ar
    91    74    73    1
    92    91    85   am
    93    17    18   ar
    94    25    23   ar
    95   101   100    1
    96    32    33    2
    97    32    31    1
    98    48    51    1
    99    48    47    1
   100    98    99    2
   101    98    97    1
   102   100    97    1
   103   100   102    1
   104    30    31    1
   105    51    52    1
   106    21    23   ar
   107    21    20   ar
   108    18    20   ar
   109    85    86    2
   110    85    84    1
   111    31    34    1
   112    97    96    1
   113    34    35    1
   114    83    84    1
   115    84    87    1
   116    87    88    1
   117    52    54    1
   118    52    53    1
   119    88    90    1
   120    88    89    1
   121    37    35   ar
   122    37    39   ar
   123    35    36   ar
   124    39    40   ar
   125    36    38   ar
   126     4     3    2
   127     9     7   ar
   128     9    11   ar
   129     3     2    1
   130    40    38   ar
   131    40    41    1
   132     7     6   ar
   133     2     1    1
   134     2     5    1
   135    11    10   ar
   136     6     5    1
   137     6     8   ar
   138    10     8   ar
