@<TRIPOS>MOLECULE
tmp/6hqbA52.pdb
 175 171 0 0 0
SMALL
GASTEIGER

@<TRIPOS>ATOM
      1  N        -32.1560  -43.6950  -51.7440 N.3    56  HIS56      -0.1226
      2  CA       -30.7770  -44.1180  -51.5470 C.3    56  HIS56       0.1752
      3  C        -30.6050  -45.0960  -50.3910 C.2    56  HIS56       0.2596
      4  O        -29.4960  -45.6010  -50.1920 O.2    56  HIS56      -0.2718
      5  CB       -29.8730  -42.9020  -51.3160 C.3    56  HIS56       0.0759
      6  CG       -29.6540  -42.0700  -52.5430 C.ar   56  HIS56       0.0818
      7  ND1      -29.0070  -40.8530  -52.5120 N.ar   56  HIS56      -0.2268
      8  CD2      -29.9900  -42.2840  -53.8380 C.ar   56  HIS56       0.1154
      9  CE1      -28.9580  -40.3510  -53.7340 C.ar   56  HIS56       0.1986
     10  NE2      -29.5460  -41.2000  -54.5570 N.ar   56  HIS56      -0.2212
     11  N        -31.6600  -45.3720  -49.6270 N.am   57  ASP57      -0.1960
     12  CA       -31.5710  -46.3280  -48.5250 C.3    57  ASP57       0.1840
     13  C        -31.5160  -47.7320  -49.1120 C.2    57  ASP57       0.2622
     14  O        -32.5470  -48.3230  -49.4410 O.2    57  ASP57      -0.2715
     15  CB       -32.7520  -46.1660  -47.5760 C.3    57  ASP57       0.1450
     16  CG       -32.5970  -46.9850  -46.3010 C.2    57  ASP57       0.3671
     17  OD1      -31.5280  -47.6050  -46.1040 O.co2  57  ASP57      -0.2456
     18  OD2      -33.5470  -47.0070  -45.4900 O.co2  57  ASP57      -0.2456
     19  N        -30.3050  -48.2760  -49.2390 N.am   58  PHE58      -0.1960
     20  CA       -30.1100  -49.5690  -49.8830 C.3    58  PHE58       0.1771
     21  C        -30.3490  -50.7490  -48.9500 C.2    58  PHE58       0.2619
     22  O        -30.4690  -51.8800  -49.4340 O.2    58  PHE58      -0.2715
     23  CB       -28.6960  -49.6590  -50.4680 C.3    58  PHE58       0.0574
     24  CG       -28.4170  -48.6480  -51.5470 C.ar   58  PHE58      -0.0200
     25  CD1      -29.4530  -48.0610  -52.2570 C.ar   58  PHE58      -0.0042
     26  CD2      -27.1160  -48.2840  -51.8530 C.ar   58  PHE58      -0.0042
     27  CE1      -29.1960  -47.1280  -53.2480 C.ar   58  PHE58      -0.0003
     28  CE2      -26.8530  -47.3530  -52.8440 C.ar   58  PHE58      -0.0003
     29  CZ       -27.8940  -46.7750  -53.5420 C.ar   58  PHE58      -0.0000
     30  N        -30.4210  -50.5220  -47.6370 N.am   59  ASP59      -0.1971
     31  CA       -30.6880  -51.6180  -46.7100 C.3    59  ASP59       0.1709
     32  C        -32.1330  -52.0860  -46.8210 C.2    59  ASP59       0.2293
     33  O        -32.4040  -53.2900  -46.8960 O.2    59  ASP59      -0.2864
     34  CB       -30.3750  -51.1850  -45.2800 C.3    59  ASP59       0.1436
     35  CG       -29.0380  -50.4920  -45.1630 C.2    59  ASP59       0.3671
     36  OD1      -28.0770  -50.9330  -45.8260 O.co2  59  ASP59      -0.2456
     37  OD2      -28.9520  -49.5000  -44.4110 O.co2  59  ASP59      -0.2456
     38  N        -25.1040  -54.1210  -52.0940 N.3    68  VAL68      -0.1245
     39  CA       -25.1000  -52.7530  -51.5860 C.3    68  VAL68       0.1561
     40  C        -23.7450  -52.0960  -51.8170 C.2    68  VAL68       0.2260
     41  O        -23.6660  -50.9200  -52.1920 O.2    68  VAL68      -0.2867
     42  CB       -25.4940  -52.7380  -50.0970 C.3    68  VAL68       0.0252
     43  CG1      -25.4440  -51.3250  -49.5450 C.3    68  VAL68       0.0019
     44  CG2      -26.8810  -53.3330  -49.9110 C.3    68  VAL68       0.0019
     45  N        -22.7890  -48.7520  -53.9030 N.3    72  ILE72      -0.1245
     46  CA       -22.1350  -47.5970  -53.2920 C.3    72  ILE72       0.1561
     47  C        -20.9300  -47.1530  -54.1170 C.2    72  ILE72       0.2260
     48  O        -20.6660  -45.9520  -54.2570 O.2    72  ILE72      -0.2867
     49  CB       -21.7370  -47.9240  -51.8420 C.3    72  ILE72       0.0252
     50  CG1      -22.9780  -48.1880  -50.9910 C.3    72  ILE72       0.0019
     51  CG2      -20.9240  -46.7950  -51.2360 C.3    72  ILE72       0.0019
     52  CD1      -22.6780  -48.9340  -49.7150 C.3    72  ILE72       0.0001
     53  N        -22.1290  -45.2840  -57.0110 N.3    75  ALA75      -0.1231
     54  CA       -22.6900  -44.0290  -56.5210 C.3    75  ALA75       0.1694
     55  C        -21.5940  -42.9980  -56.2780 C.2    75  ALA75       0.2592
     56  O        -21.7500  -41.8180  -56.6170 O.2    75  ALA75      -0.2718
     57  CB       -23.4900  -44.2760  -55.2430 C.3    75  ALA75       0.0304
     58  N        -20.4750  -43.4280  -55.6920 N.am   76  HIS76      -0.1976
     59  CA       -19.3440  -42.5240  -55.5060 C.3    76  HIS76       0.1656
     60  C        -18.7940  -42.0510  -56.8430 C.2    76  HIS76       0.2291
     61  O        -18.4390  -40.8750  -56.9980 O.2    76  HIS76      -0.2864
     62  CB       -18.2400  -43.2070  -54.7050 C.3    76  HIS76       0.0771
     63  CG       -18.5870  -43.4430  -53.2710 C.ar   76  HIS76       0.0820
     64  ND1      -17.6340  -43.4780  -52.2770 N.ar   76  HIS76      -0.2267
     65  CD2      -19.7750  -43.6620  -52.6620 C.ar   76  HIS76       0.1154
     66  CE1      -18.2200  -43.7070  -51.1170 C.ar   76  HIS76       0.1986
     67  NE2      -19.5180  -43.8290  -51.3240 N.ar   76  HIS76      -0.2212
     68  N        -21.0500  -39.3910  -58.0800 N.3    79  HIS79      -0.1226
     69  CA       -20.8310  -38.1520  -57.3420 C.3    79  HIS79       0.1752
     70  C        -19.5790  -37.4370  -57.8320 C.2    79  HIS79       0.2595
     71  O        -19.5590  -36.2060  -57.9450 O.2    79  HIS79      -0.2718
     72  CB       -20.7290  -38.4290  -55.8430 C.3    79  HIS79       0.0759
     73  CG       -20.3720  -37.2180  -55.0360 C.ar   79  HIS79       0.0818
     74  ND1      -19.0680  -36.8280  -54.8170 N.ar   79  HIS79      -0.2268
     75  CD2      -21.1490  -36.3020  -54.4130 C.ar   79  HIS79       0.1154
     76  CE1      -19.0570  -35.7260  -54.0890 C.ar   79  HIS79       0.1986
     77  NE2      -20.3070  -35.3870  -53.8280 N.ar   79  HIS79      -0.2212
     78  N        -18.5200  -38.1950  -58.1240 N.am   80  LEU80      -0.1980
     79  CA       -17.2970  -37.5830  -58.6330 C.3    80  LEU80       0.1596
     80  C        -17.5150  -36.9810  -60.0150 C.2    80  LEU80       0.2287
     81  O        -16.9510  -35.9270  -60.3340 O.2    80  LEU80      -0.2864
     82  CB       -16.1670  -38.6100  -58.6570 C.3    80  LEU80       0.0297
     83  CG       -15.5140  -38.8020  -57.2910 C.3    80  LEU80       0.0022
     84  CD1      -14.4760  -39.9100  -57.3170 C.3    80  LEU80       0.0001
     85  CD2      -14.8960  -37.4880  -56.8460 C.3    80  LEU80       0.0001
     86  N        -19.1810  -33.7110  -59.3800 N.3    83  VAL83      -0.1245
     87  CA       -18.2290  -32.7350  -58.8580 C.3    83  VAL83       0.1561
     88  C        -17.3450  -32.1930  -59.9730 C.2    83  VAL83       0.2260
     89  O        -17.0700  -30.9870  -60.0380 O.2    83  VAL83      -0.2867
     90  CB       -17.3940  -33.3650  -57.7300 C.3    83  VAL83       0.0252
     91  CG1      -16.1830  -32.5110  -57.4310 C.3    83  VAL83       0.0019
     92  CG2      -18.2410  -33.5310  -56.4880 C.3    83  VAL83       0.0019
     93  N        -21.6660  -50.6620  -43.0840 N.3   348  TRP348     -0.1227
     94  CA       -21.3110  -49.4250  -43.7710 C.3   348  TRP348      0.1737
     95  C        -21.6810  -48.2080  -42.9340 C.2   348  TRP348      0.2595
     96  O        -20.9790  -47.1910  -42.9630 O.2   348  TRP348     -0.2718
     97  CB       -22.0040  -49.3530  -45.1290 C.3   348  TRP348      0.0564
     98  CG       -21.2990  -50.0940  -46.2180 C.ar  348  TRP348      0.0003
     99  CD1      -21.4380  -51.4130  -46.5370 C.ar  348  TRP348      0.0946
    100  CD2      -20.3550  -49.5520  -47.1480 C.ar  348  TRP348      0.0152
    101  NE1      -20.6320  -51.7290  -47.6050 N.ar  348  TRP348     -0.2442
    102  CE2      -19.9570  -50.6030  -47.9990 C.ar  348  TRP348      0.0810
    103  CE3      -19.8050  -48.2820  -47.3430 C.ar  348  TRP348      0.0012
    104  CZ2      -19.0340  -50.4220  -49.0260 C.ar  348  TRP348      0.0191
    105  CZ3      -18.8880  -48.1040  -48.3640 C.ar  348  TRP348      0.0001
    106  CH2      -18.5120  -49.1690  -49.1930 C.ar  348  TRP348      0.0015
    107  N        -22.7850  -48.2900  -42.1850 N.am  349  HIS349     -0.1975
    108  CA       -23.1930  -47.1670  -41.3470 C.3   349  HIS349      0.1656
    109  C        -22.2010  -46.9400  -40.2180 C.2   349  HIS349      0.2291
    110  O        -21.9490  -45.7950  -39.8290 O.2   349  HIS349     -0.2864
    111  CB       -24.5980  -47.4040  -40.7950 C.3   349  HIS349      0.0771
    112  CG       -25.6610  -47.4300  -41.8460 C.ar  349  HIS349      0.0820
    113  ND1      -26.1030  -46.2920  -42.4850 N.ar  349  HIS349     -0.2267
    114  CD2      -26.3680  -48.4560  -42.3730 C.ar  349  HIS349      0.1154
    115  CE1      -27.0360  -46.6160  -43.3620 C.ar  349  HIS349      0.1986
    116  NE2      -27.2170  -47.9230  -43.3130 N.ar  349  HIS349     -0.2212
    117  N        -19.0310  -47.3620  -40.4740 N.3   351  GLN351     -0.1231
    118  CA       -17.9210  -46.6430  -41.0930 C.3   351  GLN351      0.1698
    119  C        -18.2900  -45.1950  -41.3820 C.2   351  GLN351      0.2592
    120  O        -17.4720  -44.2850  -41.1890 O.2   351  GLN351     -0.2718
    121  CB       -17.4970  -47.3500  -42.3820 C.3   351  GLN351      0.0381
    122  CG       -16.6450  -48.5880  -42.1730 C.3   351  GLN351      0.0905
    123  CD       -15.1750  -48.2590  -42.0070 C.2   351  GLN351      0.2608
    124  OE1      -14.7530  -47.1230  -42.2260 O.2   351  GLN351     -0.2717
    125  NE2      -14.3850  -49.2550  -41.6230 N.am  351  GLN351     -0.0878
    126  N        -19.5140  -44.9640  -41.8560 N.am  352  LEU352     -0.1980
    127  CA       -19.9270  -43.6130  -42.2070 C.3   352  LEU352      0.1596
    128  C        -20.0650  -42.7350  -40.9720 C.2   352  LEU352      0.2287
    129  O        -19.7900  -41.5340  -41.0390 O.2   352  LEU352     -0.2864
    130  CB       -21.2370  -43.6560  -42.9920 C.3   352  LEU352      0.0297
    131  CG       -21.6360  -42.3720  -43.7170 C.3   352  LEU352      0.0022
    132  CD1      -20.4530  -41.8060  -44.4790 C.3   352  LEU352      0.0001
    133  CD2      -22.7980  -42.6330  -44.6600 C.3   352  LEU352      0.0001
    134  N        -16.4840  -41.5900  -40.5900 N.3   355  ASN355     -0.1225
    135  CA       -15.9820  -40.7740  -41.6880 C.3   355  ASN355      0.1785
    136  C        -16.6490  -39.4060  -41.7130 C.2   355  ASN355      0.2597
    137  O        -15.9810  -38.3930  -41.9340 O.2   355  ASN355     -0.2718
    138  CB       -16.1860  -41.5020  -43.0150 C.3   355  ASN355      0.1169
    139  CG       -15.5200  -42.8620  -43.0390 C.2   355  ASN355      0.2627
    140  OD1      -14.6010  -43.1300  -42.2650 O.2   355  ASN355     -0.2716
    141  ND2      -15.9830  -43.7310  -43.9290 N.am  355  ASN355     -0.0877
    142  N        -17.9630  -39.3530  -41.4740 N.am  356  LEU356     -0.1980
    143  CA       -18.6720  -38.0770  -41.4660 C.3   356  LEU356      0.1596
    144  C        -18.2050  -37.1930  -40.3180 C.2   356  LEU356      0.2287
    145  O        -17.9610  -35.9950  -40.5040 O.2   356  LEU356     -0.2864
    146  CB       -20.1780  -38.3210  -41.3810 C.3   356  LEU356      0.0297
    147  CG       -20.8860  -38.6060  -42.7040 C.3   356  LEU356      0.0022
    148  CD1      -22.3050  -39.0570  -42.4540 C.3   356  LEU356      0.0001
    149  CD2      -20.8800  -37.3670  -43.5790 C.3   356  LEU356      0.0001
    150  N        -14.6540  -35.9780  -41.1620 N.3   359  LEU359     -0.1245
    151  CA       -14.6370  -35.0610  -42.2950 C.3   359  LEU359      0.1561
    152  C        -15.2210  -33.7050  -41.9200 C.2   359  LEU359      0.2260
    153  O        -14.6970  -32.6650  -42.3320 O.2   359  LEU359     -0.2867
    154  CB       -15.3970  -35.6760  -43.4700 C.3   359  LEU359      0.0270
    155  CG       -15.3770  -34.9030  -44.7870 C.3   359  LEU359      0.0019
    156  CD1      -13.9570  -34.5190  -45.1540 C.3   359  LEU359      0.0001
    157  CD2      -16.0030  -35.7350  -45.8920 C.3   359  LEU359      0.0001
    158  N        -21.9120  -32.2360  -41.9310 N.3   400  LEU400     -0.1245
    159  CA       -21.2700  -33.5440  -41.9970 C.3   400  LEU400      0.1561
    160  C        -21.0360  -34.1450  -40.6180 C.2   400  LEU400      0.2260
    161  O        -20.9080  -35.3680  -40.5020 O.2   400  LEU400     -0.2867
    162  CB       -19.9480  -33.4440  -42.7610 C.3   400  LEU400      0.0270
    163  CG       -20.0650  -33.0330  -44.2320 C.3   400  LEU400      0.0019
    164  CD1      -18.7330  -33.1800  -44.9460 C.3   400  LEU400      0.0001
    165  CD2      -21.1470  -33.8310  -44.9420 C.3   400  LEU400      0.0001
    166  N        -25.9520  -41.6660  -38.7680 N.3   407  HIS407     -0.1241
    167  CA       -25.5960  -43.0000  -39.2330 C.3   407  HIS407      0.1621
    168  C        -25.1350  -43.9140  -38.1030 C.2   407  HIS407      0.2264
    169  O        -25.2080  -45.1380  -38.2510 O.2   407  HIS407     -0.2867
    170  CB       -24.5410  -42.9010  -40.3330 C.3   407  HIS407      0.0745
    171  CG       -25.0670  -42.3060  -41.6030 C.ar  407  HIS407      0.0817
    172  ND1      -25.6860  -43.0590  -42.5770 N.ar  407  HIS407     -0.2268
    173  CD2      -25.0920  -41.0270  -42.0460 C.ar  407  HIS407      0.1154
    174  CE1      -26.0570  -42.2710  -43.5710 C.ar  407  HIS407      0.1986
    175  NE2      -25.7060  -41.0340  -43.2740 N.ar  407  HIS407     -0.2212
@<TRIPOS>BOND
     1    81    80    2
     2    89    88    2
     3    80    79    1
     4    88    87    1
     5    86    87    1
     6    87    90    1
     7    82    79    1
     8    82    83    1
     9    79    78    1
    10    78    70   am
    11    68    69    1
    12    71    70    2
    13    70    69    1
    14    90    91    1
    15    90    92    1
    16    69    72    1
    17    84    83    1
    18    83    85    1
    19    53    54    1
    20    61    60    2
    21    60    59    1
    22    56    55    2
    23    54    55    1
    24    54    57    1
    25    55    58   am
    26    72    73    1
    27    58    59    1
    28    59    62    1
    29    73    74   ar
    30    73    75   ar
    31    74    76   ar
    32    62    63    1
    33    10     8   ar
    34    10     9   ar
    35    75    77   ar
    36    48    47    2
    37    47    46    1
    38    76    77   ar
    39    45    46    1
    40     8     6   ar
    41     9     7   ar
    42    29    27   ar
    43    29    28   ar
    44    46    49    1
    45    63    65   ar
    46    63    64   ar
    47    27    25   ar
    48    28    26   ar
    49    65    67   ar
    50     6     7   ar
    51     6     5    1
    52    64    66   ar
    53    25    24   ar
    54    41    40    2
    55    38    39    1
    56    26    24   ar
    57    49    51    1
    58    49    50    1
    59    40    39    1
    60     1     2    1
    61    39    42    1
    62    24    23    1
    63     2     5    1
    64     2     3    1
    65    67    66   ar
    66    50    52    1
    67    23    20    1
    68     3     4    2
    69     3    11   am
    70    42    44    1
    71    42    43    1
    72    20    19    1
    73    20    21    1
    74    11    12    1
    75    14    13    2
    76    22    21    2
    77    19    13   am
    78   106   104   ar
    79   106   105   ar
    80    13    12    1
    81   104   102   ar
    82    21    30   am
    83    12    15    1
    84   105   103   ar
    85   102   101   ar
    86   102   100   ar
    87    30    31    1
    88   101    99   ar
    89    15    16    1
    90   103   100   ar
    91   100    98   ar
    92    33    32    2
    93    32    31    1
    94    31    34    1
    95    99    98   ar
    96    16    17   ar
    97    16    18   ar
    98    98    97    1
    99   157   155    1
   100    36    35   ar
   101    34    35    1
   102    35    37   ar
   103   156   155    1
   104    97    94    1
   105   164   163    1
   106   165   163    1
   107   155   154    1
   108   133   131    1
   109   132   131    1
   110   163   162    1
   111   141   139   am
   112    94    93    1
   113    94    95    1
   114   131   130    1
   115   149   147    1
   116   174   175   ar
   117   174   172   ar
   118   154   151    1
   119   115   116   ar
   120   115   113   ar
   121   116   114   ar
   122   175   173   ar
   123   139   138    1
   124   139   140    2
   125   138   135    1
   126   130   127    1
   127    96    95    2
   128    95   107   am
   129   162   159    1
   130   147   148    1
   131   147   146    1
   132   172   171   ar
   133   113   112   ar
   134   121   122    1
   135   121   118    1
   136   114   112   ar
   137   153   152    2
   138   151   152    1
   139   151   150    1
   140   124   123    2
   141   127   126    1
   142   127   128    1
   143   107   108    1
   144   122   123    1
   145   173   171   ar
   146   123   125   am
   147   159   158    1
   148   159   160    1
   149   137   136    2
   150   126   119   am
   151   112   111    1
   152   136   135    1
   153   136   142   am
   154   135   134    1
   155   171   170    1
   156   142   143    1
   157   143   146    1
   158   143   144    1
   159   119   120    2
   160   119   118    1
   161   108   111    1
   162   108   109    1
   163   118   117    1
   164   129   128    2
   165   160   161    2
   166   145   144    2
   167   170   167    1
   168   109   110    2
   169   167   166    1
   170   167   168    1
   171   169   168    2
