@<TRIPOS>MOLECULE
tmp/6hqbA29.pdb
 114 111 0 0 0
SMALL
GASTEIGER

@<TRIPOS>ATOM
      1  N        -43.9490  -39.2660  -51.8980 N.3    49  TRP49      -0.1241
      2  CA       -42.9460  -38.8070  -50.9410 C.3    49  TRP49       0.1605
      3  C        -42.0600  -39.9600  -50.4840 C.2    49  TRP49       0.2264
      4  O        -40.8270  -39.8620  -50.5150 O.2    49  TRP49      -0.2867
      5  CB       -43.6270  -38.1440  -49.7430 C.3    49  TRP49       0.0550
      6  CG       -44.5640  -37.0220  -50.0990 C.ar   49  TRP49       0.0003
      7  CD1      -45.9070  -36.9620  -49.8470 C.ar   49  TRP49       0.0946
      8  CD2      -44.2260  -35.8020  -50.7680 C.ar   49  TRP49       0.0152
      9  NE1      -46.4230  -35.7760  -50.3160 N.ar   49  TRP49      -0.2442
     10  CE2      -45.4110  -35.0460  -50.8840 C.ar   49  TRP49       0.0810
     11  CE3      -43.0350  -35.2720  -51.2730 C.ar   49  TRP49       0.0012
     12  CZ2      -45.4390  -33.7910  -51.4910 C.ar   49  TRP49       0.0191
     13  CZ3      -43.0660  -34.0260  -51.8750 C.ar   49  TRP49       0.0001
     14  CH2      -44.2590  -33.3000  -51.9800 C.ar   49  TRP49       0.0015
     15  N        -38.7410  -15.0660  -44.9000 N.3   677  PHE677     -0.1227
     16  CA       -40.0000  -15.7050  -45.2710 C.3   677  PHE677      0.1736
     17  C        -39.9540  -17.2080  -45.0240 C.2   677  PHE677      0.2595
     18  O        -40.8610  -17.7730  -44.4010 O.2   677  PHE677     -0.2718
     19  CB       -40.3110  -15.4120  -46.7380 C.3   677  PHE677      0.0547
     20  CG       -41.5640  -16.0660  -47.2390 C.ar  677  PHE677     -0.0202
     21  CD1      -42.8060  -15.5260  -46.9460 C.ar  677  PHE677     -0.0042
     22  CD2      -41.5000  -17.2120  -48.0180 C.ar  677  PHE677     -0.0042
     23  CE1      -43.9640  -16.1230  -47.4130 C.ar  677  PHE677     -0.0003
     24  CE2      -42.6530  -17.8150  -48.4890 C.ar  677  PHE677     -0.0003
     25  CZ       -43.8870  -17.2710  -48.1870 C.ar  677  PHE677     -0.0000
     26  N        -38.9100  -17.8710  -45.5230 N.am  678  VAL678     -0.1980
     27  CA       -38.8440  -19.3290  -45.4380 C.3   678  VAL678      0.1595
     28  C        -38.7270  -19.7780  -43.9850 C.2   678  VAL678      0.2287
     29  O        -39.2830  -20.8160  -43.5930 O.2   678  VAL678     -0.2864
     30  CB       -37.6830  -19.8650  -46.2980 C.3   678  VAL678      0.0276
     31  CG1      -37.6120  -21.3800  -46.2160 C.3   678  VAL678      0.0022
     32  CG2      -37.8550  -19.4280  -47.7410 C.3   678  VAL678      0.0022
     33  N        -42.1430  -19.7620  -42.7160 N.3   681  PHE681     -0.1241
     34  CA       -42.8900  -20.8150  -43.3950 C.3   681  PHE681      0.1605
     35  C        -42.6420  -22.1750  -42.7540 C.2   681  PHE681      0.2264
     36  O        -43.5450  -23.0190  -42.7130 O.2   681  PHE681     -0.2867
     37  CB       -42.5250  -20.8360  -44.8800 C.3   681  PHE681      0.0534
     38  CG       -43.2960  -21.8450  -45.6800 C.ar  681  PHE681     -0.0203
     39  CD1      -44.6460  -21.6630  -45.9280 C.ar  681  PHE681     -0.0042
     40  CD2      -42.6710  -22.9750  -46.1860 C.ar  681  PHE681     -0.0042
     41  CE1      -45.3620  -22.5950  -46.6630 C.ar  681  PHE681     -0.0003
     42  CE2      -43.3800  -23.9110  -46.9250 C.ar  681  PHE681     -0.0003
     43  CZ       -44.7260  -23.7210  -47.1620 C.ar  681  PHE681     -0.0000
     44  N        -45.0110  -23.2680  -39.6260 N.3   684  MET684     -0.1230
     45  CA       -46.3010  -23.9060  -39.8680 C.3   684  MET684      0.1702
     46  C        -46.2010  -25.4200  -39.7280 C.2   684  MET684      0.2592
     47  O        -47.0590  -26.0540  -39.1040 O.2   684  MET684     -0.2718
     48  CB       -46.8140  -23.5230  -41.2570 C.3   684  MET684      0.0401
     49  CG       -48.2010  -24.0490  -41.5830 C.3   684  MET684      0.0596
     50  SD       -48.6690  -23.7680  -43.3030 S.3   684  MET684     -0.1393
     51  CE       -47.3960  -24.6870  -44.1570 C.3   684  MET684      0.0692
     52  N        -45.1520  -26.0170  -40.2980 N.am  685  PHE685     -0.1976
     53  CA       -44.9500  -27.4550  -40.1570 C.3   685  PHE685      0.1639
     54  C        -44.4850  -27.8130  -38.7530 C.2   685  PHE685      0.2290
     55  O        -44.9590  -28.7920  -38.1650 O.2   685  PHE685     -0.2864
     56  CB       -43.9320  -27.9500  -41.1850 C.3   685  PHE685      0.0560
     57  CG       -44.2880  -27.6120  -42.6000 C.ar  685  PHE685     -0.0200
     58  CD1      -45.0390  -28.4880  -43.3660 C.ar  685  PHE685     -0.0042
     59  CD2      -43.8680  -26.4180  -43.1670 C.ar  685  PHE685     -0.0042
     60  CE1      -45.3680  -28.1800  -44.6700 C.ar  685  PHE685     -0.0003
     61  CE2      -44.1930  -26.1030  -44.4700 C.ar  685  PHE685     -0.0003
     62  CZ       -44.9440  -26.9840  -45.2240 C.ar  685  PHE685     -0.0000
     63  N        -48.7150  -35.0040  -45.4720 N.3   718  LEU718     -0.1245
     64  CA       -47.3870  -35.5380  -45.2080 C.3   718  LEU718      0.1561
     65  C        -47.3960  -36.3610  -43.9250 C.2   718  LEU718      0.2260
     66  O        -48.1100  -36.0550  -42.9650 O.2   718  LEU718     -0.2867
     67  CB       -46.3630  -34.4070  -45.0870 C.3   718  LEU718      0.0270
     68  CG       -46.3730  -33.2980  -46.1420 C.3   718  LEU718      0.0019
     69  CD1      -45.2880  -32.2730  -45.8440 C.3   718  LEU718      0.0001
     70  CD2      -46.2060  -33.8690  -47.5400 C.3   718  LEU718      0.0001
     71  N        -42.2760  -36.8550  -42.1820 N.3   722  GLN722     -0.1245
     72  CA       -42.0490  -35.9470  -43.3030 C.3   722  GLN722      0.1566
     73  C        -42.4560  -34.5210  -42.9570 C.2   722  GLN722      0.2260
     74  O        -41.8250  -33.5630  -43.4190 O.2   722  GLN722     -0.2867
     75  CB       -42.7970  -36.4140  -44.5490 C.3   722  GLN722      0.0367
     76  CG       -42.5690  -35.4840  -45.7270 C.3   722  GLN722      0.0905
     77  CD       -43.3800  -35.8480  -46.9420 C.2   722  GLN722      0.2608
     78  OE1      -44.2180  -36.7500  -46.9020 O.2   722  GLN722     -0.2717
     79  NE2      -43.1380  -35.1430  -48.0370 N.am  722  GLN722     -0.0878
     80  N        -39.5890  -33.2200  -41.1330 N.3   725  ALA725     -0.1231
     81  CA       -38.4470  -33.0630  -42.0280 C.3   725  ALA725      0.1694
     82  C        -38.5730  -31.8030  -42.8750 C.2   725  ALA725      0.2591
     83  O        -37.6030  -31.0510  -43.0240 O.2   725  ALA725     -0.2718
     84  CB       -38.3050  -34.2990  -42.9150 C.3   725  ALA725      0.0304
     85  N        -39.7550  -31.5600  -43.4420 N.am  726  VAL726     -0.1980
     86  CA       -39.9790  -30.3310  -44.2000 C.3   726  VAL726      0.1595
     87  C        -39.8270  -29.1180  -43.2940 C.2   726  VAL726      0.2287
     88  O        -39.2470  -28.0960  -43.6890 O.2   726  VAL726     -0.2864
     89  CB       -41.3610  -30.3610  -44.8800 C.3   726  VAL726      0.0276
     90  CG1      -41.6270  -29.0490  -45.6010 C.3   726  VAL726      0.0022
     91  CG2      -41.4530  -31.5350  -45.8450 C.3   726  VAL726      0.0022
     92  N        -36.0680  -28.6250  -42.6150 N.3   729  ALA729     -0.1231
     93  CA       -35.4100  -28.2460  -43.8590 C.3   729  ALA729      0.1694
     94  C        -35.6560  -26.7790  -44.1820 C.2   729  ALA729      0.2592
     95  O        -34.7150  -26.0320  -44.4770 O.2   729  ALA729     -0.2718
     96  CB       -35.8950  -29.1400  -45.0020 C.3   729  ALA729      0.0304
     97  N        -36.9190  -26.3410  -44.1150 N.am  730  HIS730     -0.1976
     98  CA       -37.2180  -24.9430  -44.4080 C.3   730  HIS730      0.1656
     99  C        -36.6660  -24.0070  -43.3430 C.2   730  HIS730      0.2291
    100  O        -36.2420  -22.8930  -43.6670 O.2   730  HIS730     -0.2864
    101  CB       -38.7230  -24.7470  -44.5590 C.3   730  HIS730      0.0771
    102  CG       -39.3030  -25.4540  -45.7390 C.ar  730  HIS730      0.0820
    103  ND1      -40.6260  -25.3310  -46.1050 N.ar  730  HIS730     -0.2267
    104  CD2      -38.7390  -26.2950  -46.6360 C.ar  730  HIS730      0.1154
    105  CE1      -40.8500  -26.0680  -47.1770 C.ar  730  HIS730      0.1986
    106  NE2      -39.7220  -26.6650  -47.5170 N.ar  730  HIS730     -0.2212
    107  N        -33.0490  -23.6760  -44.2240 N.3   733  LEU733     -0.1245
    108  CA       -32.8970  -22.9740  -45.4950 C.3   733  LEU733      0.1561
    109  C        -33.1290  -21.4770  -45.3290 C.2   733  LEU733      0.2260
    110  O        -32.3190  -20.6610  -45.7770 O.2   733  LEU733     -0.2867
    111  CB       -33.8510  -23.5530  -46.5400 C.3   733  LEU733      0.0270
    112  CG       -33.6470  -23.0280  -47.9660 C.3   733  LEU733      0.0019
    113  CD1      -32.4610  -23.7130  -48.6420 C.3   733  LEU733      0.0001
    114  CD2      -34.9140  -23.1770  -48.7950 C.3   733  LEU733      0.0001
@<TRIPOS>BOND
     1    14    13   ar
     2    14    12   ar
     3     1     2    1
     4    13    11   ar
     5    12    10   ar
     6    11     8   ar
     7     2     3    1
     8     2     5    1
     9    10     8   ar
    10    10     9   ar
    11     8     6   ar
    12     4     3    2
    13     9     7   ar
    14     6     7   ar
    15     6     5    1
    16   114   112    1
    17   113   112    1
    18    24    25   ar
    19    24    22   ar
    20    25    23   ar
    21    79    77   am
    22    22    20   ar
    23   112   111    1
    24    32    30    1
    25    70    68    1
    26   106   105   ar
    27   106   104   ar
    28    23    21   ar
    29    20    21   ar
    30    20    19    1
    31   105   103   ar
    32    43    42   ar
    33    43    41   ar
    34    77    78    2
    35    77    76    1
    36    42    40   ar
    37    19    16    1
    38    41    39   ar
    39   104   102   ar
    40   111   108    1
    41    30    31    1
    42    30    27    1
    43    40    38   ar
    44    68    69    1
    45    68    67    1
    46   103   102   ar
    47    39    38   ar
    48    91    89    1
    49   110   109    2
    50   102   101    1
    51    76    75    1
    52    38    37    1
    53    90    89    1
    54    26    27    1
    55    26    17   am
    56   108   109    1
    57   108   107    1
    58    63    64    1
    59    27    28    1
    60    16    17    1
    61    16    15    1
    62    62    60   ar
    63    62    61   ar
    64    64    67    1
    65    64    65    1
    66    17    18    2
    67    96    93    1
    68    37    34    1
    69    89    86    1
    70    60    58   ar
    71   101    98    1
    72    75    72    1
    73    95    94    2
    74    61    59   ar
    75    98    97    1
    76    98    99    1
    77    86    85    1
    78    86    87    1
    79    94    97   am
    80    94    93    1
    81    51    50    1
    82    28    29    2
    83    65    66    2
    84    93    92    1
    85    88    87    2
    86   100    99    2
    87    85    82   am
    88    74    73    2
    89    34    35    1
    90    34    33    1
    91    58    57   ar
    92    50    49    1
    93    72    73    1
    94    72    71    1
    95    59    57   ar
    96    83    82    2
    97    84    81    1
    98    82    81    1
    99    35    36    2
   100    57    56    1
   101    81    80    1
   102    49    48    1
   103    48    45    1
   104    56    53    1
   105    52    53    1
   106    52    46   am
   107    53    54    1
   108    45    46    1
   109    45    44    1
   110    46    47    2
   111    54    55    2
