@<TRIPOS>MOLECULE
tmp/6hqbA54.pdb
 123 122 0 0 0
SMALL
GASTEIGER

@<TRIPOS>ATOM
      1  N        -18.0770  -32.0200  -63.1550 N.3    85  VAL85      -0.1231
      2  CA       -18.9110  -31.1170  -63.9480 C.3    85  VAL85       0.1692
      3  C        -18.9650  -29.7400  -63.2960 C.2    85  VAL85       0.2592
      4  O        -18.7570  -28.7070  -63.9510 O.2    85  VAL85      -0.2718
      5  CB       -20.3220  -31.7070  -64.1350 C.3    85  VAL85       0.0266
      6  CG1      -21.2520  -30.6700  -64.7460 C.3    85  VAL85       0.0020
      7  CG2      -20.2700  -32.9460  -65.0090 C.3    85  VAL85       0.0020
      8  N        -19.2270  -29.7080  -61.9850 N.am   86  TRP86      -0.1976
      9  CA       -19.3170  -28.4280  -61.2860 C.3    86  TRP86       0.1640
     10  C        -18.0050  -27.6510  -61.3590 C.2    86  TRP86       0.2290
     11  O        -18.0110  -26.4240  -61.5120 O.2    86  TRP86      -0.2864
     12  CB       -19.7190  -28.6430  -59.8280 C.3    86  TRP86       0.0576
     13  CG       -19.4730  -27.4310  -58.9790 C.ar   86  TRP86       0.0006
     14  CD1      -20.1810  -26.2650  -58.9900 C.ar   86  TRP86       0.0946
     15  CD2      -18.4390  -27.2640  -58.0010 C.ar   86  TRP86       0.0152
     16  NE1      -19.6540  -25.3830  -58.0770 N.ar   86  TRP86      -0.2442
     17  CE2      -18.5850  -25.9730  -57.4560 C.ar   86  TRP86       0.0810
     18  CE3      -17.4070  -28.0810  -57.5300 C.ar   86  TRP86       0.0012
     19  CZ2      -17.7380  -25.4810  -56.4660 C.ar   86  TRP86       0.0191
     20  CZ3      -16.5670  -27.5900  -56.5460 C.ar   86  TRP86       0.0001
     21  CH2      -16.7380  -26.3020  -56.0250 C.ar   86  TRP86       0.0015
     22  N        -15.4800  -27.9270  -63.6610 N.3    88  SER88      -0.1202
     23  CA       -15.3310  -27.4180  -65.0180 C.3    88  SER88       0.2020
     24  C        -16.2080  -26.1960  -65.2400 C.2    88  SER88       0.2619
     25  O        -15.8340  -25.2950  -65.9990 O.2    88  SER88      -0.2717
     26  CB       -15.6700  -28.5080  -66.0330 C.3    88  SER88       0.2103
     27  OG       -17.0330  -28.8820  -65.9370 O.3    88  SER88      -0.2182
     28  N        -17.3700  -26.1470  -64.5830 N.am   89  GLY89      -0.1942
     29  CA       -18.1840  -24.9400  -64.6340 C.3    89  GLY89       0.2014
     30  C        -17.4400  -23.7110  -64.1510 C.2    89  GLY89       0.2638
     31  O        -17.4610  -22.6590  -64.7980 O.2    89  GLY89      -0.2714
     32  N        -16.7630  -23.8300  -63.0060 N.am   90  MET90      -0.1976
     33  CA       -16.0320  -22.6940  -62.4570 C.3    90  MET90       0.1605
     34  C        -14.8660  -22.3050  -63.3510 C.2    90  MET90       0.2287
     35  O        -14.6260  -21.1140  -63.5850 O.2    90  MET90      -0.2864
     36  CB       -15.5430  -23.0170  -61.0470 C.3    90  MET90       0.0413
     37  CG       -16.6610  -23.2940  -60.0620 C.3    90  MET90       0.0598
     38  SD       -17.9570  -22.0460  -60.1530 S.3    90  MET90      -0.1393
     39  CE       -19.2120  -22.9220  -61.0890 C.3    90  MET90       0.0692
     40  N        -14.6000  -22.7450  -66.5890 N.3    92  PHE92      -0.1227
     41  CA       -15.0920  -22.1410  -67.8240 C.3    92  PHE92       0.1736
     42  C        -15.6440  -20.7410  -67.5780 C.2    92  PHE92       0.2595
     43  O        -15.4640  -19.8410  -68.4100 O.2    92  PHE92      -0.2718
     44  CB       -16.1550  -23.0350  -68.4580 C.3    92  PHE92       0.0547
     45  CG       -16.4610  -22.6890  -69.8870 C.ar   92  PHE92      -0.0202
     46  CD1      -15.7470  -23.2710  -70.9210 C.ar   92  PHE92      -0.0042
     47  CD2      -17.4590  -21.7810  -70.1960 C.ar   92  PHE92      -0.0042
     48  CE1      -16.0240  -22.9550  -72.2390 C.ar   92  PHE92      -0.0003
     49  CE2      -17.7410  -21.4620  -71.5100 C.ar   92  PHE92      -0.0003
     50  CZ       -17.0230  -22.0500  -72.5330 C.ar   92  PHE92      -0.0000
     51  N        -16.3280  -20.5360  -66.4470 N.am   93  HIS93      -0.1975
     52  CA       -16.8090  -19.1980  -66.1220 C.3    93  HIS93       0.1656
     53  C        -15.6590  -18.2510  -65.8090 C.2    93  HIS93       0.2291
     54  O        -15.7770  -17.0420  -66.0330 O.2    93  HIS93      -0.2864
     55  CB       -17.7880  -19.2550  -64.9510 C.3    93  HIS93       0.0771
     56  CG       -19.2240  -19.3430  -65.3690 C.ar   93  HIS93       0.0820
     57  ND1      -19.9860  -18.2290  -65.6490 N.ar   93  HIS93      -0.2267
     58  CD2      -20.0360  -20.4110  -65.5530 C.ar   93  HIS93       0.1154
     59  CE1      -21.2060  -18.6070  -65.9870 C.ar   93  HIS93       0.1986
     60  NE2      -21.2630  -19.9260  -65.9370 N.ar   93  HIS93      -0.2212
     61  N        -14.2280  -17.4620  -69.6100 N.3    96  LYS96      -0.1231
     62  CA       -15.0000  -16.6790  -70.5670 C.3    96  LYS96       0.1693
     63  C        -16.0470  -15.7570  -69.9540 C.2    96  LYS96       0.2592
     64  O        -16.7010  -15.0190  -70.7010 O.2    96  LYS96      -0.2718
     65  CB       -15.6860  -17.6070  -71.5800 C.3    96  LYS96       0.0285
     66  CG       -14.7270  -18.2810  -72.5480 C.3    96  LYS96       0.0035
     67  CD       -15.4730  -18.9960  -73.6640 C.3    96  LYS96       0.0206
     68  CE       -16.2700  -18.0190  -74.5150 C.3    96  LYS96       0.1093
     69  NZ       -16.9950  -18.7090  -75.6170 N.3    96  LYS96      -0.1314
     70  N        -16.2310  -15.7610  -68.6350 N.am   97  PHE97      -0.1976
     71  CA       -17.2620  -14.9280  -68.0180 C.3    97  PHE97       0.1639
     72  C        -16.7400  -14.2730  -66.7480 C.2    97  PHE97       0.2290
     73  O        -17.4320  -14.2190  -65.7270 O.2    97  PHE97      -0.2864
     74  CB       -18.5220  -15.7380  -67.7150 C.3    97  PHE97       0.0560
     75  CG       -19.0410  -16.5110  -68.8900 C.ar   97  PHE97      -0.0200
     76  CD1      -19.6840  -15.8650  -69.9310 C.ar   97  PHE97      -0.0042
     77  CD2      -18.8880  -17.8850  -68.9510 C.ar   97  PHE97      -0.0042
     78  CE1      -20.1610  -16.5750  -71.0140 C.ar   97  PHE97      -0.0003
     79  CE2      -19.3650  -18.5990  -70.0300 C.ar   97  PHE97      -0.0003
     80  CZ       -20.0020  -17.9430  -71.0620 C.ar   97  PHE97      -0.0000
     81  N        -19.1570  -13.8030  -62.9620 N.3   115  GLN115     -0.1231
     82  CA       -20.5240  -14.0720  -63.3880 C.3   115  GLN115      0.1698
     83  C        -21.0960  -12.8200  -64.0380 C.2   115  GLN115      0.2592
     84  O        -20.8810  -11.7070  -63.5500 O.2   115  GLN115     -0.2718
     85  CB       -21.4050  -14.5130  -62.2140 C.3   115  GLN115      0.0381
     86  CG       -22.8210  -14.8950  -62.6160 C.3   115  GLN115      0.0905
     87  CD       -23.6800  -15.2800  -61.4300 C.2   115  GLN115      0.2608
     88  OE1      -23.2040  -15.3300  -60.2960 O.2   115  GLN115     -0.2717
     89  NE2      -24.9540  -15.5530  -61.6840 N.am  115  GLN115     -0.0878
     90  N        -21.8200  -13.0130  -65.1380 N.am  116  VAL116     -0.1980
     91  CA       -22.4560  -11.9290  -65.8780 C.3   116  VAL116      0.1595
     92  C        -23.9490  -12.2200  -65.9460 C.2   116  VAL116      0.2287
     93  O        -24.3570  -13.2840  -66.4260 O.2   116  VAL116     -0.2864
     94  CB       -21.8650  -11.7750  -67.2870 C.3   116  VAL116      0.0276
     95  CG1      -22.5590  -10.6450  -68.0320 C.3   116  VAL116      0.0022
     96  CG2      -20.3650  -11.5320  -67.2080 C.3   116  VAL116      0.0022
     97  N        -27.6750  -11.7410  -67.3440 N.3   118  TRP118     -0.1241
     98  CA       -28.3240  -11.3820  -68.6000 C.3   118  TRP118      0.1605
     99  C        -29.2170  -10.1640  -68.4060 C.2   118  TRP118      0.2264
    100  O        -30.1410  -10.2110  -67.5830 O.2   118  TRP118     -0.2867
    101  CB       -29.1390  -12.5610  -69.1180 C.3   118  TRP118      0.0550
    102  CG       -28.3340  -13.5510  -69.9010 C.ar  118  TRP118      0.0003
    103  CD1      -27.1180  -13.3420  -70.4810 C.ar  118  TRP118      0.0946
    104  CD2      -28.6900  -14.9070  -70.1920 C.ar  118  TRP118      0.0152
    105  NE1      -26.6950  -14.4830  -71.1180 N.ar  118  TRP118     -0.2442
    106  CE2      -27.6410  -15.4600  -70.9540 C.ar  118  TRP118      0.0810
    107  CE3      -29.7920  -15.7090  -69.8820 C.ar  118  TRP118      0.0012
    108  CZ2      -27.6620  -16.7750  -71.4090 C.ar  118  TRP118      0.0191
    109  CZ3      -29.8130  -17.0120  -70.3370 C.ar  118  TRP118      0.0001
    110  CH2      -28.7540  -17.5340  -71.0910 C.ar  118  TRP118      0.0015
    111  N        -11.1570  -26.4880  -67.7040 N.3   162  ALA162     -0.1245
    112  CA       -12.5600  -26.8880  -67.7680 C.3   162  ALA162      0.1562
    113  C        -12.7520  -28.0890  -68.6880 C.2   162  ALA162      0.2260
    114  O        -13.5560  -28.9850  -68.3980 O.2   162  ALA162     -0.2867
    115  CB       -13.4210  -25.7120  -68.2290 C.3   162  ALA162      0.0290
    116  N        -14.2960  -31.7050  -67.5830 N.3   166  LEU166     -0.1245
    117  CA       -15.3910  -32.4130  -68.2440 C.3   166  LEU166      0.1561
    118  C        -14.9650  -33.8130  -68.6730 C.2   166  LEU166      0.2260
    119  O        -15.7530  -34.7650  -68.5850 O.2   166  LEU166     -0.2867
    120  CB       -15.8920  -31.6070  -69.4410 C.3   166  LEU166      0.0270
    121  CG       -16.7640  -30.3970  -69.1030 C.3   166  LEU166      0.0019
    122  CD1      -17.1610  -29.6480  -70.3660 C.3   166  LEU166      0.0001
    123  CD2      -17.9960  -30.8390  -68.3280 C.3   166  LEU166      0.0001
@<TRIPOS>BOND
     1    69    68    1
     2    68    67    1
     3    67    66    1
     4    66    65    1
     5    50    48   ar
     6    50    49   ar
     7    48    46   ar
     8    65    62    1
     9    49    47   ar
    10   108   110   ar
    11   108   106   ar
    12   105   106   ar
    13   105   103   ar
    14   110   109   ar
    15    80    78   ar
    16    80    79   ar
    17    78    76   ar
    18   106   104   ar
    19    46    45   ar
    20    64    63    2
    21    62    63    1
    22    62    61    1
    23   103   102   ar
    24   122   121    1
    25   109   107   ar
    26    47    45   ar
    27   104   102   ar
    28   104   107   ar
    29    79    77   ar
    30    63    70   am
    31    76    75   ar
    32   102   101    1
    33    45    44    1
    34   120   121    1
    35   120   117    1
    36   101    98    1
    37   121   123    1
    38    77    75   ar
    39    75    74    1
    40   113   114    2
    41   113   112    1
    42   118   119    2
    43   118   117    1
    44    70    71    1
    45    98    99    1
    46    98    97    1
    47    44    41    1
    48    43    42    2
    49    99   100    2
    50   117   116    1
    51   115   112    1
    52    95    94    1
    53    71    74    1
    54    71    72    1
    55    41    42    1
    56    41    40    1
    57   112   111    1
    58    42    51   am
    59    94    96    1
    60    94    91    1
    61    72    73    2
    62    51    52    1
    63    93    92    2
    64    52    53    1
    65    52    55    1
    66    54    53    2
    67    26    27    1
    68    26    23    1
    69    25    24    2
    70    59    60   ar
    71    59    57   ar
    72    92    91    1
    73    60    58   ar
    74    91    90    1
    75    57    56   ar
    76    58    56   ar
    77    56    55    1
    78    24    23    1
    79    24    28   am
    80    90    83   am
    81    23    22    1
    82     7     5    1
    83    31    30    2
    84     6     5    1
    85    29    28    1
    86    29    30    1
    87    30    32   am
    88     5     2    1
    89    83    84    2
    90    83    82    1
    91     4     3    2
    92     2     3    1
    93     2     1    1
    94    35    34    2
    95    82    81    1
    96    82    85    1
    97    34    33    1
    98     3     8   am
    99    32    33    1
   100    86    85    1
   101    86    87    1
   102    33    36    1
   103     8     9    1
   104    89    87   am
   105    11    10    2
   106    87    88    2
   107    10     9    1
   108     9    12    1
   109    39    38    1
   110    36    37    1
   111    38    37    1
   112    12    13    1
   113    14    13   ar
   114    14    16   ar
   115    13    15   ar
   116    16    17   ar
   117    15    18   ar
   118    15    17   ar
   119    18    20   ar
   120    17    19   ar
   121    20    21   ar
   122    19    21   ar
