@<TRIPOS>MOLECULE
tmp/6hqbA00.pdb
 208 206 0 0 0
SMALL
GASTEIGER

@<TRIPOS>ATOM
      1  N        -25.4880  -57.0430  -63.7430 N.3    21  VAL21      -0.1231
      2  CA       -26.6720  -56.2360  -64.0090 C.3    21  VAL21       0.1678
      3  C        -26.6160  -55.7930  -65.4700 C.2    21  VAL21       0.2434
      4  O        -25.7220  -55.0210  -65.8490 O.2    21  VAL21      -0.2733
      5  CB       -26.7580  -55.0280  -63.0660 C.3    21  VAL21       0.0265
      6  CG1      -28.0270  -54.2360  -63.3330 C.3    21  VAL21       0.0020
      7  CG2      -26.6990  -55.4810  -61.6150 C.3    21  VAL21       0.0020
      8  N        -27.5350  -56.2440  -66.3190 N.am   22  PRO22      -0.2718
      9  CA       -27.5250  -55.8090  -67.7200 C.3    22  PRO22       0.1535
     10  C        -27.9250  -54.3460  -67.8480 C.2    22  PRO22       0.2599
     11  O        -28.3680  -53.6980  -66.8980 O.2    22  PRO22      -0.2715
     12  CB       -28.5490  -56.7340  -68.3860 C.3    22  PRO22       0.0310
     13  CG       -29.4750  -57.1170  -67.2790 C.3    22  PRO22       0.0237
     14  CD       -28.6230  -57.1970  -66.0410 C.3    22  PRO22       0.0939
     15  N        -27.7580  -53.8270  -69.0600 N.am   23  THR23      -0.1937
     16  CA       -28.0530  -52.4340  -69.3690 C.3    23  THR23       0.2028
     17  C        -29.3810  -52.3550  -70.1130 C.2    23  THR23       0.2643
     18  O        -29.5140  -52.9030  -71.2120 O.2    23  THR23      -0.2714
     19  CB       -26.9330  -51.8160  -70.2050 C.3    23  THR23       0.1808
     20  OG1      -25.7270  -51.7710  -69.4310 O.3    23  THR23      -0.2208
     21  CG2      -27.3060  -50.4090  -70.6420 C.3    23  THR23       0.0379
     22  N        -30.3560  -51.6710  -69.5150 N.am   24  SER24      -0.1935
     23  CA       -31.6670  -51.5160  -70.1280 C.3    24  SER24       0.2055
     24  C        -32.3190  -50.2450  -69.6010 C.2    24  SER24       0.2643
     25  O        -31.9070  -49.6880  -68.5800 O.2    24  SER24      -0.2714
     26  CB       -32.5630  -52.7320  -69.8600 C.3    24  SER24       0.2130
     27  OG       -33.7910  -52.6240  -70.5570 O.3    24  SER24      -0.2179
     28  N        -33.3470  -49.7890  -70.3160 N.am   25  PHE25      -0.1973
     29  CA       -34.0710  -48.5760  -69.9610 C.3    25  PHE25       0.1639
     30  C        -35.4820  -48.8430  -69.4600 C.2    25  PHE25       0.2290
     31  O        -36.1950  -47.8900  -69.1270 O.2    25  PHE25      -0.2864
     32  CB       -34.1340  -47.6210  -71.1610 C.3    25  PHE25       0.0560
     33  CG       -32.8340  -46.9330  -71.4630 C.ar   25  PHE25      -0.0200
     34  CD1      -32.4940  -45.7540  -70.8200 C.ar   25  PHE25      -0.0042
     35  CD2      -31.9550  -47.4610  -72.3930 C.ar   25  PHE25      -0.0042
     36  CE1      -31.2980  -45.1170  -71.0950 C.ar   25  PHE25      -0.0003
     37  CE2      -30.7570  -46.8280  -72.6740 C.ar   25  PHE25      -0.0003
     38  CZ       -30.4290  -45.6540  -72.0240 C.ar   25  PHE25      -0.0000
     39  N        -36.4760  -50.1540  -66.6920 N.3    27  LYS27      -0.1231
     40  CA       -36.6170  -49.7990  -65.2860 C.3    27  LYS27       0.1693
     41  C        -36.6370  -48.2940  -65.0580 C.2    27  LYS27       0.2592
     42  O        -36.9310  -47.8560  -63.9400 O.2    27  LYS27      -0.2718
     43  CB       -35.4910  -50.4340  -64.4670 C.3    27  LYS27       0.0285
     44  CG       -35.5560  -51.9520  -64.4210 C.3    27  LYS27       0.0035
     45  CD       -34.5990  -52.5160  -63.3860 C.3    27  LYS27       0.0206
     46  CE       -34.7980  -54.0130  -63.2150 C.3    27  LYS27       0.1093
     47  NZ       -33.9500  -54.5700  -62.1240 N.3    27  LYS27      -0.1314
     48  N        -36.3420  -47.4950  -66.0860 N.am   28  TRP28      -0.1976
     49  CA       -36.3830  -46.0460  -65.9260 C.3    28  TRP28       0.1640
     50  C        -37.8180  -45.5380  -65.8940 C.2    28  TRP28       0.2290
     51  O        -38.1420  -44.6210  -65.1310 O.2    28  TRP28      -0.2864
     52  CB       -35.6010  -45.3670  -67.0480 C.3    28  TRP28       0.0576
     53  CG       -34.1150  -45.5460  -66.9530 C.ar   28  TRP28       0.0006
     54  CD1      -33.4460  -46.6310  -66.4650 C.ar   28  TRP28       0.0946
     55  CD2      -33.1130  -44.6010  -67.3460 C.ar   28  TRP28       0.0152
     56  NE1      -32.0910  -46.4220  -66.5350 N.ar   28  TRP28      -0.2442
     57  CE2      -31.8600  -45.1830  -67.0730 C.ar   28  TRP28       0.0810
     58  CE3      -33.1530  -43.3200  -67.9060 C.ar   28  TRP28       0.0012
     59  CZ2      -30.6580  -44.5300  -67.3400 C.ar   28  TRP28       0.0191
     60  CZ3      -31.9600  -42.6730  -68.1700 C.ar   28  TRP28       0.0001
     61  CH2      -30.7290  -43.2780  -67.8870 C.ar   28  TRP28       0.0015
     62  N        -39.2390  -48.8070  -58.2970 N.3    33  HIS33      -0.1226
     63  CA       -39.0810  -50.2440  -58.4910 C.3    33  HIS33       0.1752
     64  C        -38.1070  -50.8460  -57.4880 C.2    33  HIS33       0.2596
     65  O        -38.1890  -52.0430  -57.1920 O.2    33  HIS33      -0.2718
     66  CB       -38.6070  -50.5290  -59.9160 C.3    33  HIS33       0.0759
     67  CG       -37.2250  -50.0320  -60.1980 C.ar   33  HIS33       0.0818
     68  ND1      -36.0950  -50.7510  -59.8740 N.ar   33  HIS33      -0.2268
     69  CD2      -36.7900  -48.8820  -60.7650 C.ar   33  HIS33       0.1154
     70  CE1      -35.0230  -50.0680  -60.2350 C.ar   33  HIS33       0.1986
     71  NE2      -35.4180  -48.9310  -60.7780 N.ar   33  HIS33      -0.2212
     72  N        -37.1820  -50.0410  -56.9600 N.am   34  PHE34      -0.1976
     73  CA       -36.1950  -50.5540  -56.0170 C.3    34  PHE34       0.1639
     74  C        -36.8210  -51.0100  -54.7050 C.2    34  PHE34       0.2290
     75  O        -36.1830  -51.7570  -53.9560 O.2    34  PHE34      -0.2864
     76  CB       -35.1240  -49.4940  -55.7450 C.3    34  PHE34       0.0560
     77  CG       -35.6780  -48.1340  -55.4210 C.ar   34  PHE34      -0.0200
     78  CD1      -36.0960  -47.8270  -54.1360 C.ar   34  PHE34      -0.0042
     79  CD2      -35.7700  -47.1580  -56.3990 C.ar   34  PHE34      -0.0042
     80  CE1      -36.6040  -46.5770  -53.8360 C.ar   34  PHE34      -0.0003
     81  CE2      -36.2770  -45.9050  -56.1050 C.ar   34  PHE34      -0.0003
     82  CZ       -36.6940  -45.6140  -54.8220 C.ar   34  PHE34      -0.0000
     83  N        -30.3050  -48.2760  -49.2390 N.3    58  PHE58      -0.1241
     84  CA       -30.1100  -49.5690  -49.8830 C.3    58  PHE58       0.1605
     85  C        -30.3490  -50.7490  -48.9500 C.2    58  PHE58       0.2264
     86  O        -30.4690  -51.8800  -49.4340 O.2    58  PHE58      -0.2867
     87  CB       -28.6960  -49.6590  -50.4680 C.3    58  PHE58       0.0534
     88  CG       -28.4170  -48.6480  -51.5470 C.ar   58  PHE58      -0.0203
     89  CD1      -29.4530  -48.0610  -52.2570 C.ar   58  PHE58      -0.0042
     90  CD2      -27.1160  -48.2840  -51.8530 C.ar   58  PHE58      -0.0042
     91  CE1      -29.1960  -47.1280  -53.2480 C.ar   58  PHE58      -0.0003
     92  CE2      -26.8530  -47.3530  -52.8440 C.ar   58  PHE58      -0.0003
     93  CZ       -27.8940  -46.7750  -53.5420 C.ar   58  PHE58      -0.0000
     94  N        -24.3280  -56.6980  -52.8780 N.3    67  ASP67      -0.1239
     95  CA       -25.0210  -55.8360  -53.8290 C.3    67  ASP67       0.1674
     96  C        -24.9570  -54.3740  -53.3970 C.2    67  ASP67       0.2266
     97  O        -24.7600  -53.4790  -54.2310 O.2    67  ASP67      -0.2867
     98  CB       -26.4740  -56.2930  -53.9730 C.3    67  ASP67       0.1410
     99  CG       -27.1760  -55.6570  -55.1570 C.2    67  ASP67       0.3668
    100  OD1      -26.4940  -55.0250  -55.9910 O.co2  67  ASP67      -0.2456
    101  OD2      -28.4140  -55.7920  -55.2540 O.co2  67  ASP67      -0.2456
    102  N        -23.3730  -51.1150  -55.3450 N.3    71  LYS71      -0.1245
    103  CA       -24.1490  -49.8990  -55.5750 C.3    71  LYS71       0.1561
    104  C        -23.3970  -48.6640  -55.0880 C.2    71  LYS71       0.2260
    105  O        -23.3590  -47.6370  -55.7790 O.2    71  LYS71      -0.2867
    106  CB       -25.5090  -49.9990  -54.8830 C.3    71  LYS71       0.0271
    107  CG       -26.4470  -51.0430  -55.4650 C.3    71  LYS71       0.0035
    108  CD       -27.8450  -50.9060  -54.8800 C.3    71  LYS71       0.0206
    109  CE       -28.8110  -51.8950  -55.5110 C.3    71  LYS71       0.1093
    110  NZ       -30.2160  -51.6500  -55.0840 N.3    71  LYS71      -0.1314
    111  N        -20.3590  -47.3820  -57.4460 N.3    74  SER74      -0.1202
    112  CA       -20.8220  -46.6210  -58.6000 C.3    74  SER74       0.2020
    113  C        -21.4900  -45.3160  -58.1850 C.2    74  SER74       0.2618
    114  O        -21.4250  -44.3290  -58.9260 O.2    74  SER74      -0.2717
    115  CB       -21.7780  -47.4710  -59.4350 C.3    74  SER74       0.2103
    116  OG       -21.1120  -48.6070  -59.9580 O.3    74  SER74      -0.2182
    117  N        -22.1290  -45.2840  -57.0110 N.am   75  ALA75      -0.1979
    118  CA       -22.6900  -44.0290  -56.5210 C.3    75  ALA75       0.1597
    119  C        -21.5940  -42.9980  -56.2780 C.2    75  ALA75       0.2287
    120  O        -21.7500  -41.8180  -56.6170 O.2    75  ALA75      -0.2864
    121  CB       -23.4900  -44.2760  -55.2430 C.3    75  ALA75       0.0319
    122  N        -20.4670  -41.6840  -59.6080 N.3    78  GLY78      -0.1225
    123  CA       -21.3990  -40.6870  -60.1100 C.3    78  GLY78       0.1811
    124  C        -21.2640  -39.3540  -59.3980 C.2    78  GLY78       0.2280
    125  O        -21.3510  -38.2910  -60.0220 O.2    78  GLY78      -0.2866
    126  N        -18.3300  -37.6360  -60.8470 N.3    81  ALA81      -0.1231
    127  CA       -18.7010  -37.0440  -62.1310 C.3    81  ALA81       0.1694
    128  C        -19.4350  -35.7210  -61.9340 C.2    81  ALA81       0.2591
    129  O        -19.1450  -34.7290  -62.6200 O.2    81  ALA81      -0.2718
    130  CB       -19.5600  -38.0230  -62.9320 C.3    81  ALA81       0.0304
    131  N        -20.3860  -35.6910  -60.9960 N.am   82  VAL82      -0.1980
    132  CA       -21.1010  -34.4540  -60.6730 C.3    82  VAL82       0.1595
    133  C        -20.1200  -33.3610  -60.2600 C.2    82  VAL82       0.2287
    134  O        -20.2020  -32.2100  -60.7160 O.2    82  VAL82      -0.2864
    135  CB       -22.1390  -34.7140  -59.5660 C.3    82  VAL82       0.0276
    136  CG1      -22.7860  -33.4140  -59.1260 C.3    82  VAL82       0.0022
    137  CG2      -23.1880  -35.7060  -60.0330 C.3    82  VAL82       0.0022
    138  N        -18.0770  -32.0200  -63.1550 N.3    85  VAL85      -0.1245
    139  CA       -18.9110  -31.1170  -63.9480 C.3    85  VAL85       0.1561
    140  C        -18.9650  -29.7400  -63.2960 C.2    85  VAL85       0.2260
    141  O        -18.7570  -28.7070  -63.9510 O.2    85  VAL85      -0.2867
    142  CB       -20.3220  -31.7070  -64.1350 C.3    85  VAL85       0.0252
    143  CG1      -21.2520  -30.6700  -64.7460 C.3    85  VAL85       0.0019
    144  CG2      -20.2700  -32.9460  -65.0090 C.3    85  VAL85       0.0019
    145  N        -15.0660  -35.8860  -65.6400 N.3   169  ALA169     -0.1245
    146  CA       -16.4570  -36.1730  -65.3070 C.3   169  ALA169      0.1562
    147  C        -16.9840  -37.3290  -66.1430 C.2   169  ALA169      0.2260
    148  O        -17.6380  -38.2440  -65.6250 O.2   169  ALA169     -0.2867
    149  CB       -17.3130  -34.9250  -65.5140 C.3   169  ALA169      0.0290
    150  N        -18.2140  -40.9140  -64.5610 N.3   173  LEU173     -0.1231
    151  CA       -19.5310  -41.4170  -64.9290 C.3   173  LEU173      0.1693
    152  C        -19.4270  -42.7710  -65.6190 C.2   173  LEU173      0.2592
    153  O        -20.2340  -43.6710  -65.3640 O.2   173  LEU173     -0.2718
    154  CB       -20.2380  -40.4020  -65.8280 C.3   173  LEU173      0.0284
    155  CG       -21.7110  -40.6440  -66.1520 C.3   173  LEU173      0.0019
    156  CD1      -22.5440  -40.6070  -64.8830 C.3   173  LEU173      0.0001
    157  CD2      -22.2080  -39.6160  -67.1530 C.3   173  LEU173      0.0001
    158  N        -18.4230  -42.9420  -66.4810 N.am  174  PHE174     -0.1976
    159  CA       -18.2510  -44.2150  -67.1700 C.3   174  PHE174      0.1639
    160  C        -17.8150  -45.3140  -66.2090 C.2   174  PHE174      0.2290
    161  O        -18.3090  -46.4450  -66.2860 O.2   174  PHE174     -0.2864
    162  CB       -17.2370  -44.0550  -68.3010 C.3   174  PHE174      0.0560
    163  CG       -17.0440  -45.2940  -69.1210 C.ar  174  PHE174     -0.0200
    164  CD1      -17.8880  -45.5730  -70.1830 C.ar  174  PHE174     -0.0042
    165  CD2      -16.0160  -46.1770  -68.8360 C.ar  174  PHE174     -0.0042
    166  CE1      -17.7130  -46.7120  -70.9430 C.ar  174  PHE174     -0.0003
    167  CE2      -15.8360  -47.3190  -69.5910 C.ar  174  PHE174     -0.0003
    168  CZ       -16.6850  -47.5870  -70.6470 C.ar  174  PHE174     -0.0000
    169  N        -18.4440  -45.5620  -63.0770 N.3   176  GLY176     -0.1210
    170  CA       -19.5840  -45.9740  -62.2720 C.3   176  GLY176      0.1956
    171  C        -20.4100  -47.0520  -62.9460 C.2   176  GLY176      0.2611
    172  O        -20.6910  -48.0990  -62.3580 O.2   176  GLY176     -0.2717
    173  N        -20.8090  -46.8080  -64.1960 N.am  177  TRP177     -0.1976
    174  CA       -21.5500  -47.8140  -64.9490 C.3   177  TRP177      0.1640
    175  C        -20.7370  -49.0900  -65.1170 C.2   177  TRP177      0.2290
    176  O        -21.2850  -50.1980  -65.0650 O.2   177  TRP177     -0.2864
    177  CB       -21.9500  -47.2480  -66.3110 C.3   177  TRP177      0.0576
    178  CG       -22.3200  -48.2830  -67.3160 C.ar  177  TRP177      0.0006
    179  CD1      -23.5350  -48.8830  -67.4700 C.ar  177  TRP177      0.0946
    180  CD2      -21.4670  -48.8360  -68.3230 C.ar  177  TRP177      0.0152
    181  NE1      -23.4900  -49.7810  -68.5090 N.ar  177  TRP177     -0.2442
    182  CE2      -22.2300  -49.7710  -69.0490 C.ar  177  TRP177      0.0810
    183  CE3      -20.1300  -48.6330  -68.6780 C.ar  177  TRP177      0.0012
    184  CZ2      -21.7010  -50.5010  -70.1100 C.ar  177  TRP177      0.0191
    185  CZ3      -19.6070  -49.3580  -69.7310 C.ar  177  TRP177      0.0001
    186  CH2      -20.3900  -50.2800  -70.4350 C.ar  177  TRP177      0.0015
    187  N        -20.6460  -51.8210  -62.1970 N.3   180  TYR180     -0.1227
    188  CA       -21.9480  -52.2850  -61.7410 C.3   180  TYR180      0.1736
    189  C        -22.7020  -52.9780  -62.8660 C.2   180  TYR180      0.2595
    190  O        -23.6780  -53.6890  -62.6140 O.2   180  TYR180     -0.2718
    191  CB       -22.7750  -51.1230  -61.1850 C.3   180  TYR180      0.0548
    192  CG       -23.9780  -51.5720  -60.3830 C.ar  180  TYR180     -0.0200
    193  CD1      -23.8360  -52.0100  -59.0720 C.ar  180  TYR180     -0.0009
    194  CD2      -25.2530  -51.5610  -60.9350 C.ar  180  TYR180     -0.0009
    195  CE1      -24.9280  -52.4240  -58.3350 C.ar  180  TYR180      0.0417
    196  CE2      -26.3490  -51.9740  -60.2040 C.ar  180  TYR180      0.0417
    197  CZ       -26.1800  -52.4030  -58.9050 C.ar  180  TYR180      0.1957
    198  OH       -27.2680  -52.8150  -58.1730 O.3   180  TYR180     -0.2866
    199  N        -22.2610  -52.7810  -64.1090 N.am  181  HIS181     -0.1975
    200  CA       -22.9240  -53.3850  -65.2540 C.3   181  HIS181      0.1656
    201  C        -22.0140  -54.2430  -66.1170 C.2   181  HIS181      0.2291
    202  O        -22.5250  -55.0210  -66.9310 O.2   181  HIS181     -0.2864
    203  CB       -23.5630  -52.2990  -66.1350 C.3   181  HIS181      0.0771
    204  CG       -24.5180  -51.4140  -65.3970 C.ar  181  HIS181      0.0820
    205  ND1      -24.1010  -50.4550  -64.4980 N.ar  181  HIS181     -0.2267
    206  CD2      -25.8700  -51.3500  -65.4150 C.ar  181  HIS181      0.1154
    207  CE1      -25.1550  -49.8360  -63.9990 C.ar  181  HIS181      0.1986
    208  NE2      -26.2410  -50.3600  -64.5380 N.ar  181  HIS181     -0.2212
@<TRIPOS>BOND
     1    37    35   ar
     2    37    38   ar
     3    35    33   ar
     4    38    36   ar
     5    33    32    1
     6    33    34   ar
     7    18    17    2
     8    32    29    1
     9    36    34   ar
    10   166   168   ar
    11   166   164   ar
    12   168   167   ar
    13    21    19    1
    14    27    26    1
    15   186   184   ar
    16   186   185   ar
    17    28    29    1
    18    28    24   am
    19    19    20    1
    20    19    16    1
    21   164   163   ar
    22    23    26    1
    23    23    24    1
    24    23    22    1
    25    17    22   am
    26    17    16    1
    27   184   182   ar
    28    29    30    1
    29   185   183   ar
    30    24    25    2
    31   167   165   ar
    32    30    31    2
    33    16    15    1
    34   163   165   ar
    35   163   162    1
    36    15    10   am
    37   182   181   ar
    38   182   180   ar
    39   183   180   ar
    40   181   179   ar
    41    12     9    1
    42    12    13    1
    43   180   178   ar
    44   162   159    1
    45    60    58   ar
    46    60    61   ar
    47    58    55   ar
    48    61    59   ar
    49    10     9    1
    50    10    11    2
    51     9     8    1
    52   179   178   ar
    53    55    57   ar
    54    55    53   ar
    55    59    57   ar
    56   178   177    1
    57    13    14    1
    58   159   158    1
    59   159   160    1
    60   157   155    1
    61    57    56   ar
    62    52    53    1
    63    52    49    1
    64    53    54   ar
    65   202   201    2
    66    39    40    1
    67    56    54   ar
    68   158   152   am
    69     8    14    1
    70     8     3   am
    71   177   174    1
    72   161   160    2
    73   155   154    1
    74   155   156    1
    75   147   148    2
    76   147   146    1
    77   203   204    1
    78   203   200    1
    79   201   200    1
    80    48    49    1
    81    48    41   am
    82    49    50    1
    83    50    51    2
    84     4     3    2
    85   154   151    1
    86   145   146    1
    87   152   153    2
    88   152   151    1
    89   149   146    1
    90     3     2    1
    91   206   204   ar
    92   206   208   ar
    93   204   205   ar
    94    40    41    1
    95    40    43    1
    96   200   199    1
    97   175   176    2
    98   175   174    1
    99    41    42    2
   100   144   142    1
   101   174   173    1
   102   151   150    1
   103   143   142    1
   104   208   207   ar
   105   205   207   ar
   106    43    44    1
   107    44    45    1
   108   173   171   am
   109   142   139    1
   110   199   189   am
   111     2     1    1
   112     2     5    1
   113   141   140    2
   114   139   140    1
   115   139   138    1
   116    45    46    1
   117     6     5    1
   118    46    47    1
   119   169   170    1
   120     5     7    1
   121   171   172    2
   122   171   170    1
   123   130   127    1
   124   189   190    2
   125   189   188    1
   126   129   128    2
   127   187   188    1
   128   127   128    1
   129   127   126    1
   130   128   131   am
   131   188   191    1
   132   191   192    1
   133   131   132    1
   134   194   192   ar
   135   194   196   ar
   136    71    69   ar
   137    71    70   ar
   138    69    67   ar
   139   134   133    2
   140   132   133    1
   141   132   135    1
   142   192   193   ar
   143    70    68   ar
   144   196   197   ar
   145    67    66    1
   146    67    68   ar
   147   123   122    1
   148   123   124    1
   149   137   135    1
   150   125   124    2
   151   116   115    1
   152    66    63    1
   153   135   136    1
   154   115   112    1
   155   193   195   ar
   156   114   113    2
   157   197   195   ar
   158   197   198    1
   159   112   113    1
   160   112   111    1
   161    63    62    1
   162    63    64    1
   163   113   117   am
   164    64    65    2
   165    64    72   am
   166   117   118    1
   167    72    73    1
   168   120   119    2
   169   118   119    1
   170   118   121    1
   171    79    81   ar
   172    79    77   ar
   173    81    82   ar
   174    73    76    1
   175    73    74    1
   176   100    99   ar
   177   105   104    2
   178    76    77    1
   179   103   102    1
   180   103   104    1
   181   103   106    1
   182   109   110    1
   183   109   108    1
   184   107   106    1
   185   107   108    1
   186    77    78   ar
   187   101    99   ar
   188    99    98    1
   189    82    80   ar
   190    74    75    2
   191    97    96    2
   192    78    80   ar
   193    98    95    1
   194    95    96    1
   195    95    94    1
   196    93    91   ar
   197    93    92   ar
   198    91    89   ar
   199    92    90   ar
   200    89    88   ar
   201    90    88   ar
   202    88    87    1
   203    87    84    1
   204    84    83    1
   205    84    85    1
   206    86    85    2
