@<TRIPOS>MOLECULE
tmp/6hqbA55.pdb
 159 152 0 0 0
SMALL
GASTEIGER

@<TRIPOS>ATOM
      1  N        -20.3860  -35.6910  -60.9960 N.3    82  VAL82      -0.1245
      2  CA       -21.1010  -34.4540  -60.6730 C.3    82  VAL82       0.1561
      3  C        -20.1200  -33.3610  -60.2600 C.2    82  VAL82       0.2260
      4  O        -20.2020  -32.2100  -60.7160 O.2    82  VAL82      -0.2867
      5  CB       -22.1390  -34.7140  -59.5660 C.3    82  VAL82       0.0252
      6  CG1      -22.7860  -33.4140  -59.1260 C.3    82  VAL82       0.0019
      7  CG2      -23.1880  -35.7060  -60.0330 C.3    82  VAL82       0.0019
      8  N        -19.2270  -29.7080  -61.9850 N.3    86  TRP86      -0.1241
      9  CA       -19.3170  -28.4280  -61.2860 C.3    86  TRP86       0.1605
     10  C        -18.0050  -27.6510  -61.3590 C.2    86  TRP86       0.2264
     11  O        -18.0110  -26.4240  -61.5120 O.2    86  TRP86      -0.2867
     12  CB       -19.7190  -28.6430  -59.8280 C.3    86  TRP86       0.0550
     13  CG       -19.4730  -27.4310  -58.9790 C.ar   86  TRP86       0.0003
     14  CD1      -20.1810  -26.2650  -58.9900 C.ar   86  TRP86       0.0946
     15  CD2      -18.4390  -27.2640  -58.0010 C.ar   86  TRP86       0.0152
     16  NE1      -19.6540  -25.3830  -58.0770 N.ar   86  TRP86      -0.2442
     17  CE2      -18.5850  -25.9730  -57.4560 C.ar   86  TRP86       0.0810
     18  CE3      -17.4070  -28.0810  -57.5300 C.ar   86  TRP86       0.0012
     19  CZ2      -17.7380  -25.4810  -56.4660 C.ar   86  TRP86       0.0191
     20  CZ3      -16.5670  -27.5900  -56.5460 C.ar   86  TRP86       0.0001
     21  CH2      -16.7380  -26.3020  -56.0250 C.ar   86  TRP86       0.0015
     22  N        -16.7630  -23.8300  -63.0060 N.3    90  MET90      -0.1245
     23  CA       -16.0320  -22.6940  -62.4570 C.3    90  MET90       0.1570
     24  C        -14.8660  -22.3050  -63.3510 C.2    90  MET90       0.2261
     25  O        -14.6260  -21.1140  -63.5850 O.2    90  MET90      -0.2867
     26  CB       -15.5430  -23.0170  -61.0470 C.3    90  MET90       0.0387
     27  CG       -16.6610  -23.2940  -60.0620 C.3    90  MET90       0.0595
     28  SD       -17.9570  -22.0460  -60.1530 S.3    90  MET90      -0.1393
     29  CE       -19.2120  -22.9220  -61.0890 C.3    90  MET90       0.0692
     30  N        -16.3280  -20.5360  -66.4470 N.3    93  HIS93      -0.1241
     31  CA       -16.8090  -19.1980  -66.1220 C.3    93  HIS93       0.1621
     32  C        -15.6590  -18.2510  -65.8090 C.2    93  HIS93       0.2264
     33  O        -15.7770  -17.0420  -66.0330 O.2    93  HIS93      -0.2867
     34  CB       -17.7880  -19.2550  -64.9510 C.3    93  HIS93       0.0745
     35  CG       -19.2240  -19.3430  -65.3690 C.ar   93  HIS93       0.0817
     36  ND1      -19.9860  -18.2290  -65.6490 N.ar   93  HIS93      -0.2268
     37  CD2      -20.0360  -20.4110  -65.5530 C.ar   93  HIS93       0.1154
     38  CE1      -21.2060  -18.6070  -65.9870 C.ar   93  HIS93       0.1986
     39  NE2      -21.2630  -19.9260  -65.9370 N.ar   93  HIS93      -0.2212
     40  N        -16.8660  -13.2420  -61.4670 N.3   114  ALA114     -0.1231
     41  CA       -16.8660  -14.3840  -62.3770 C.3   114  ALA114      0.1694
     42  C        -18.2880  -14.7880  -62.7430 C.2   114  ALA114      0.2591
     43  O        -18.6100  -15.9770  -62.8390 O.2   114  ALA114     -0.2718
     44  CB       -16.1100  -15.5680  -61.7750 C.3   114  ALA114      0.0304
     45  N        -19.1570  -13.8030  -62.9620 N.am  115  GLN115     -0.1979
     46  CA       -20.5240  -14.0720  -63.3880 C.3   115  GLN115      0.1601
     47  C        -21.0960  -12.8200  -64.0380 C.2   115  GLN115      0.2287
     48  O        -20.8810  -11.7070  -63.5500 O.2   115  GLN115     -0.2864
     49  CB       -21.4050  -14.5130  -62.2140 C.3   115  GLN115      0.0394
     50  CG       -22.8210  -14.8950  -62.6160 C.3   115  GLN115      0.0908
     51  CD       -23.6800  -15.2800  -61.4300 C.2   115  GLN115      0.2608
     52  OE1      -23.2040  -15.3300  -60.2960 O.2   115  GLN115     -0.2717
     53  NE2      -24.9540  -15.5530  -61.6840 N.am  115  GLN115     -0.0878
     54  N        -28.0060   -5.8060  -61.7590 N.3   126  LEU126     -0.1245
     55  CA       -27.2040   -6.6150  -60.8500 C.3   126  LEU126      0.1561
     56  C        -25.7410   -6.6960  -61.2680 C.2   126  LEU126      0.2260
     57  O        -24.9240   -7.2070  -60.4950 O.2   126  LEU126     -0.2867
     58  CB       -27.7980   -8.0220  -60.7420 C.3   126  LEU126      0.0270
     59  CG       -29.2560   -8.0950  -60.2740 C.3   126  LEU126      0.0019
     60  CD1      -29.7960   -9.5110  -60.3850 C.3   126  LEU126      0.0001
     61  CD2      -29.4030   -7.5760  -58.8520 C.3   126  LEU126      0.0001
     62  N        -21.1750   -9.7650  -61.1420 N.3   137  ILE137     -0.1231
     63  CA       -21.3650  -10.0520  -59.7250 C.3   137  ILE137      0.1692
     64  C        -20.0030  -10.2920  -59.0880 C.2   137  ILE137      0.2592
     65  O        -19.2470  -11.1660  -59.5270 O.2   137  ILE137     -0.2718
     66  CB       -22.2890  -11.2610  -59.5230 C.3   137  ILE137      0.0266
     67  CG1      -23.6950  -10.9540  -60.0440 C.3   137  ILE137      0.0019
     68  CG2      -22.3290  -11.6640  -58.0550 C.3   137  ILE137      0.0020
     69  CD1      -24.6910  -12.0690  -59.8010 C.3   137  ILE137      0.0001
     70  N        -19.6890   -9.5180  -58.0510 N.am  138  GLN138     -0.1966
     71  CA       -18.4330   -9.6920  -57.3310 C.3   138  GLN138      0.1733
     72  C        -18.4610  -11.0080  -56.5610 C.2   138  GLN138      0.2616
     73  O        -19.2800  -11.1860  -55.6540 O.2   138  GLN138     -0.2715
     74  CB       -18.1960   -8.5180  -56.3850 C.3   138  GLN138      0.0408
     75  CG       -16.9160   -8.6270  -55.5690 C.3   138  GLN138      0.0908
     76  CD       -16.6320   -7.3810  -54.7540 C.2   138  GLN138      0.2608
     77  OE1      -17.3730   -6.4000  -54.8190 O.2   138  GLN138     -0.2717
     78  NE2      -15.5530   -7.4130  -53.9800 N.am  138  GLN138     -0.0878
     79  N        -17.5660  -11.9290  -56.9220 N.am  139  ILE139     -0.1963
     80  CA       -17.5710  -13.2550  -56.3150 C.3   139  ILE139      0.1727
     81  C        -16.8600  -13.2200  -54.9670 C.2   139  ILE139      0.2617
     82  O        -16.0260  -12.3540  -54.6870 O.2   139  ILE139     -0.2715
     83  CB       -16.9370  -14.2990  -57.2500 C.3   139  ILE139      0.0290
     84  CG1      -15.4720  -13.9550  -57.5200 C.3   139  ILE139      0.0022
     85  CG2      -17.7220  -14.3940  -58.5440 C.3   139  ILE139      0.0023
     86  CD1      -14.7360  -15.0090  -58.3100 C.3   139  ILE139      0.0001
     87  N        -17.2030  -14.1910  -54.1180 N.am  140  THR140     -0.1937
     88  CA       -16.6160  -14.3150  -52.7940 C.3   140  THR140      0.2028
     89  C        -16.0160  -15.6880  -52.5250 C.2   140  THR140      0.2642
     90  O        -15.4820  -15.9060  -51.4320 O.2   140  THR140     -0.2714
     91  CB       -17.6620  -14.0090  -51.7110 C.3   140  THR140      0.1808
     92  OG1      -18.7760  -14.8990  -51.8540 O.3   140  THR140     -0.2208
     93  CG2      -18.1460  -12.5710  -51.8230 C.3   140  THR140      0.0379
     94  N        -16.0870  -16.6170  -53.4800 N.am  141  SER141     -0.1949
     95  CA       -15.5230  -17.9460  -53.2810 C.3   141  SER141      0.1924
     96  C        -14.0020  -17.9640  -53.3640 C.2   141  SER141      0.2314
     97  O        -13.3950  -18.9950  -53.0550 O.2   141  SER141     -0.2863
     98  CB       -16.1150  -18.9220  -54.3020 C.3   141  SER141      0.2116
     99  OG       -15.9730  -18.4350  -55.6250 O.3   141  SER141     -0.2180
    100  N        -11.8110  -17.6090  -56.1150 N.3   143  LEU143     -0.1245
    101  CA       -11.2710  -18.4070  -57.2070 C.3   143  LEU143      0.1561
    102  C        -10.0850  -17.7380  -57.8860 C.2   143  LEU143      0.2260
    103  O         -9.1580  -18.4320  -58.3200 O.2   143  LEU143     -0.2867
    104  CB       -12.3630  -18.6930  -58.2430 C.3   143  LEU143      0.0270
    105  CG       -13.5480  -19.5340  -57.7630 C.3   143  LEU143      0.0019
    106  CD1      -14.5950  -19.6520  -58.8580 C.3   143  LEU143      0.0001
    107  CD2      -13.0840  -20.9100  -57.3080 C.3   143  LEU143      0.0001
    108  N        -26.2370   -2.8730  -56.9920 N.3   664  ALA664     -0.1245
    109  CA       -25.8650   -4.2270  -57.3810 C.3   664  ALA664      0.1562
    110  C        -26.0240   -5.2330  -56.2490 C.2   664  ALA664      0.2260
    111  O        -25.9400   -6.4410  -56.4960 O.2   664  ALA664     -0.2867
    112  CB       -24.4180   -4.2580  -57.8890 C.3   664  ALA664      0.0290
    113  N        -30.1020   -7.8290  -54.8080 N.3   667  ALA667     -0.1231
    114  CA       -30.4200   -9.2480  -54.7010 C.3   667  ALA667      0.1694
    115  C        -30.1780   -9.7700  -53.2910 C.2   667  ALA667      0.2592
    116  O        -30.8990  -10.6600  -52.8250 O.2   667  ALA667     -0.2718
    117  CB       -29.6000  -10.0500  -55.7130 C.3   667  ALA667      0.0304
    118  N        -29.1890   -9.2160  -52.5890 N.am  668  TYR668     -0.1976
    119  CA       -28.9130   -9.6700  -51.2310 C.3   668  TYR668      0.1639
    120  C        -30.0210   -9.2600  -50.2700 C.2   668  TYR668      0.2290
    121  O        -30.4110  -10.0450  -49.4040 O.2   668  TYR668     -0.2864
    122  CB       -27.5570   -9.1440  -50.7640 C.3   668  TYR668      0.0560
    123  CG       -26.4030   -9.7700  -51.5090 C.ar  668  TYR668     -0.0198
    124  CD1      -26.1350  -11.1260  -51.3910 C.ar  668  TYR668     -0.0009
    125  CD2      -25.5880   -9.0100  -52.3380 C.ar  668  TYR668     -0.0009
    126  CE1      -25.0890  -11.7080  -52.0740 C.ar  668  TYR668      0.0417
    127  CE2      -24.5340   -9.5850  -53.0250 C.ar  668  TYR668      0.0417
    128  CZ       -24.2880  -10.9360  -52.8880 C.ar  668  TYR668      0.1957
    129  OH       -23.2420  -11.5180  -53.5680 O.3   668  TYR668     -0.2866
    130  N        -32.9190  -11.6300  -50.9960 N.3   671  MET671     -0.1245
    131  CA       -32.7310  -12.9430  -50.3870 C.3   671  MET671      0.1570
    132  C        -32.7730  -12.8760  -48.8650 C.2   671  MET671      0.2261
    133  O        -33.1390  -13.8580  -48.2160 O.2   671  MET671     -0.2867
    134  CB       -31.4160  -13.5640  -50.8570 C.3   671  MET671      0.0387
    135  CG       -31.3390  -13.7430  -52.3610 C.3   671  MET671      0.0595
    136  SD       -32.9190  -14.2760  -53.0440 S.3   671  MET671     -0.1393
    137  CE       -33.0170  -15.9510  -52.4130 C.3   671  MET671      0.0692
    138  N        -26.6440  -15.6870  -45.1010 N.3   740  TRP740     -0.1241
    139  CA       -25.7950  -15.5830  -46.2830 C.3   740  TRP740      0.1605
    140  C        -25.9530  -14.2250  -46.9500 C.2   740  TRP740      0.2264
    141  O        -24.9640  -13.5370  -47.2310 O.2   740  TRP740     -0.2867
    142  CB       -26.1430  -16.7150  -47.2480 C.3   740  TRP740      0.0550
    143  CG       -25.5720  -16.5880  -48.6300 C.ar  740  TRP740      0.0003
    144  CD1      -24.3330  -16.9830  -49.0450 C.ar  740  TRP740      0.0946
    145  CD2      -26.2330  -16.0600  -49.7900 C.ar  740  TRP740      0.0152
    146  NE1      -24.1760  -16.7210  -50.3860 N.ar  740  TRP740     -0.2442
    147  CE2      -25.3280  -16.1540  -50.8670 C.ar  740  TRP740      0.0810
    148  CE3      -27.4980  -15.5090  -50.0200 C.ar  740  TRP740      0.0012
    149  CZ2      -25.6480  -15.7190  -52.1550 C.ar  740  TRP740      0.0191
    150  CZ3      -27.8150  -15.0770  -51.3020 C.ar  740  TRP740      0.0001
    151  CH2      -26.8930  -15.1850  -52.3510 C.ar  740  TRP740      0.0015
    152  N        -22.9700  -11.3990  -46.9340 N.3   744  LEU744     -0.1245
    153  CA       -22.3820  -10.9620  -48.1970 C.3   744  LEU744      0.1561
    154  C        -22.6180   -9.4750  -48.4350 C.2   744  LEU744      0.2260
    155  O        -21.6910   -8.7510  -48.8250 O.2   744  LEU744     -0.2867
    156  CB       -22.9280  -11.7980  -49.3540 C.3   744  LEU744      0.0270
    157  CG       -22.0870  -13.0360  -49.6880 C.3   744  LEU744      0.0019
    158  CD1      -22.1200  -14.0610  -48.5590 C.3   744  LEU744      0.0001
    159  CD2      -22.5130  -13.6690  -51.0060 C.3   744  LEU744      0.0001
@<TRIPOS>BOND
     1    30    31    1
     2    31    32    1
     3    31    34    1
     4    33    32    2
     5    38    39   ar
     6    38    36   ar
     7    39    37   ar
     8    36    35   ar
     9    37    35   ar
    10    35    34    1
    11    47    48    2
    12    47    46    1
    13    25    24    2
    14    46    45    1
    15    46    49    1
    16    24    23    1
    17    22    23    1
    18    45    42   am
    19    43    42    2
    20    42    41    1
    21    50    49    1
    22    50    51    1
    23    23    26    1
    24    41    44    1
    25    41    40    1
    26     8     9    1
    27    54    55    1
    28    53    51   am
    29    11    10    2
    30    51    52    2
    31    10     9    1
    32     9    12    1
    33    56    55    1
    34    56    57    2
    35    62    63    1
    36    29    28    1
    37    26    27    1
    38     1     2    1
    39    55    58    1
    40    58    59    1
    41     4     3    2
    42     2     3    1
    43     2     5    1
    44    60    59    1
    45    59    61    1
    46    28    27    1
    47    67    69    1
    48    67    66    1
    49     7     5    1
    50    12    13    1
    51    63    66    1
    52    63    64    1
    53     5     6    1
    54    65    64    2
    55    66    68    1
    56    64    70   am
    57    14    13   ar
    58    14    16   ar
    59    13    15   ar
    60   106   105    1
    61    85    83    1
    62   103   102    2
    63    86    84    1
    64   104   105    1
    65   104   101    1
    66    16    17   ar
    67    70    71    1
    68    15    18   ar
    69    15    17   ar
    70   112   109    1
    71   102   101    1
    72   105   107    1
    73    18    20   ar
    74    84    83    1
    75    17    19   ar
    76   109   108    1
    77   109   110    1
    78    71    72    1
    79    71    74    1
    80    83    80    1
    81   101   100    1
    82    79    72   am
    83    79    80    1
    84    72    73    2
    85    20    21   ar
    86   111   110    2
    87    19    21   ar
    88    74    75    1
    89    80    81    1
    90   117   114    1
    91    99    98    1
    92    75    76    1
    93    81    82    2
    94    81    87   am
    95    77    76    2
    96   113   114    1
    97    76    78   am
    98   114   115    1
    99    98    95    1
   100    87    88    1
   101   129   128    1
   102    94    95    1
   103    94    89   am
   104    96    95    1
   105    96    97    2
   106   115   116    2
   107   115   118   am
   108   136   137    1
   109   136   135    1
   110   127   128   ar
   111   127   125   ar
   112   128   126   ar
   113    88    89    1
   114    88    91    1
   115   118   119    1
   116    89    90    2
   117   135   134    1
   118   151   149   ar
   119   151   150   ar
   120   125   123   ar
   121   149   147   ar
   122   126   124   ar
   123    92    91    1
   124    93    91    1
   125   123   124   ar
   126   123   122    1
   127   150   148   ar
   128   119   122    1
   129   119   120    1
   130   159   157    1
   131   130   131    1
   132   147   146   ar
   133   147   145   ar
   134   134   131    1
   135   131   132    1
   136   146   144   ar
   137   120   121    2
   138   148   145   ar
   139   145   143   ar
   140   157   156    1
   141   157   158    1
   142   156   153    1
   143   144   143   ar
   144   132   133    2
   145   155   154    2
   146   143   142    1
   147   154   153    1
   148   153   152    1
   149   142   139    1
   150   141   140    2
   151   140   139    1
   152   139   138    1
