@<TRIPOS>MOLECULE
tmp/6hqbA20.pdb
 120 115 0 0 0
SMALL
GASTEIGER

@<TRIPOS>ATOM
      1  N        -10.2380  -51.7650  -17.1850 N.3   332  PHE332     -0.1227
      2  CA       -11.4000  -50.8870  -17.1400 C.3   332  PHE332      0.1736
      3  C        -12.4500  -51.2290  -18.1880 C.2   332  PHE332      0.2596
      4  O        -13.6450  -51.0360  -17.9390 O.2   332  PHE332     -0.2718
      5  CB       -10.9680  -49.4290  -17.3190 C.3   332  PHE332      0.0547
      6  CG       -10.2480  -48.8540  -16.1310 C.ar  332  PHE332     -0.0202
      7  CD1      -10.3540  -49.4460  -14.8820 C.ar  332  PHE332     -0.0042
      8  CD2       -9.4730  -47.7140  -16.2620 C.ar  332  PHE332     -0.0042
      9  CE1       -9.6960  -48.9140  -13.7870 C.ar  332  PHE332     -0.0003
     10  CE2       -8.8130  -47.1760  -15.1720 C.ar  332  PHE332     -0.0003
     11  CZ        -8.9240  -47.7770  -13.9330 C.ar  332  PHE332     -0.0000
     12  N        -12.0370  -51.7290  -19.3530 N.am  333  THR333     -0.1953
     13  CA       -12.9500  -51.9970  -20.4570 C.3   333  THR333      0.1897
     14  C        -13.0950  -53.4830  -20.7640 C.2   333  THR333      0.2313
     15  O        -13.7180  -53.8370  -21.7710 O.2   333  THR333     -0.2863
     16  CB       -12.4890  -51.2600  -21.7160 C.3   333  THR333      0.1794
     17  OG1      -11.2000  -51.7470  -22.1060 O.3   333  THR333     -0.2208
     18  CG2      -12.4110  -49.7610  -21.4610 C.3   333  THR333      0.0378
     19  N        -17.3470  -55.6940  -24.6610 N.3   424  ASN424     -0.1225
     20  CA       -16.2520  -54.9380  -25.2520 C.3   424  ASN424      0.1785
     21  C        -16.4910  -53.4530  -25.0120 C.2   424  ASN424      0.2597
     22  O        -17.1670  -53.0820  -24.0480 O.2   424  ASN424     -0.2718
     23  CB       -16.1090  -55.2460  -26.7450 C.3   424  ASN424      0.1169
     24  CG       -17.3930  -55.0250  -27.5140 C.2   424  ASN424      0.2627
     25  OD1      -18.4810  -55.3250  -27.0250 O.2   424  ASN424     -0.2716
     26  ND2      -17.2730  -54.4990  -28.7280 N.am  424  ASN424     -0.0877
     27  N        -15.9410  -52.5940  -25.8700 N.am  425  LEU425     -0.1980
     28  CA       -16.1510  -51.1600  -25.7000 C.3   425  LEU425      0.1596
     29  C        -17.6140  -50.7950  -25.9190 C.2   425  LEU425      0.2287
     30  O        -18.2400  -50.1550  -25.0650 O.2   425  LEU425     -0.2864
     31  CB       -15.2510  -50.3780  -26.6580 C.3   425  LEU425      0.0297
     32  CG       -13.7430  -50.6210  -26.5620 C.3   425  LEU425      0.0022
     33  CD1      -12.9990  -49.7890  -27.5930 C.3   425  LEU425      0.0001
     34  CD2      -13.2340  -50.3210  -25.1630 C.3   425  LEU425      0.0001
     35  N        -20.1150  -52.5380  -23.2880 N.3   428  ARG428     -0.1231
     36  CA       -20.0370  -51.9440  -21.9580 C.3   428  ARG428      0.1694
     37  C        -20.5200  -50.5000  -21.9560 C.2   428  ARG428      0.2591
     38  O        -21.0820  -50.0410  -20.9540 O.2   428  ARG428     -0.2718
     39  CB       -18.6100  -52.0340  -21.4170 C.3   428  ARG428      0.0321
     40  CG       -18.2210  -53.4290  -20.9540 C.3   428  ARG428      0.0489
     41  CD       -16.9900  -53.3990  -20.0660 C.3   428  ARG428      0.2205
     42  NE       -16.8000  -54.6660  -19.3640 N.pl3 428  ARG428     -0.0865
     43  CZ       -15.9120  -54.8590  -18.3950 C.cat 428  ARG428      0.5346
     44  NH1      -15.1270  -53.8640  -18.0040 N.pl3 428  ARG428      0.1354
     45  NH2      -15.8100  -56.0450  -17.8120 N.pl3 428  ARG428      0.1354
     46  N        -20.3180  -49.7690  -23.0560 N.am  429  MET429     -0.1979
     47  CA       -20.8910  -48.4300  -23.1440 C.3   429  MET429      0.1605
     48  C        -22.4110  -48.4760  -23.1660 C.2   429  MET429      0.2287
     49  O        -23.0650  -47.5770  -22.6250 O.2   429  MET429     -0.2864
     50  CB       -20.3710  -47.7040  -24.3820 C.3   429  MET429      0.0413
     51  CG       -18.9710  -47.1470  -24.2350 C.3   429  MET429      0.0598
     52  SD       -18.7830  -45.6110  -25.1550 S.3   429  MET429     -0.1393
     53  CE       -19.8780  -44.5320  -24.2410 C.3   429  MET429      0.0692
     54  N        -24.1600  -50.3690  -21.4480 N.3   431  ARG431     -0.1231
     55  CA       -24.6490  -50.7040  -20.1140 C.3   431  ARG431      0.1694
     56  C        -24.9820  -49.4480  -19.3180 C.2   431  ARG431      0.2592
     57  O        -26.1170  -49.2700  -18.8610 O.2   431  ARG431     -0.2718
     58  CB       -23.6140  -51.5540  -19.3710 C.3   431  ARG431      0.0321
     59  CG       -23.1660  -52.7950  -20.1240 C.3   431  ARG431      0.0489
     60  CD       -23.2280  -54.0340  -19.2440 C.3   431  ARG431      0.2205
     61  NE       -22.5740  -55.1840  -19.8650 N.pl3 431  ARG431     -0.0865
     62  CZ       -21.3920  -55.6640  -19.4910 C.cat 431  ARG431      0.5346
     63  NH1      -20.7300  -55.1020  -18.4880 N.pl3 431  ARG431      0.1354
     64  NH2      -20.8730  -56.7130  -20.1150 N.pl3 431  ARG431      0.1354
     65  N        -24.0040  -48.5630  -19.1440 N.am  432  HIS432     -0.1976
     66  CA       -24.1750  -47.3590  -18.3280 C.3   432  HIS432      0.1656
     67  C        -24.5790  -46.1520  -19.1720 C.2   432  HIS432      0.2291
     68  O        -24.0210  -45.0610  -19.0500 O.2   432  HIS432     -0.2864
     69  CB       -22.8980  -47.0800  -17.5450 C.3   432  HIS432      0.0771
     70  CG       -21.7110  -46.7780  -18.4060 C.ar  432  HIS432      0.0820
     71  ND1      -21.1920  -47.6840  -19.3050 N.ar  432  HIS432     -0.2267
     72  CD2      -20.9380  -45.6710  -18.4980 C.ar  432  HIS432      0.1154
     73  CE1      -20.1520  -47.1460  -19.9170 C.ar  432  HIS432      0.1986
     74  NE2      -19.9760  -45.9250  -19.4450 N.ar  432  HIS432     -0.2212
     75  N        -25.6840  -43.1870  -17.0500 N.3   435  ALA435     -0.1231
     76  CA       -24.5790  -42.4690  -16.4220 C.3   435  ALA435      0.1694
     77  C        -24.0470  -41.3740  -17.3370 C.2   435  ALA435      0.2591
     78  O        -24.0190  -40.1920  -16.9710 O.2   435  ALA435     -0.2718
     79  CB       -23.4670  -43.4490  -16.0450 C.3   435  ALA435      0.0304
     80  N        -23.6250  -41.7570  -18.5440 N.am  436  ILE436     -0.1980
     81  CA       -23.0550  -40.7940  -19.4790 C.3   436  ILE436      0.1595
     82  C        -24.0730  -39.7200  -19.8300 C.2   436  ILE436      0.2287
     83  O        -23.7480  -38.5250  -19.8640 O.2   436  ILE436     -0.2864
     84  CB       -22.5460  -41.5190  -20.7370 C.3   436  ILE436      0.0276
     85  CG1      -21.7260  -42.7460  -20.3430 C.3   436  ILE436      0.0022
     86  CG2      -21.7250  -40.5730  -21.5990 C.3   436  ILE436      0.0022
     87  CD1      -21.8220  -43.8780  -21.3350 C.3   436  ILE436      0.0001
     88  N        -24.7330  -37.3430  -16.8770 N.3   439  HIS439     -0.1226
     89  CA       -23.5740  -36.4960  -16.6220 C.3   439  HIS439      0.1752
     90  C        -23.4500  -35.4070  -17.6790 C.2   439  HIS439      0.2595
     91  O        -23.1670  -34.2480  -17.3520 O.2   439  HIS439     -0.2718
     92  CB       -22.3060  -37.3440  -16.5530 C.3   439  HIS439      0.0759
     93  CG       -22.2020  -38.1620  -15.3030 C.ar  439  HIS439      0.0818
     94  ND1      -22.7080  -39.4400  -15.2060 N.ar  439  HIS439     -0.2268
     95  CD2      -21.6630  -37.8780  -14.0940 C.ar  439  HIS439      0.1154
     96  CE1      -22.4790  -39.9110  -13.9930 C.ar  439  HIS439      0.1986
     97  NE2      -21.8460  -38.9820  -13.2990 N.ar  439  HIS439     -0.2212
     98  N        -23.6830  -35.7490  -18.9490 N.am  440  LEU440     -0.1980
     99  CA       -23.6700  -34.7250  -19.9880 C.3   440  LEU440      0.1596
    100  C        -24.8240  -33.7460  -19.8170 C.2   440  LEU440      0.2287
    101  O        -24.6780  -32.5610  -20.1280 O.2   440  LEU440     -0.2864
    102  CB       -23.7150  -35.3730  -21.3710 C.3   440  LEU440      0.0297
    103  CG       -23.3080  -34.4740  -22.5380 C.3   440  LEU440      0.0022
    104  CD1      -22.1040  -33.6300  -22.1640 C.3   440  LEU440      0.0001
    105  CD2      -22.9900  -35.3220  -23.7480 C.3   440  LEU440      0.0001
    106  N        -23.5710  -31.3650  -17.2740 N.3   443  VAL443     -0.1245
    107  CA       -22.5430  -30.5020  -17.8540 C.3   443  VAL443      0.1561
    108  C        -23.1780  -29.4290  -18.7280 C.2   443  VAL443      0.2260
    109  O        -22.7620  -28.2650  -18.7090 O.2   443  VAL443     -0.2867
    110  CB       -21.5190  -31.3350  -18.6460 C.3   443  VAL443      0.0252
    111  CG1      -20.5170  -30.4230  -19.3350 C.3   443  VAL443      0.0019
    112  CG2      -20.8010  -32.2930  -17.7300 C.3   443  VAL443      0.0019
    113  N        -25.9440  -37.7030  -29.0310 N.3   550  LEU550     -0.1245
    114  CA       -25.4630  -38.8930  -28.3450 C.3   550  LEU550      0.1561
    115  C        -26.6010  -39.7080  -27.7520 C.2   550  LEU550      0.2260
    116  O        -26.6040  -40.9380  -27.8730 O.2   550  LEU550     -0.2867
    117  CB       -24.4740  -38.5010  -27.2460 C.3   550  LEU550      0.0270
    118  CG       -23.7930  -39.6730  -26.5390 C.3   550  LEU550      0.0019
    119  CD1      -22.9480  -40.4660  -27.5240 C.3   550  LEU550      0.0001
    120  CD2      -22.9530  -39.1830  -25.3710 C.3   550  LEU550      0.0001
@<TRIPOS>BOND
     1   113   114    1
     2    26    24   am
     3   114   115    1
     4   114   117    1
     5   116   115    2
     6    33    32    1
     7   119   118    1
     8    24    25    2
     9    24    23    1
    10   117   118    1
    11    23    20    1
    12    31    32    1
    13    31    28    1
    14    32    34    1
    15   118   120    1
    16    29    28    1
    17    29    30    2
    18    27    28    1
    19    27    21   am
    20    20    21    1
    21    20    19    1
    22    52    53    1
    23    52    51    1
    24    21    22    2
    25    50    51    1
    26    50    47    1
    27   105   103    1
    28    35    36    1
    29    48    47    1
    30    48    49    2
    31    47    46    1
    32    46    37   am
    33   103   104    1
    34   103   102    1
    35    17    16    1
    36    36    37    1
    37    36    39    1
    38    37    38    2
    39    15    14    2
    40    16    18    1
    41    16    13    1
    42    86    84    1
    43    54    55    1
    44    39    40    1
    45   102    99    1
    46    87    85    1
    47    40    41    1
    48    14    13    1
    49    84    85    1
    50    84    81    1
    51    13    12    1
    52   101   100    2
    53    59    58    1
    54    59    60    1
    55    64    62    1
    56    55    58    1
    57    55    56    1
    58    41    42    1
    59    99   100    1
    60    99    98    1
    61    73    74   ar
    62    73    71   ar
    63    61    62    2
    64    61    60    1
    65    83    82    2
    66    82    81    1
    67    62    63    1
    68    81    80    1
    69    74    72   ar
    70    42    43    2
    71    12     3   am
    72   111   110    1
    73    56    65   am
    74    56    57    2
    75    71    70   ar
    76    67    68    2
    77    67    66    1
    78    65    66    1
    79    98    90   am
    80   108   109    2
    81   108   107    1
    82   110   107    1
    83   110   112    1
    84    80    77   am
    85    72    70   ar
    86    70    69    1
    87    43    44    1
    88    43    45    1
    89    66    69    1
    90     3     4    2
    91     3     2    1
    92   107   106    1
    93    90    91    2
    94    90    89    1
    95    77    78    2
    96    77    76    1
    97     5     2    1
    98     5     6    1
    99     1     2    1
   100    75    76    1
   101    88    89    1
   102    89    92    1
   103    92    93    1
   104    76    79    1
   105     8     6   ar
   106     8    10   ar
   107     6     7   ar
   108    93    94   ar
   109    93    95   ar
   110    94    96   ar
   111    10    11   ar
   112     7     9   ar
   113    95    97   ar
   114    96    97   ar
   115    11     9   ar
