@<TRIPOS>MOLECULE
tmp/6hqbB30.pdb
 103 103 0 0 0
SMALL
GASTEIGER

@<TRIPOS>ATOM
      1  N        -64.4890    6.0630  -52.1970 N.3   460  TRP460     -0.1227
      2  CA       -65.8290    6.4780  -52.5960 C.3   460  TRP460      0.1737
      3  C        -66.7780    6.5000  -51.4040 C.2   460  TRP460      0.2595
      4  O        -67.6150    7.4020  -51.2890 O.2   460  TRP460     -0.2718
      5  CB       -66.3560    5.5530  -53.6900 C.3   460  TRP460      0.0564
      6  CG       -67.7220    5.9140  -54.1510 C.ar  460  TRP460      0.0003
      7  CD1      -68.0490    6.8520  -55.0830 C.ar  460  TRP460      0.0946
      8  CD2      -68.9560    5.3470  -53.7000 C.ar  460  TRP460      0.0152
      9  NE1      -69.4120    6.9040  -55.2440 N.ar  460  TRP460     -0.2442
     10  CE2      -69.9920    5.9900  -54.4050 C.ar  460  TRP460      0.0810
     11  CE3      -69.2860    4.3580  -52.7690 C.ar  460  TRP460      0.0012
     12  CZ2      -71.3350    5.6760  -54.2100 C.ar  460  TRP460      0.0191
     13  CZ3      -70.6190    4.0480  -52.5750 C.ar  460  TRP460      0.0001
     14  CH2      -71.6270    4.7050  -53.2930 C.ar  460  TRP460      0.0015
     15  N        -66.6660    5.5160  -50.5070 N.am  461  ILE461     -0.1980
     16  CA       -67.4600    5.5430  -49.2810 C.3   461  ILE461      0.1595
     17  C        -67.0970    6.7630  -48.4470 C.2   461  ILE461      0.2287
     18  O        -67.9730    7.4410  -47.8980 O.2   461  ILE461     -0.2864
     19  CB       -67.2760    4.2390  -48.4830 C.3   461  ILE461      0.0276
     20  CG1      -68.0250    3.0910  -49.1550 C.3   461  ILE461      0.0022
     21  CG2      -67.7470    4.4160  -47.0390 C.3   461  ILE461      0.0022
     22  CD1      -68.0700    1.8500  -48.3120 C.3   461  ILE461      0.0001
     23  N        -68.9270    9.4580  -49.7110 N.3   464  THR464     -0.1203
     24  CA       -70.3460    9.4190  -49.3700 C.3   464  THR464      0.1994
     25  C        -70.6520   10.0610  -48.0230 C.2   464  THR464      0.2618
     26  O        -71.8300   10.1970  -47.6780 O.2   464  THR464     -0.2717
     27  CB       -70.8700    7.9800  -49.3610 C.3   464  THR464      0.1784
     28  OG1      -70.1450    7.2100  -48.3970 O.3   464  THR464     -0.2211
     29  CG2      -70.7320    7.3410  -50.7350 C.3   464  THR464      0.0376
     30  N        -69.6330   10.4510  -47.2560 N.am  465  SER465     -0.1951
     31  CA       -69.8340   11.0860  -45.9630 C.3   465  SER465      0.1924
     32  C        -69.2940   12.5070  -45.8960 C.2   465  SER465      0.2314
     33  O        -69.4370   13.1550  -44.8520 O.2   465  SER465     -0.2863
     34  CB       -69.1980   10.2460  -44.8470 C.3   465  SER465      0.2116
     35  OG       -69.9060    9.0330  -44.6500 O.3   465  SER465     -0.2180
     36  N        -73.4330   11.9180  -52.7500 N.3   475  LEU475     -0.1231
     37  CA       -74.1080   12.0310  -51.4520 C.3   475  LEU475      0.1693
     38  C        -73.5700   13.2570  -50.7230 C.2   475  LEU475      0.2591
     39  O        -73.7690   14.3790  -51.2190 O.2   475  LEU475     -0.2718
     40  CB       -73.9750   10.6970  -50.7140 C.3   475  LEU475      0.0284
     41  CG       -74.6300    9.5100  -51.4250 C.3   475  LEU475      0.0019
     42  CD1      -74.4210    8.2200  -50.6510 C.3   475  LEU475      0.0001
     43  CD2      -76.1110    9.7710  -51.6500 C.3   475  LEU475      0.0001
     44  N        -72.9020   13.1130  -49.5730 N.am  476  LEU476     -0.1980
     45  CA       -72.5070   14.2790  -48.7890 C.3   476  LEU476      0.1596
     46  C        -71.3760   15.0690  -49.4340 C.2   476  LEU476      0.2287
     47  O        -71.1700   16.2320  -49.0730 O.2   476  LEU476     -0.2864
     48  CB       -72.1050   13.8580  -47.3740 C.3   476  LEU476      0.0297
     49  CG       -73.2040   13.9330  -46.3080 C.3   476  LEU476      0.0022
     50  CD1      -74.3880   13.0390  -46.6500 C.3   476  LEU476      0.0001
     51  CD2      -72.6480   13.5820  -44.9390 C.3   476  LEU476      0.0001
     52  N        -79.5900   14.9930  -49.2310 N.3   483  ALA483     -0.1245
     53  CA       -79.1590   14.6650  -47.8790 C.3   483  ALA483      0.1562
     54  C        -78.5300   15.8500  -47.1570 C.2   483  ALA483      0.2260
     55  O        -78.4030   15.8110  -45.9280 O.2   483  ALA483     -0.2867
     56  CB       -78.1680   13.5000  -47.9120 C.3   483  ALA483      0.0290
     57  N        -76.1460   18.5570  -37.1870 N.3   490  TRP490     -0.1227
     58  CA       -74.8110   17.9800  -37.0840 C.3   490  TRP490      0.1737
     59  C        -73.9930   18.1350  -38.3600 C.2   490  TRP490      0.2595
     60  O        -72.7640   18.0200  -38.3060 O.2   490  TRP490     -0.2718
     61  CB       -74.9060   16.4980  -36.7080 C.3   490  TRP490      0.0564
     62  CG       -75.6350   15.6540  -37.7120 C.ar  490  TRP490      0.0003
     63  CD1      -75.0990   15.0260  -38.7990 C.ar  490  TRP490      0.0946
     64  CD2      -77.0340   15.3400  -37.7170 C.ar  490  TRP490      0.0152
     65  NE1      -76.0770   14.3450  -39.4830 N.ar  490  TRP490     -0.2442
     66  CE2      -77.2740   14.5220  -38.8390 C.ar  490  TRP490      0.0810
     67  CE3      -78.1070   15.6740  -36.8840 C.ar  490  TRP490      0.0012
     68  CZ2      -78.5420   14.0320  -39.1490 C.ar  490  TRP490      0.0191
     69  CZ3      -79.3650   15.1860  -37.1930 C.ar  490  TRP490      0.0001
     70  CH2      -79.5720   14.3740  -38.3160 C.ar  490  TRP490      0.0015
     71  N        -74.6420   18.3990  -39.4930 N.am  491  LEU491     -0.1980
     72  CA       -73.9420   18.5030  -40.7740 C.3   491  LEU491      0.1596
     73  C        -72.8000   19.5150  -40.7790 C.2   491  LEU491      0.2287
     74  O        -71.6980   19.1580  -41.2300 O.2   491  LEU491     -0.2864
     75  CB       -74.9630   18.8230  -41.8750 C.3   491  LEU491      0.0297
     76  CG       -75.2510   17.7140  -42.8870 C.3   491  LEU491      0.0022
     77  CD1      -75.5720   16.4060  -42.1810 C.3   491  LEU491      0.0001
     78  CD2      -76.3900   18.1250  -43.8030 C.3   491  LEU491      0.0001
     79  N        -69.7890   18.0630  -38.8370 N.3   494  TRP494     -0.1241
     80  CA       -69.2270   16.8710  -39.4640 C.3   494  TRP494      0.1605
     81  C        -68.4290   17.2250  -40.7130 C.2   494  TRP494      0.2264
     82  O        -67.3240   16.7040  -40.9230 O.2   494  TRP494     -0.2867
     83  CB       -70.3500   15.8900  -39.8020 C.3   494  TRP494      0.0550
     84  CG       -69.8980   14.6600  -40.5220 C.ar  494  TRP494      0.0003
     85  CD1      -70.1140   14.3520  -41.8330 C.ar  494  TRP494      0.0946
     86  CD2      -69.1530   13.5680  -39.9710 C.ar  494  TRP494      0.0152
     87  NE1      -69.5510   13.1360  -42.1320 N.ar  494  TRP494     -0.2442
     88  CE2      -68.9550   12.6340  -41.0050 C.ar  494  TRP494      0.0810
     89  CE3      -68.6360   13.2890  -38.7020 C.ar  494  TRP494      0.0012
     90  CZ2      -68.2610   11.4420  -40.8110 C.ar  494  TRP494      0.0191
     91  CZ3      -67.9490   12.1050  -38.5100 C.ar  494  TRP494      0.0001
     92  CH2      -67.7670   11.1970  -39.5590 C.ar  494  TRP494      0.0015
     93  N        -61.2250    9.6240  -40.9010 N.3   506  PHE506     -0.1241
     94  CA       -61.1620    9.1650  -42.2870 C.3   506  PHE506      0.1605
     95  C        -59.8720    9.6110  -42.9650 C.2   506  PHE506      0.2264
     96  O        -59.8810   10.5540  -43.7620 O.2   506  PHE506     -0.2867
     97  CB       -62.3710    9.6640  -43.0840 C.3   506  PHE506      0.0534
     98  CG       -63.6480    8.9370  -42.7710 C.ar  506  PHE506     -0.0203
     99  CD1      -64.0590    7.8670  -43.5480 C.ar  506  PHE506     -0.0042
    100  CD2      -64.4400    9.3240  -41.7010 C.ar  506  PHE506     -0.0042
    101  CE1      -65.2350    7.1950  -43.2650 C.ar  506  PHE506     -0.0003
    102  CE2      -65.6180    8.6550  -41.4120 C.ar  506  PHE506     -0.0003
    103  CZ       -66.0150    7.5890  -42.1950 C.ar  506  PHE506     -0.0000
@<TRIPOS>BOND
     1     9     7   ar
     2     9    10   ar
     3     7     6   ar
     4    10    12   ar
     5    10     8   ar
     6    12    14   ar
     7     6     8   ar
     8     6     5    1
     9     8    11   ar
    10     5     2    1
    11    14    13   ar
    12    11    13   ar
    13    36    37    1
    14     2     1    1
    15     2     3    1
    16    43    41    1
    17    37    38    1
    18    37    40    1
    19    41    40    1
    20    41    42    1
    21     3     4    2
    22     3    15   am
    23    39    38    2
    24    29    27    1
    25    38    44   am
    26    15    16    1
    27    23    24    1
    28    44    45    1
    29    46    47    2
    30    46    45    1
    31    24    27    1
    32    24    25    1
    33    27    28    1
    34    16    19    1
    35    16    17    1
    36    52    53    1
    37    20    19    1
    38    20    22    1
    39    45    48    1
    40    19    21    1
    41    17    18    2
    42    25    26    2
    43    25    30   am
    44    56    53    1
    45    53    54    1
    46    48    49    1
    47    30    31    1
    48    54    55    2
    49    50    49    1
    50    49    51    1
    51    31    32    1
    52    31    34    1
    53    32    33    2
    54    34    35    1
    55    78    76    1
    56    96    95    2
    57    99   101   ar
    58    99    98   ar
    59   101   103   ar
    60    97    98    1
    61    97    94    1
    62    95    94    1
    63    76    77    1
    64    76    75    1
    65    98   100   ar
    66    94    93    1
    67   103   102   ar
    68    87    85   ar
    69    87    88   ar
    70    75    72    1
    71    85    84   ar
    72   100   102   ar
    73    74    73    2
    74    88    90   ar
    75    88    86   ar
    76    82    81    2
    77    90    92   ar
    78    73    72    1
    79    72    71    1
    80    81    80    1
    81    84    86   ar
    82    84    83    1
    83    86    89   ar
    84    83    80    1
    85    92    91   ar
    86    71    59   am
    87    65    66   ar
    88    65    63   ar
    89    80    79    1
    90    68    66   ar
    91    68    70   ar
    92    66    64   ar
    93    63    62   ar
    94    89    91   ar
    95    59    60    2
    96    59    58    1
    97    70    69   ar
    98    64    62   ar
    99    64    67   ar
   100    62    61    1
   101    69    67   ar
   102    57    58    1
   103    58    61    1
