@<TRIPOS>MOLECULE
tmp/6hqbA09.pdb
 110 107 0 0 0
SMALL
GASTEIGER

@<TRIPOS>ATOM
      1  N         -3.3140  -48.8680  -46.7220 N.3   198  ASN198     -0.1225
      2  CA        -2.0020  -48.7300  -47.3500 C.3   198  ASN198      0.1785
      3  C         -2.0990  -47.9390  -48.6490 C.2   198  ASN198      0.2597
      4  O         -1.3070  -47.0180  -48.8940 O.2   198  ASN198     -0.2718
      5  CB        -1.3920  -50.1100  -47.6060 C.3   198  ASN198      0.1169
      6  CG        -0.8310  -50.7450  -46.3490 C.2   198  ASN198      0.2627
      7  OD1       -0.9990  -50.2220  -45.2490 O.2   198  ASN198     -0.2716
      8  ND2       -0.1600  -51.8800  -46.5080 N.am  198  ASN198     -0.0877
      9  N         -3.0840  -48.2720  -49.4880 N.am  199  HIS199     -0.1975
     10  CA        -3.1920  -47.6250  -50.7920 C.3   199  HIS199      0.1656
     11  C         -3.6820  -46.1860  -50.6710 C.2   199  HIS199      0.2291
     12  O         -3.2520  -45.3140  -51.4350 O.2   199  HIS199     -0.2864
     13  CB        -4.1120  -48.4340  -51.7020 C.3   199  HIS199      0.0771
     14  CG        -3.5620  -49.7750  -52.0690 C.ar  199  HIS199      0.0820
     15  ND1       -3.5250  -50.8310  -51.1850 N.ar  199  HIS199     -0.2267
     16  CD2       -3.0110  -50.2270  -53.2200 C.ar  199  HIS199      0.1154
     17  CE1       -2.9820  -51.8790  -51.7780 C.ar  199  HIS199      0.1986
     18  NE2       -2.6630  -51.5390  -53.0130 N.ar  199  HIS199     -0.2212
     19  N         -0.3700  -44.2370  -48.9960 N.3   202  ALA202     -0.1231
     20  CA         0.8480  -44.1230  -49.7920 C.3   202  ALA202      0.1694
     21  C          0.5790  -43.4710  -51.1440 C.2   202  ALA202      0.2592
     22  O          1.3740  -42.6460  -51.6080 O.2   202  ALA202     -0.2718
     23  CB         1.4830  -45.5010  -49.9780 C.3   202  ALA202      0.0304
     24  N         -0.5320  -43.8210  -51.7860 N.am  203  GLY203     -0.1957
     25  CA        -0.7800  -43.3760  -53.1430 C.3   203  GLY203      0.1869
     26  C         -1.6100  -42.1160  -53.2720 C.2   203  GLY203      0.2309
     27  O         -1.2710  -41.2230  -54.0540 O.2   203  GLY203     -0.2863
     28  N          1.3970  -39.3430  -52.7990 N.3   207  LEU207     -0.1245
     29  CA         1.7750  -38.9670  -54.1550 C.3   207  LEU207      0.1561
     30  C          1.0290  -37.7260  -54.6240 C.2   207  LEU207      0.2260
     31  O          1.5340  -36.9900  -55.4750 O.2   207  LEU207     -0.2867
     32  CB         1.5260  -40.1320  -55.1120 C.3   207  LEU207      0.0270
     33  CG         2.3080  -41.4110  -54.8150 C.3   207  LEU207      0.0019
     34  CD1        1.9570  -42.4960  -55.8180 C.3   207  LEU207      0.0001
     35  CD2        3.8010  -41.1330  -54.8210 C.3   207  LEU207      0.0001
     36  N          3.3920  -41.3070  -47.6950 N.3   305  ILE305     -0.1245
     37  CA         3.8890  -42.5010  -48.3700 C.3   305  ILE305      0.1561
     38  C          4.4870  -43.4670  -47.3560 C.2   305  ILE305      0.2260
     39  O          4.2960  -44.6840  -47.4520 O.2   305  ILE305     -0.2867
     40  CB         4.8990  -42.1290  -49.4700 C.3   305  ILE305      0.0252
     41  CG1        4.2510  -41.2090  -50.5030 C.3   305  ILE305      0.0019
     42  CG2        5.3940  -43.3780  -50.1680 C.3   305  ILE305      0.0019
     43  CD1        5.2280  -40.6570  -51.5130 C.3   305  ILE305      0.0001
     44  N          1.7310  -45.2430  -45.5470 N.3   308  GLY308     -0.1210
     45  CA         1.0860  -46.2720  -46.3430 C.3   308  GLY308      0.1956
     46  C          1.8020  -47.6090  -46.3710 C.2   308  GLY308      0.2611
     47  O          1.5740  -48.4140  -47.2790 O.2   308  GLY308     -0.2717
     48  N          2.6630  -47.8700  -45.3850 N.am  309  HIS309     -0.1975
     49  CA         3.4410  -49.1070  -45.3310 C.3   309  HIS309      0.1656
     50  C          3.4400  -49.6840  -43.9220 C.2   309  HIS309      0.2291
     51  O          4.4580  -50.1920  -43.4400 O.2   309  HIS309     -0.2864
     52  CB         4.8740  -48.8800  -45.8120 C.3   309  HIS309      0.0771
     53  CG         4.9680  -48.4090  -47.2290 C.ar  309  HIS309      0.0820
     54  ND1        5.2610  -47.1040  -47.5630 N.ar  309  HIS309     -0.2267
     55  CD2        4.8010  -49.0680  -48.4000 C.ar  309  HIS309      0.1154
     56  CE1        5.2750  -46.9810  -48.8780 C.ar  309  HIS309      0.1986
     57  NE2        4.9960  -48.1570  -49.4090 N.ar  309  HIS309     -0.2212
     58  N          0.3700  -51.5940  -42.6820 N.3   311  TYR311     -0.1241
     59  CA        -0.5770  -52.6930  -42.5980 C.3   311  TYR311      0.1605
     60  C         -0.1740  -53.8380  -43.5240 C.2   311  TYR311      0.2264
     61  O          0.5820  -53.6620  -44.4820 O.2   311  TYR311     -0.2867
     62  CB        -1.9860  -52.2010  -42.9350 C.3   311  TYR311      0.0534
     63  CG        -2.4410  -51.0350  -42.0840 C.ar  311  TYR311     -0.0201
     64  CD1       -3.1440  -51.2420  -40.9050 C.ar  311  TYR311     -0.0009
     65  CD2       -2.1630  -49.7270  -42.4570 C.ar  311  TYR311     -0.0009
     66  CE1       -3.5580  -50.1780  -40.1240 C.ar  311  TYR311      0.0417
     67  CE2       -2.5720  -48.6610  -41.6830 C.ar  311  TYR311      0.0417
     68  CZ        -3.2710  -48.8910  -40.5190 C.ar  311  TYR311      0.1957
     69  OH        -3.6820  -47.8290  -39.7460 O.3   311  TYR311     -0.2866
     70  N         -0.5360  -56.8390  -46.2590 N.3   313  THR313     -0.1203
     71  CA        -1.2300  -57.0730  -47.5150 C.3   313  THR313      0.1994
     72  C         -0.9440  -58.4990  -47.9510 C.2   313  THR313      0.2618
     73  O         -1.5500  -59.4420  -47.4240 O.2   313  THR313     -0.2717
     74  CB        -0.8240  -56.0330  -48.5660 C.3   313  THR313      0.1784
     75  OG1        0.5870  -56.1130  -48.8000 O.3   313  THR313     -0.2211
     76  CG2       -1.1840  -54.6310  -48.1010 C.3   313  THR313      0.0376
     77  N         -0.0330  -58.7100  -48.9050 N.am  314  ASN314     -0.1960
     78  CA         0.2290  -60.0340  -49.4490 C.3   314  ASN314      0.1819
     79  C          1.6260  -60.5650  -49.1680 C.2   314  ASN314      0.2621
     80  O          1.8150  -61.7860  -49.2040 O.2   314  ASN314     -0.2715
     81  CB         0.0070  -60.0430  -50.9700 C.3   314  ASN314      0.1195
     82  CG        -1.3830  -59.5890  -51.3580 C.2   314  ASN314      0.2630
     83  OD1       -2.3100  -59.6400  -50.5520 O.2   314  ASN314     -0.2716
     84  ND2       -1.5370  -59.1450  -52.5990 N.am  314  ASN314     -0.0877
     85  N          2.6050  -59.6990  -48.8970 N.am  315  TRP315     -0.1974
     86  CA         3.9840  -60.1260  -48.6950 C.3   315  TRP315      0.1640
     87  C          4.3130  -60.3860  -47.2310 C.2   315  TRP315      0.2290
     88  O          5.4780  -60.2680  -46.8290 O.2   315  TRP315     -0.2864
     89  CB         4.9400  -59.0910  -49.2880 C.3   315  TRP315      0.0576
     90  CG         4.8020  -58.9680  -50.7720 C.ar  315  TRP315      0.0006
     91  CD1        5.4410  -59.7130  -51.7200 C.ar  315  TRP315      0.0946
     92  CD2        3.9580  -58.0560  -51.4820 C.ar  315  TRP315      0.0152
     93  NE1        5.0530  -59.3170  -52.9760 N.ar  315  TRP315     -0.2442
     94  CE2        4.1420  -58.3010  -52.8580 C.ar  315  TRP315      0.0810
     95  CE3        3.0660  -57.0540  -51.0890 C.ar  315  TRP315      0.0012
     96  CZ2        3.4680  -57.5810  -53.8410 C.ar  315  TRP315      0.0191
     97  CZ3        2.3990  -56.3400  -52.0660 C.ar  315  TRP315      0.0001
     98  CH2        2.6020  -56.6070  -53.4260 C.ar  315  TRP315      0.0015
     99  N          4.6980  -59.0120  -44.4440 N.3   317  ILE317     -0.1231
    100  CA         5.0050  -57.8880  -43.5670 C.3   317  ILE317      0.1692
    101  C          3.7850  -56.9820  -43.4270 C.2   317  ILE317      0.2592
    102  O          2.8720  -56.9730  -44.2620 O.2   317  ILE317     -0.2718
    103  CB         6.2210  -57.1060  -44.0900 C.3   317  ILE317      0.0266
    104  CG1        5.9490  -56.5810  -45.5010 C.3   317  ILE317      0.0019
    105  CG2        7.4610  -57.9830  -44.0770 C.3   317  ILE317      0.0020
    106  CD1        7.0840  -55.7670  -46.0810 C.3   317  ILE317      0.0001
    107  N          3.7740  -56.2130  -42.3500 N.am  318  GLY318     -0.1957
    108  CA         2.7010  -55.2840  -42.0640 C.3   318  GLY318      0.1869
    109  C          1.8260  -55.7580  -40.9150 C.2   318  GLY318      0.2309
    110  O          1.9090  -56.8930  -40.4440 O.2   318  GLY318     -0.2863
@<TRIPOS>BOND
     1    34    33    1
     2    31    30    2
     3    32    33    1
     4    32    29    1
     5    35    33    1
     6    30    29    1
     7    29    28    1
     8    27    26    2
     9    96    98   ar
    10    96    94   ar
    11    98    97   ar
    12    26    25    1
    13    16    18   ar
    14    16    14   ar
    15    25    24    1
    16    18    17   ar
    17    93    94   ar
    18    93    91   ar
    19    94    92   ar
    20    84    82   am
    21    14    13    1
    22    14    15   ar
    23    97    95   ar
    24    24    21   am
    25    17    15   ar
    26    91    90   ar
    27    13    10    1
    28    22    21    2
    29    43    41    1
    30    92    95   ar
    31    92    90   ar
    32    12    11    2
    33    82    81    1
    34    82    83    2
    35    21    20    1
    36    81    78    1
    37    10    11    1
    38    10     9    1
    39    90    89    1
    40    41    40    1
    41    42    40    1
    42    23    20    1
    43    20    19    1
    44     9     3   am
    45    40    37    1
    46    78    79    1
    47    78    77    1
    48    57    56   ar
    49    57    55   ar
    50    89    86    1
    51    80    79    2
    52    79    85   am
    53    77    72   am
    54    85    86    1
    55     4     3    2
    56    56    54   ar
    57    75    74    1
    58    86    87    1
    59     3     2    1
    60    74    76    1
    61    74    71    1
    62    55    53   ar
    63    37    36    1
    64    37    38    1
    65    72    71    1
    66    72    73    2
    67     5     2    1
    68     5     6    1
    69    54    53   ar
    70    71    70    1
    71    39    38    2
    72     2     1    1
    73    47    46    2
    74    87    88    2
    75    53    52    1
    76     8     6   am
    77    46    45    1
    78    46    48   am
    79     6     7    2
    80    45    44    1
    81   106   104    1
    82    52    49    1
    83   104   103    1
    84    48    49    1
    85    49    50    1
    86    61    60    2
    87    99   100    1
    88   102   101    2
    89   103   105    1
    90   103   100    1
    91    50    51    2
    92   100   101    1
    93    60    59    1
    94   101   107   am
    95    62    59    1
    96    62    63    1
    97    58    59    1
    98    65    63   ar
    99    65    67   ar
   100   107   108    1
   101    63    64   ar
   102   108   109    1
   103    67    68   ar
   104   109   110    2
   105    64    66   ar
   106    68    66   ar
   107    68    69    1
