@<TRIPOS>MOLECULE
tmp/6hqbB14.pdb
 212 205 0 0 0
SMALL
GASTEIGER

@<TRIPOS>ATOM
      1  N        -59.3130   11.1430  -19.5360 N.3   123  TRP123     -0.1241
      2  CA       -60.6550   10.7060  -19.1690 C.3   123  TRP123      0.1605
      3  C        -61.1340   11.4070  -17.9030 C.2   123  TRP123      0.2264
      4  O        -62.2630   11.9100  -17.8450 O.2   123  TRP123     -0.2867
      5  CB       -60.6700    9.1900  -18.9830 C.3   123  TRP123      0.0550
      6  CG       -62.0170    8.6360  -18.6640 C.ar  123  TRP123      0.0003
      7  CD1      -63.2200    9.1040  -19.1030 C.ar  123  TRP123      0.0946
      8  CD2      -62.3050    7.5100  -17.8250 C.ar  123  TRP123      0.0152
      9  NE1      -64.2400    8.3340  -18.5980 N.ar  123  TRP123     -0.2442
     10  CE2      -63.7050    7.3500  -17.8080 C.ar  123  TRP123      0.0810
     11  CE3      -61.5140    6.6200  -17.0890 C.ar  123  TRP123      0.0012
     12  CZ2      -64.3330    6.3350  -17.0820 C.ar  123  TRP123      0.0191
     13  CZ3      -62.1400    5.6120  -16.3680 C.ar  123  TRP123      0.0001
     14  CH2      -63.5340    5.4790  -16.3710 C.ar  123  TRP123      0.0015
     15  N        -61.8160   15.0480  -18.4610 N.3   126  THR126     -0.1203
     16  CA       -63.0000   15.2390  -19.2870 C.3   126  THR126      0.1994
     17  C        -64.2800   14.9530  -18.5120 C.2   126  THR126      0.2617
     18  O        -65.3220   15.5530  -18.8020 O.2   126  THR126     -0.2717
     19  CB       -62.9250   14.3460  -20.5270 C.3   126  THR126      0.1784
     20  OG1      -61.6020   14.3980  -21.0760 O.3   126  THR126     -0.2211
     21  CG2      -63.9250   14.8100  -21.5790 C.3   126  THR126      0.0376
     22  N        -64.2240   14.0510  -17.5290 N.am  127  ILE127     -0.1979
     23  CA       -65.3980   13.7860  -16.7020 C.3   127  ILE127      0.1595
     24  C        -65.7590   15.0100  -15.8680 C.2   127  ILE127      0.2287
     25  O        -66.9330   15.3850  -15.7680 O.2   127  ILE127     -0.2864
     26  CB       -65.1610   12.5530  -15.8130 C.3   127  ILE127      0.0276
     27  CG1      -65.0880   11.2800  -16.6540 C.3   127  ILE127      0.0022
     28  CG2      -66.2630   12.4270  -14.7690 C.3   127  ILE127      0.0022
     29  CD1      -64.8260   10.0360  -15.8330 C.3   127  ILE127      0.0001
     30  N        -79.9920   -2.2580  -16.9780 N.3   182  LEU182     -0.1231
     31  CA       -78.5370   -2.3170  -17.0560 C.3   182  LEU182      0.1693
     32  C        -78.0030   -1.5080  -18.2310 C.2   182  LEU182      0.2592
     33  O        -76.8580   -1.0430  -18.1920 O.2   182  LEU182     -0.2718
     34  CB       -78.0760   -3.7710  -17.1510 C.3   182  LEU182      0.0284
     35  CG       -76.5690   -4.0200  -17.1780 C.3   182  LEU182      0.0019
     36  CD1      -75.9140   -3.4680  -15.9220 C.3   182  LEU182      0.0001
     37  CD2      -76.2850   -5.5020  -17.3320 C.3   182  LEU182      0.0001
     38  N        -78.8070   -1.3260  -19.2750 N.am  183  PHE183     -0.1976
     39  CA       -78.4160   -0.5310  -20.4310 C.3   183  PHE183      0.1639
     40  C        -79.1430    0.8030  -20.5030 C.2   183  PHE183      0.2290
     41  O        -78.5100    1.8390  -20.7270 O.2   183  PHE183     -0.2864
     42  CB       -78.6510   -1.3240  -21.7250 C.3   183  PHE183      0.0560
     43  CG       -77.6030   -2.3690  -21.9970 C.ar  183  PHE183     -0.0200
     44  CD1      -76.4220   -2.3940  -21.2710 C.ar  183  PHE183     -0.0042
     45  CD2      -77.7950   -3.3220  -22.9850 C.ar  183  PHE183     -0.0042
     46  CE1      -75.4550   -3.3540  -21.5200 C.ar  183  PHE183     -0.0003
     47  CE2      -76.8310   -4.2840  -23.2390 C.ar  183  PHE183     -0.0003
     48  CZ       -75.6600   -4.2990  -22.5050 C.ar  183  PHE183     -0.0000
     49  N        -78.8410    2.7990  -16.8700 N.3   186  SER186     -0.1202
     50  CA       -77.4340    3.1540  -16.7030 C.3   186  SER186      0.2020
     51  C        -77.0420    4.2920  -17.6360 C.2   186  SER186      0.2619
     52  O        -76.3950    5.2580  -17.2170 O.2   186  SER186     -0.2717
     53  CB       -76.5480    1.9330  -16.9470 C.3   186  SER186      0.2103
     54  OG       -76.7010    0.9750  -15.9170 O.3   186  SER186     -0.2182
     55  N        -77.4270    4.1910  -18.9100 N.am  187  SER187     -0.1951
     56  CA       -77.1170    5.2530  -19.8620 C.3   187  SER187      0.1924
     57  C        -77.8050    6.5570  -19.4780 C.2   187  SER187      0.2314
     58  O        -77.2210    7.6380  -19.6110 O.2   187  SER187     -0.2863
     59  CB       -77.5210    4.8290  -21.2730 C.3   187  SER187      0.2116
     60  OG       -77.3530    5.8920  -22.1950 O.3   187  SER187     -0.2180
     61  N        -75.9830    8.0480  -16.4990 N.3   190  TRP190     -0.1241
     62  CA       -74.7000    8.5930  -16.9250 C.3   190  TRP190      0.1605
     63  C        -74.8810    9.8890  -17.7020 C.2   190  TRP190      0.2264
     64  O        -74.0700   10.8120  -17.5720 O.2   190  TRP190     -0.2867
     65  CB       -73.9330    7.5770  -17.7640 C.3   190  TRP190      0.0550
     66  CG       -72.6230    8.1210  -18.2210 C.ar  190  TRP190      0.0003
     67  CD1      -72.2750    8.4600  -19.4930 C.ar  190  TRP190      0.0946
     68  CD2      -71.4920    8.4270  -17.4000 C.ar  190  TRP190      0.0152
     69  NE1      -70.9880    8.9390  -19.5200 N.ar  190  TRP190     -0.2442
     70  CE2      -70.4850    8.9300  -18.2460 C.ar  190  TRP190      0.0810
     71  CE3      -71.2280    8.3100  -16.0330 C.ar  190  TRP190      0.0012
     72  CZ2      -69.2350    9.3190  -17.7690 C.ar  190  TRP190      0.0191
     73  CZ3      -69.9860    8.6960  -15.5620 C.ar  190  TRP190      0.0001
     74  CH2      -69.0060    9.1950  -16.4270 C.ar  190  TRP190      0.0015
     75  N        -73.3120   13.4590  -16.7500 N.3   194  LEU194     -0.1245
     76  CA       -72.5830   14.2830  -17.7090 C.3   194  LEU194      0.1561
     77  C        -73.1510   15.6940  -17.7650 C.2   194  LEU194      0.2260
     78  O        -72.4030   16.6700  -17.9020 O.2   194  LEU194     -0.2867
     79  CB       -72.6250   13.6410  -19.0970 C.3   194  LEU194      0.0270
     80  CG       -71.8450   12.3440  -19.3110 C.3   194  LEU194      0.0019
     81  CD1      -72.0030   11.8650  -20.7460 C.3   194  LEU194      0.0001
     82  CD2      -70.3790   12.5400  -18.9640 C.3   194  LEU194      0.0001
     83  N        -64.5680   15.2310  -29.1360 N.3   268  LEU268     -0.1245
     84  CA       -66.0000   15.3940  -29.3170 C.3   268  LEU268      0.1561
     85  C        -66.5530   16.4060  -28.3170 C.2   268  LEU268      0.2260
     86  O        -65.8950   16.7890  -27.3450 O.2   268  LEU268     -0.2867
     87  CB       -66.7160   14.0520  -29.1690 C.3   268  LEU268      0.0270
     88  CG       -66.3500   12.9490  -30.1660 C.3   268  LEU268      0.0019
     89  CD1      -67.1330   11.6790  -29.8700 C.3   268  LEU268      0.0001
     90  CD2      -66.5900   13.4080  -31.5950 C.3   268  LEU268      0.0001
     91  N        -69.1940   17.7080  -25.4140 N.3   270  LEU270     -0.1245
     92  CA       -69.8000   17.0730  -24.2470 C.3   270  LEU270      0.1561
     93  C        -71.3190   17.0260  -24.3600 C.2   270  LEU270      0.2260
     94  O        -71.9410   16.0000  -24.0460 O.2   270  LEU270     -0.2867
     95  CB       -69.3780   17.8140  -22.9780 C.3   270  LEU270      0.0270
     96  CG       -67.8700   17.9580  -22.7580 C.3   270  LEU270      0.0019
     97  CD1      -67.5860   18.8230  -21.5410 C.3   270  LEU270      0.0001
     98  CD2      -67.2070   16.5950  -22.6180 C.3   270  LEU270      0.0001
     99  N        -72.3580   14.1710  -26.4670 N.3   273  ILE273     -0.1245
    100  CA       -72.2400   12.8690  -25.8160 C.3   273  ILE273      0.1561
    101  C        -73.4000   12.6440  -24.8520 C.2   273  ILE273      0.2260
    102  O        -73.9750   11.5480  -24.7920 O.2   273  ILE273     -0.2867
    103  CB       -70.8780   12.7490  -25.1080 C.3   273  ILE273      0.0252
    104  CG1      -69.7360   12.8940  -26.1170 C.3   273  ILE273      0.0019
    105  CG2      -70.7700   11.4230  -24.3680 C.3   273  ILE273      0.0019
    106  CD1      -68.3550   12.7900  -25.5030 C.3   273  ILE273      0.0001
    107  N        -76.4870   11.9480  -26.8490 N.3   276  HIS276     -0.1226
    108  CA       -76.3930   10.5930  -27.3790 C.3   276  HIS276      0.1752
    109  C        -76.7840    9.5630  -26.3310 C.2   276  HIS276      0.2596
    110  O        -77.5480    8.6300  -26.6100 O.2   276  HIS276     -0.2718
    111  CB       -74.9700   10.3360  -27.8660 C.3   276  HIS276      0.0759
    112  CG       -74.6110    8.8880  -27.9430 C.ar  276  HIS276      0.0818
    113  ND1      -75.2430    8.0080  -28.7950 N.ar  276  HIS276     -0.2268
    114  CD2      -73.6860    8.1640  -27.2710 C.ar  276  HIS276      0.1154
    115  CE1      -74.7170    6.8050  -28.6490 C.ar  276  HIS276      0.1986
    116  NE2      -73.7750    6.8730  -27.7270 N.ar  276  HIS276     -0.2212
    117  N        -76.2400    9.7020  -25.1200 N.am  277  HIS277     -0.1975
    118  CA       -76.5720    8.7630  -24.0560 C.3   277  HIS277      0.1656
    119  C        -78.0490    8.8310  -23.7040 C.2   277  HIS277      0.2291
    120  O        -78.6710    7.8020  -23.4310 O.2   277  HIS277     -0.2864
    121  CB       -75.7130    9.0290  -22.8250 C.3   277  HIS277      0.0771
    122  CG       -74.3130    8.5230  -22.9550 C.ar  277  HIS277      0.0820
    123  ND1      -73.4410    8.9870  -23.9160 N.ar  277  HIS277     -0.2267
    124  CD2      -73.6360    7.5840  -22.2530 C.ar  277  HIS277      0.1154
    125  CE1      -72.2840    8.3610  -23.7950 C.ar  277  HIS277      0.1986
    126  NE2      -72.3750    7.5100  -22.7910 N.ar  277  HIS277     -0.2212
    127  N        -79.9860    6.9940  -26.6400 N.3   280  ILE280     -0.1245
    128  CA       -79.8160    5.5470  -26.5840 C.3   280  ILE280      0.1561
    129  C        -80.3700    4.9610  -25.2910 C.2   280  ILE280      0.2260
    130  O        -80.7520    3.7880  -25.2670 O.2   280  ILE280     -0.2867
    131  CB       -78.3390    5.1600  -26.7760 C.3   280  ILE280      0.0252
    132  CG1      -77.5020    5.6370  -25.5880 C.3   280  ILE280      0.0019
    133  CG2      -77.8250    5.7260  -28.0820 C.3   280  ILE280      0.0019
    134  CD1      -76.0300    5.3480  -25.7360 C.3   280  ILE280      0.0001
    135  N        -82.9040    1.8990  -25.3050 N.3   284  PHE284     -0.1241
    136  CA       -82.7020    0.6550  -24.5660 C.3   284  PHE284      0.1605
    137  C        -83.8350    0.4000  -23.5780 C.2   284  PHE284      0.2264
    138  O        -84.2460   -0.7500  -23.3790 O.2   284  PHE284     -0.2867
    139  CB       -81.3540    0.6830  -23.8440 C.3   284  PHE284      0.0534
    140  CG       -80.1710    0.5810  -24.7660 C.ar  284  PHE284     -0.0203
    141  CD1      -80.3070    0.0340  -26.0320 C.ar  284  PHE284     -0.0042
    142  CD2      -78.9230    1.0320  -24.3670 C.ar  284  PHE284     -0.0042
    143  CE1      -79.2220   -0.0600  -26.8840 C.ar  284  PHE284     -0.0003
    144  CE2      -77.8340    0.9390  -25.2150 C.ar  284  PHE284     -0.0003
    145  CZ       -77.9840    0.3920  -26.4750 C.ar  284  PHE284     -0.0000
    146  N        -67.5410   -5.5520  -30.6960 N.3   342  ILE342     -0.1245
    147  CA       -67.7010   -4.1910  -30.1940 C.3   342  ILE342      0.1561
    148  C        -66.4170   -3.6620  -29.5620 C.2   342  ILE342      0.2260
    149  O        -66.2220   -2.4470  -29.5100 O.2   342  ILE342     -0.2867
    150  CB       -68.8730   -4.0820  -29.2000 C.3   342  ILE342      0.0252
    151  CG1      -68.5580   -4.8250  -27.9020 C.3   342  ILE342      0.0019
    152  CG2      -70.1590   -4.5890  -29.8380 C.3   342  ILE342      0.0019
    153  CD1      -69.5660   -4.5780  -26.8020 C.3   342  ILE342      0.0001
    154  N        -64.6350   -2.4360  -32.4540 N.3   345  LEU345     -0.1231
    155  CA       -65.3190   -1.2100  -32.8610 C.3   345  LEU345      0.1693
    156  C        -64.9280   -0.0280  -31.9740 C.2   345  LEU345      0.2591
    157  O        -64.7260    1.0870  -32.4670 O.2   345  LEU345     -0.2718
    158  CB       -66.8320   -1.4260  -32.8320 C.3   345  LEU345      0.0284
    159  CG       -67.6720   -0.3910  -33.5820 C.3   345  LEU345      0.0019
    160  CD1      -67.3800   -0.4720  -35.0660 C.3   345  LEU345      0.0001
    161  CD2      -69.1540   -0.5850  -33.3200 C.3   345  LEU345      0.0001
    162  N        -64.8320   -0.2520  -30.6610 N.am  346  VAL346     -0.1980
    163  CA       -64.3390    0.7800  -29.7510 C.3   346  VAL346      0.1595
    164  C        -62.9420    1.2230  -30.1630 C.2   346  VAL346      0.2287
    165  O        -62.6410    2.4220  -30.2170 O.2   346  VAL346     -0.2864
    166  CB       -64.3660    0.2650  -28.3010 C.3   346  VAL346      0.0276
    167  CG1      -63.4470    1.0990  -27.4200 C.3   346  VAL346      0.0022
    168  CG2      -65.7850    0.2850  -27.7650 C.3   346  VAL346      0.0022
    169  N        -63.0400    3.2690  -33.3070 N.3   349  HIS349     -0.1226
    170  CA       -63.7490    4.5350  -33.1710 C.3   349  HIS349      0.1752
    171  C        -63.0170    5.5590  -32.3220 C.2   349  HIS349      0.2595
    172  O        -63.0630    6.7510  -32.6360 O.2   349  HIS349     -0.2718
    173  CB       -65.1440    4.3000  -32.5840 C.3   349  HIS349      0.0759
    174  CG       -66.1070    3.6900  -33.5530 C.ar  349  HIS349      0.0818
    175  ND1      -67.4380    3.4890  -33.2540 N.ar  349  HIS349     -0.2268
    176  CD2      -65.9320    3.2380  -34.8170 C.ar  349  HIS349      0.1154
    177  CE1      -68.0420    2.9400  -34.2930 C.ar  349  HIS349      0.1986
    178  NE2      -67.1500    2.7760  -35.2530 N.ar  349  HIS349     -0.2212
    179  N        -62.3340    5.1350  -31.2540 N.am  350  MET350     -0.1979
    180  CA       -61.7070    6.1000  -30.3560 C.3   350  MET350      0.1605
    181  C        -60.4870    6.7720  -30.9720 C.2   350  MET350      0.2287
    182  O        -60.1100    7.8620  -30.5270 O.2   350  MET350     -0.2864
    183  CB       -61.3170    5.4300  -29.0380 C.3   350  MET350      0.0413
    184  CG       -62.4950    4.8520  -28.2780 C.3   350  MET350      0.0598
    185  SD       -62.1320    4.4450  -26.5630 S.3   350  MET350     -0.1393
    186  CE       -61.9530    6.0890  -25.8800 C.3   350  MET350      0.0692
    187  N        -62.4740    9.4220  -33.5020 N.3   353  LEU353     -0.1245
    188  CA       -63.4890   10.2620  -32.8660 C.3   353  LEU353      0.1561
    189  C        -63.2510   10.2650  -31.3610 C.2   353  LEU353      0.2260
    190  O        -64.0590    9.7310  -30.5910 O.2   353  LEU353     -0.2867
    191  CB       -64.9000    9.7680  -33.1900 C.3   353  LEU353      0.0270
    192  CG       -65.4180    9.8910  -34.6240 C.3   353  LEU353      0.0019
    193  CD1      -66.7340    9.1450  -34.7760 C.3   353  LEU353      0.0001
    194  CD2      -65.5900   11.3500  -35.0050 C.3   353  LEU353      0.0001
    195  N        -63.2400   11.1590  -27.5260 N.3   355  SER355     -0.1202
    196  CA       -64.2510   11.7930  -26.6910 C.3   355  SER355      0.2020
    197  C        -63.6600   12.5360  -25.5010 C.2   355  SER355      0.2618
    198  O        -64.4030   13.2020  -24.7730 O.2   355  SER355     -0.2717
    199  CB       -65.2590   10.7520  -26.1990 C.3   355  SER355      0.2103
    200  OG       -65.8770   10.0780  -27.2840 O.3   355  SER355     -0.2182
    201  N        -62.3520   12.4500  -25.2910 N.am  356  TYR356     -0.1975
    202  CA       -61.7050   13.0170  -24.1180 C.3   356  TYR356      0.1639
    203  C        -60.8280   14.1950  -24.5180 C.2   356  TYR356      0.2290
    204  O        -60.1840   14.1760  -25.5720 O.2   356  TYR356     -0.2864
    205  CB       -60.8820   11.9500  -23.3990 C.3   356  TYR356      0.0560
    206  CG       -61.6770   10.6970  -23.1000 C.ar  356  TYR356     -0.0198
    207  CD1      -62.9730   10.7750  -22.6040 C.ar  356  TYR356     -0.0009
    208  CD2      -61.1410    9.4380  -23.3330 C.ar  356  TYR356     -0.0009
    209  CE1      -63.7060    9.6320  -22.3350 C.ar  356  TYR356      0.0417
    210  CE2      -61.8690    8.2920  -23.0670 C.ar  356  TYR356      0.0417
    211  CZ       -63.1480    8.3930  -22.5670 C.ar  356  TYR356      0.1957
    212  OH       -63.8680    7.2500  -22.3030 O.3   356  TYR356     -0.2866
@<TRIPOS>BOND
     1   178   176   ar
     2   178   177   ar
     3   160   159    1
     4   194   192    1
     5   176   174   ar
     6   193   192    1
     7   192   191    1
     8   177   175   ar
     9   159   161    1
    10   159   158    1
    11   174   175   ar
    12   174   173    1
    13   187   188    1
    14   169   170    1
    15   191   188    1
    16   170   173    1
    17   170   171    1
    18   188   189    1
    19   155   158    1
    20   155   154    1
    21   155   156    1
    22   172   171    2
    23   157   156    2
    24   171   179   am
    25   156   162   am
    26    90    88    1
    27   189   190    2
    28   179   180    1
    29   181   182    2
    30   181   180    1
    31   146   147    1
    32   162   163    1
    33   180   183    1
    34   165   164    2
    35   147   148    1
    36   147   150    1
    37    88    89    1
    38    88    87    1
    39   164   163    1
    40   152   150    1
    41   163   166    1
    42   148   149    2
    43    84    87    1
    44    84    83    1
    45    84    85    1
    46   150   151    1
    47   183   184    1
    48   113   115   ar
    49   113   112   ar
    50   115   116   ar
    51    85    86    2
    52   166   168    1
    53   166   167    1
    54   184   185    1
    55   133   131    1
    56   112   111    1
    57   112   114   ar
    58   151   153    1
    59   111   108    1
    60   116   114   ar
    61   195   196    1
    62   108   107    1
    63   108   109    1
    64   200   199    1
    65   143   145   ar
    66   143   141   ar
    67   131   128    1
    68   131   132    1
    69   196   199    1
    70   196   197    1
    71   127   128    1
    72   110   109    2
    73   128   129    1
    74   185   186    1
    75   145   144   ar
    76    99   100    1
    77   109   117   am
    78   104   106    1
    79   104   103    1
    80   141   140   ar
    81   100   103    1
    82   100   101    1
    83   134   132    1
    84   204   203    2
    85   197   201   am
    86   197   198    2
    87    91    92    1
    88   135   136    1
    89   201   202    1
    90   129   130    2
    91   144   142   ar
    92   117   118    1
    93   103   105    1
    94   101   102    2
    95   140   142   ar
    96   140   139    1
    97   136   139    1
    98   136   137    1
    99   203   202    1
   100    93    92    1
   101    93    94    2
   102    92    95    1
   103   202   205    1
   104   118   119    1
   105   118   121    1
   106   123   125   ar
   107   123   122   ar
   108   125   126   ar
   109   119   120    2
   110   137   138    2
   111   205   206    1
   112   208   206   ar
   113   208   210   ar
   114    47    45   ar
   115    47    48   ar
   116   206   207   ar
   117   210   211   ar
   118    45    43   ar
   119    95    96    1
   120   122   121    1
   121   122   124   ar
   122   126   124   ar
   123    96    98    1
   124    96    97    1
   125   207   209   ar
   126   211   209   ar
   127   211   212    1
   128    48    46   ar
   129    60    59    1
   130    43    42    1
   131    43    44   ar
   132    42    39    1
   133    21    19    1
   134    46    44   ar
   135    59    56    1
   136    20    19    1
   137    81    80    1
   138    41    40    2
   139    19    16    1
   140    40    39    1
   141    39    38    1
   142    56    57    1
   143    56    55    1
   144    58    57    2
   145     1     2    1
   146    69    67   ar
   147    69    70   ar
   148    67    66   ar
   149    80    79    1
   150    80    82    1
   151    16    17    1
   152    16    15    1
   153    38    32   am
   154     2     5    1
   155     2     3    1
   156     7     6   ar
   157     7     9   ar
   158    79    76    1
   159     5     6    1
   160    55    51   am
   161    18    17    2
   162     6     8   ar
   163     9    10   ar
   164    17    22   am
   165    70    72   ar
   166    70    68   ar
   167    32    33    2
   168    32    31    1
   169    66    65    1
   170    66    68   ar
   171     3     4    2
   172    78    77    2
   173     8    10   ar
   174     8    11   ar
   175    10    12   ar
   176    72    74   ar
   177    77    76    1
   178    65    62    1
   179    76    75    1
   180    63    64    2
   181    63    62    1
   182    51    52    2
   183    51    50    1
   184    22    23    1
   185    68    71   ar
   186    37    35    1
   187    35    34    1
   188    35    36    1
   189    34    31    1
   190    11    13   ar
   191    12    14   ar
   192    31    30    1
   193    53    50    1
   194    53    54    1
   195    62    61    1
   196    49    50    1
   197    23    24    1
   198    23    26    1
   199    27    29    1
   200    27    26    1
   201    74    73   ar
   202    14    13   ar
   203    71    73   ar
   204    24    25    2
   205    26    28    1
