@<TRIPOS>MOLECULE
tmp/6hqbB03.pdb
 93 89 0 0 0
SMALL
GASTEIGER

@<TRIPOS>ATOM
      1  N        -61.6180  -24.1920  -13.3210 N.3    29  HIS29      -0.1241
      2  CA       -62.8680  -23.5260  -13.6550 C.3    29  HIS29       0.1621
      3  C        -63.7550  -24.3450  -14.5800 C.2    29  HIS29       0.2264
      4  O        -64.8300  -23.8710  -14.9590 O.2    29  HIS29      -0.2867
      5  CB       -62.5820  -22.1630  -14.2880 C.3    29  HIS29       0.0745
      6  CG       -61.6640  -21.3060  -13.4760 C.ar   29  HIS29       0.0817
      7  ND1      -60.9260  -20.2780  -14.0230 N.ar   29  HIS29      -0.2268
      8  CD2      -61.3590  -21.3270  -12.1580 C.ar   29  HIS29       0.1154
      9  CE1      -60.2080  -19.7020  -13.0760 C.ar   29  HIS29       0.1986
     10  NE2      -60.4520  -20.3210  -11.9360 N.ar   29  HIS29      -0.2212
     11  N        -65.9710  -11.7440   -9.8020 N.3    53  HIS53      -0.1241
     12  CA       -65.2440  -11.1260  -10.9040 C.3    53  HIS53       0.1621
     13  C        -65.6090   -9.6560  -11.0630 C.2    53  HIS53       0.2264
     14  O        -64.7420   -8.8240  -11.3650 O.2    53  HIS53      -0.2867
     15  CB       -65.5110  -11.8810  -12.2000 C.3    53  HIS53       0.0745
     16  CG       -64.4880  -11.6120  -13.2530 C.ar   53  HIS53       0.0817
     17  ND1      -64.3890  -10.3990  -13.9000 N.ar   53  HIS53      -0.2268
     18  CD2      -63.4940  -12.3860  -13.7450 C.ar   53  HIS53       0.1154
     19  CE1      -63.3850  -10.4420  -14.7560 C.ar   53  HIS53       0.1986
     20  NE2      -62.8290  -11.6390  -14.6840 N.ar   53  HIS53      -0.2212
     21  N        -63.6030   -8.0150   -8.6120 N.3    56  ILE56      -0.1231
     22  CA       -62.2000   -7.9110   -9.0120 C.3    56  ILE56       0.1692
     23  C        -61.9960   -6.7380   -9.9650 C.2    56  ILE56       0.2591
     24  O        -61.0360   -5.9660   -9.8340 O.2    56  ILE56      -0.2718
     25  CB       -61.7240   -9.2340   -9.6380 C.3    56  ILE56       0.0266
     26  CG1      -61.5320  -10.2980   -8.5580 C.3    56  ILE56       0.0019
     27  CG2      -60.4400   -9.0250  -10.4280 C.3    56  ILE56       0.0020
     28  CD1      -61.0440  -11.6210   -9.0920 C.3    56  ILE56       0.0001
     29  N        -62.8860   -6.6000  -10.9490 N.am   57  ILE57      -0.1980
     30  CA       -62.7960   -5.4760  -11.8810 C.3    57  ILE57       0.1595
     31  C        -62.8820   -4.1550  -11.1270 C.2    57  ILE57       0.2287
     32  O        -62.1040   -3.2210  -11.3770 O.2    57  ILE57      -0.2864
     33  CB       -63.8900   -5.5840  -12.9610 C.3    57  ILE57       0.0276
     34  CG1      -63.6480   -6.8030  -13.8530 C.3    57  ILE57       0.0022
     35  CG2      -63.9480   -4.3140  -13.8020 C.3    57  ILE57       0.0022
     36  CD1      -64.6460   -6.9330  -14.9850 C.3    57  ILE57       0.0001
     37  N        -59.6470   -3.4340   -9.2690 N.3    60  TRP60      -0.1241
     38  CA       -58.6160   -2.9460  -10.1810 C.3    60  TRP60       0.1605
     39  C        -58.8390   -1.4780  -10.5290 C.2    60  TRP60       0.2264
     40  O        -57.8900   -0.6800  -10.5450 O.2    60  TRP60      -0.2867
     41  CB       -58.5870   -3.8080  -11.4430 C.3    60  TRP60       0.0550
     42  CG       -58.0090   -3.1200  -12.6390 C.ar   60  TRP60       0.0003
     43  CD1      -56.7040   -2.7710  -12.8370 C.ar   60  TRP60       0.0946
     44  CD2      -58.7170   -2.7090  -13.8150 C.ar   60  TRP60       0.0152
     45  NE1      -56.5580   -2.1610  -14.0610 N.ar   60  TRP60      -0.2442
     46  CE2      -57.7790   -2.1130  -14.6810 C.ar   60  TRP60       0.0810
     47  CE3      -60.0540   -2.7870  -14.2180 C.ar   60  TRP60       0.0012
     48  CZ2      -58.1370   -1.5950  -15.9260 C.ar   60  TRP60       0.0191
     49  CZ3      -60.4070   -2.2710  -15.4540 C.ar   60  TRP60       0.0001
     50  CH2      -59.4520   -1.6850  -16.2930 C.ar   60  TRP60       0.0015
     51  N        -68.9110  -13.7670  -26.2540 N.3   336  LEU336     -0.1245
     52  CA       -67.5310  -13.4330  -26.5940 C.3   336  LEU336      0.1561
     53  C        -67.4330  -12.8500  -27.9980 C.2   336  LEU336      0.2260
     54  O        -66.6750  -11.9020  -28.2290 O.2   336  LEU336     -0.2867
     55  CB       -66.6390  -14.6700  -26.4650 C.3   336  LEU336      0.0270
     56  CG       -66.2940  -15.1540  -25.0560 C.3   336  LEU336      0.0019
     57  CD1      -65.5210  -16.4580  -25.1200 C.3   336  LEU336      0.0001
     58  CD2      -65.4970  -14.1040  -24.3010 C.3   336  LEU336      0.0001
     59  N        -68.9290   -9.2570  -27.9460 N.3   339  LEU339     -0.1245
     60  CA       -68.0680   -8.3790  -27.1660 C.3   339  LEU339      0.1561
     61  C        -66.7610   -8.0950  -27.8950 C.2   339  LEU339      0.2260
     62  O        -66.2550   -6.9710  -27.8470 O.2   339  LEU339     -0.2867
     63  CB       -67.8000   -8.9950  -25.7950 C.3   339  LEU339      0.0270
     64  CG       -67.2110   -8.0650  -24.7360 C.3   339  LEU339      0.0019
     65  CD1      -68.1980   -6.9630  -24.3890 C.3   339  LEU339      0.0001
     66  CD2      -66.8240   -8.8530  -23.4990 C.3   339  LEU339      0.0001
     67  N        -57.2560   -7.3430  -27.1680 N.3   376  ILE376     -0.1245
     68  CA       -58.3650   -7.8440  -26.3590 C.3   376  ILE376      0.1561
     69  C        -59.4040   -8.5250  -27.2460 C.2   376  ILE376      0.2260
     70  O        -59.7980   -9.6760  -27.0120 O.2   376  ILE376     -0.2867
     71  CB       -58.9840   -6.6990  -25.5370 C.3   376  ILE376      0.0252
     72  CG1      -57.9900   -6.2030  -24.4800 C.3   376  ILE376      0.0019
     73  CG2      -60.3140   -7.1290  -24.9190 C.3   376  ILE376      0.0019
     74  CD1      -57.3930   -7.3030  -23.6160 C.3   376  ILE376      0.0001
     75  N        -60.8790  -12.3200  -27.7560 N.3   380  LEU380     -0.1245
     76  CA       -62.3070  -12.5640  -27.5580 C.3   380  LEU380      0.1561
     77  C        -62.9070  -13.3800  -28.7000 C.2   380  LEU380      0.2260
     78  O        -63.7500  -14.2560  -28.4700 O.2   380  LEU380     -0.2867
     79  CB       -63.0530  -11.2370  -27.3960 C.3   380  LEU380      0.0270
     80  CG       -62.7250  -10.4250  -26.1380 C.3   380  LEU380      0.0019
     81  CD1      -63.6110   -9.1910  -26.0170 C.3   380  LEU380      0.0001
     82  CD2      -62.8260  -11.2890  -24.8880 C.3   380  LEU380      0.0001
     83  N        -57.9830  -24.6110  -32.2570 N.3   573  PHE573     -0.1241
     84  CA       -57.8380  -23.3560  -31.5260 C.3   573  PHE573      0.1605
     85  C        -56.3680  -23.0140  -31.3210 C.2   573  PHE573      0.2264
     86  O        -55.9510  -21.8610  -31.5010 O.2   573  PHE573     -0.2867
     87  CB       -58.5690  -23.4620  -30.1840 C.3   573  PHE573      0.0534
     88  CG       -57.9570  -22.6370  -29.0830 C.ar  573  PHE573     -0.0203
     89  CD1      -58.4110  -21.3550  -28.8370 C.ar  573  PHE573     -0.0042
     90  CD2      -56.9410  -23.1500  -28.2810 C.ar  573  PHE573     -0.0042
     91  CE1      -57.8570  -20.5910  -27.8300 C.ar  573  PHE573     -0.0003
     92  CE2      -56.3760  -22.3890  -27.2760 C.ar  573  PHE573     -0.0003
     93  CZ       -56.8400  -21.1080  -27.0470 C.ar  573  PHE573     -0.0000
@<TRIPOS>BOND
     1    83    84    1
     2    84    85    1
     3    84    87    1
     4    86    85    2
     5    87    88    1
     6    88    89   ar
     7    88    90   ar
     8    89    91   ar
     9    77    78    2
    10    77    76    1
    11    90    92   ar
    12    54    53    2
    13    53    52    1
    14    59    60    1
    15    61    62    2
    16    61    60    1
    17    91    93   ar
    18    75    76    1
    19    76    79    1
    20    79    80    1
    21    92    93   ar
    22    69    70    2
    23    69    68    1
    24    67    68    1
    25    60    63    1
    26    52    55    1
    27    52    51    1
    28    55    56    1
    29    68    71    1
    30    80    81    1
    31    80    82    1
    32    63    64    1
    33    71    73    1
    34    71    72    1
    35    57    56    1
    36    56    58    1
    37    64    65    1
    38    64    66    1
    39    72    74    1
    40    50    48   ar
    41    50    49   ar
    42    48    46   ar
    43    49    47   ar
    44    36    34    1
    45     4     3    2
    46    19    20   ar
    47    19    17   ar
    48    20    18   ar
    49    46    45   ar
    50    46    44   ar
    51     3     2    1
    52     5     2    1
    53     5     6    1
    54    47    44   ar
    55    45    43   ar
    56     7     6   ar
    57     7     9   ar
    58    17    16   ar
    59    34    33    1
    60    44    42   ar
    61    35    33    1
    62    18    16   ar
    63     2     1    1
    64     6     8   ar
    65    16    15    1
    66     9    10   ar
    67    33    30    1
    68    43    42   ar
    69    42    41    1
    70    15    12    1
    71     8    10   ar
    72    30    31    1
    73    30    29    1
    74    41    38    1
    75    32    31    2
    76    14    13    2
    77    13    12    1
    78    29    23   am
    79    12    11    1
    80    40    39    2
    81    39    38    1
    82    27    25    1
    83    38    37    1
    84    23    24    2
    85    23    22    1
    86    25    22    1
    87    25    26    1
    88    28    26    1
    89    22    21    1
