@<TRIPOS>MOLECULE
tmp/6hqbB05.pdb
 140 138 0 0 0
SMALL
GASTEIGER

@<TRIPOS>ATOM
      1  N        -59.6470   -3.4340   -9.2690 N.3    60  TRP60      -0.1241
      2  CA       -58.6160   -2.9460  -10.1810 C.3    60  TRP60       0.1605
      3  C        -58.8390   -1.4780  -10.5290 C.2    60  TRP60       0.2264
      4  O        -57.8900   -0.6800  -10.5450 O.2    60  TRP60      -0.2867
      5  CB       -58.5870   -3.8080  -11.4430 C.3    60  TRP60       0.0550
      6  CG       -58.0090   -3.1200  -12.6390 C.ar   60  TRP60       0.0003
      7  CD1      -56.7040   -2.7710  -12.8370 C.ar   60  TRP60       0.0946
      8  CD2      -58.7170   -2.7090  -13.8150 C.ar   60  TRP60       0.0152
      9  NE1      -56.5580   -2.1610  -14.0610 N.ar   60  TRP60      -0.2442
     10  CE2      -57.7790   -2.1130  -14.6810 C.ar   60  TRP60       0.0810
     11  CE3      -60.0540   -2.7870  -14.2180 C.ar   60  TRP60       0.0012
     12  CZ2      -58.1370   -1.5950  -15.9260 C.ar   60  TRP60       0.0191
     13  CZ3      -60.4070   -2.2710  -15.4540 C.ar   60  TRP60       0.0001
     14  CH2      -59.4520   -1.6850  -16.2930 C.ar   60  TRP60       0.0015
     15  N        -57.8130    0.6440   -7.5760 N.3    63  GLY63      -0.1210
     16  CA       -56.3720    0.8390   -7.5260 C.3    63  GLY63       0.1956
     17  C        -55.8840    1.8410   -8.5560 C.2    63  GLY63       0.2612
     18  O        -54.9850    2.6470   -8.2820 O.2    63  GLY63      -0.2717
     19  N        -56.4630    1.7960   -9.7600 N.am   64  THR64      -0.1952
     20  CA       -56.1170    2.7770  -10.7870 C.3    64  THR64       0.1897
     21  C        -56.4130    4.1960  -10.3150 C.2    64  THR64       0.2313
     22  O        -55.6130    5.1130  -10.5370 O.2    64  THR64      -0.2863
     23  CB       -56.8730    2.4760  -12.0810 C.3    64  THR64       0.1794
     24  OG1      -56.5960    1.1340  -12.5000 O.3    64  THR64      -0.2208
     25  CG2      -56.4520    3.4400  -13.1810 C.3    64  THR64       0.0378
     26  N        -53.7700    5.1530   -7.2390 N.3    67  HIS67      -0.1226
     27  CA       -52.4040    5.5220   -7.5950 C.3    67  HIS67       0.1752
     28  C        -52.3410    6.8760   -8.2930 C.2    67  HIS67       0.2595
     29  O        -51.3610    7.6090   -8.1240 O.2    67  HIS67      -0.2718
     30  CB       -51.7720    4.4360   -8.4600 C.3    67  HIS67       0.0759
     31  CG       -51.2890    3.2560   -7.6780 C.ar   67  HIS67       0.0818
     32  ND1      -50.0250    3.1920   -7.1320 N.ar   67  HIS67      -0.2268
     33  CD2      -51.9040    2.0970   -7.3400 C.ar   67  HIS67       0.1154
     34  CE1      -49.8800    2.0430   -6.4970 C.ar   67  HIS67       0.1986
     35  NE2      -51.0050    1.3600   -6.6090 N.ar   67  HIS67      -0.2212
     36  N        -53.3730    7.2360   -9.0570 N.am   68  VAL68      -0.1980
     37  CA       -53.3980    8.5530   -9.6890 C.3    68  VAL68       0.1595
     38  C        -53.5830    9.6420   -8.6390 C.2    68  VAL68       0.2287
     39  O        -52.8770   10.6580   -8.6440 O.2    68  VAL68      -0.2864
     40  CB       -54.4960    8.6150  -10.7660 C.3    68  VAL68       0.0276
     41  CG1      -54.6650   10.0430  -11.2670 C.3    68  VAL68       0.0022
     42  CG2      -54.1580    7.6820  -11.9150 C.3    68  VAL68       0.0022
     43  N        -48.1340    7.6640  -13.9000 N.3    88  ALA88      -0.1231
     44  CA       -48.9090    6.4600  -13.6020 C.3    88  ALA88       0.1694
     45  C        -48.7470    6.0570  -12.1390 C.2    88  ALA88       0.2592
     46  O        -49.7020    6.0990  -11.3580 O.2    88  ALA88      -0.2718
     47  CB       -48.4850    5.3220  -14.5350 C.3    88  ALA88       0.0304
     48  N        -47.5350    5.6630  -11.7590 N.am   89  HIS89      -0.1976
     49  CA       -47.2560    5.2330  -10.3980 C.3    89  HIS89       0.1656
     50  C        -45.7730    5.4290  -10.1300 C.2    89  HIS89       0.2291
     51  O        -44.9650    5.5250  -11.0560 O.2    89  HIS89      -0.2864
     52  CB       -47.6560    3.7710  -10.1770 C.3    89  HIS89       0.0771
     53  CG       -46.8150    2.7950  -10.9390 C.ar   89  HIS89       0.0820
     54  ND1      -45.5870    2.3580  -10.4880 N.ar   89  HIS89      -0.2267
     55  CD2      -47.0220    2.1730  -12.1240 C.ar   89  HIS89       0.1154
     56  CE1      -45.0760    1.5090  -11.3600 C.ar   89  HIS89       0.1986
     57  NE2      -45.9260    1.3810  -12.3630 N.ar   89  HIS89      -0.2212
     58  N        -42.7910    6.3770  -13.1140 N.3   114  ASN114     -0.1225
     59  CA       -43.1800    5.8320  -14.4080 C.3   114  ASN114      0.1785
     60  C        -44.2360    6.7230  -15.0470 C.2   114  ASN114      0.2597
     61  O        -45.2470    7.0480  -14.4150 O.2   114  ASN114     -0.2718
     62  CB       -43.7150    4.4040  -14.2680 C.3   114  ASN114      0.1169
     63  CG       -42.6100    3.3800  -14.1110 C.2   114  ASN114      0.2627
     64  OD1      -42.6280    2.5680  -13.1870 O.2   114  ASN114     -0.2716
     65  ND2      -41.6420    3.4100  -15.0200 N.am  114  ASN114     -0.0877
     66  N        -43.9980    7.1130  -16.3010 N.am  115  ILE115     -0.1966
     67  CA       -44.9670    7.9100  -17.0390 C.3   115  ILE115      0.1727
     68  C        -46.2130    7.0730  -17.3140 C.2   115  ILE115      0.2616
     69  O        -46.1590    5.8380  -17.3770 O.2   115  ILE115     -0.2715
     70  CB       -44.3340    8.4350  -18.3420 C.3   115  ILE115      0.0290
     71  CG1      -42.9610    9.0430  -18.0500 C.3   115  ILE115      0.0022
     72  CG2      -45.2240    9.4730  -19.0120 C.3   115  ILE115      0.0023
     73  CD1      -42.2920    9.6530  -19.2620 C.3   115  ILE115      0.0001
     74  N        -47.3520    7.7480  -17.4620 N.am  116  ALA116     -0.1963
     75  CA       -48.6340    7.0960  -17.6950 C.3   116  ALA116      0.1728
     76  C        -48.9630    7.1010  -19.1820 C.2   116  ALA116      0.2616
     77  O        -48.8750    8.1440  -19.8390 O.2   116  ALA116     -0.2715
     78  CB       -49.7500    7.7890  -16.9110 C.3   116  ALA116      0.0334
     79  N        -49.3530    5.9350  -19.7050 N.am  117  TYR117     -0.1960
     80  CA       -49.7080    5.8020  -21.1130 C.3   117  TYR117      0.1771
     81  C        -51.0280    5.0630  -21.3080 C.2   117  TYR117      0.2620
     82  O        -51.3160    4.6090  -22.4190 O.2   117  TYR117     -0.2715
     83  CB       -48.5910    5.1030  -21.8930 C.3   117  TYR117      0.0574
     84  CG       -47.2650    5.8280  -21.8350 C.ar  117  TYR117     -0.0198
     85  CD1      -47.1470    7.1360  -22.2840 C.ar  117  TYR117     -0.0009
     86  CD2      -46.1300    5.2020  -21.3370 C.ar  117  TYR117     -0.0009
     87  CE1      -45.9370    7.8040  -22.2340 C.ar  117  TYR117      0.0417
     88  CE2      -44.9150    5.8610  -21.2820 C.ar  117  TYR117      0.0417
     89  CZ       -44.8250    7.1620  -21.7330 C.ar  117  TYR117      0.1957
     90  OH       -43.6190    7.8240  -21.6830 O.3   117  TYR117     -0.2866
     91  N        -51.8350    4.9300  -20.2570 N.am  118  SER118     -0.1950
     92  CA       -53.1530    4.3200  -20.3760 C.3   118  SER118      0.1924
     93  C        -54.2510    5.3410  -20.6480 C.2   118  SER118      0.2314
     94  O        -55.4240    4.9610  -20.7260 O.2   118  SER118     -0.2863
     95  CB       -53.4900    3.5220  -19.1100 C.3   118  SER118      0.2116
     96  OG       -53.7150    4.3750  -18.0030 O.3   118  SER118     -0.2180
     97  N        -55.7100    7.7750  -18.8870 N.3   120  VAL120     -0.1245
     98  CA       -56.7410    7.9590  -17.8720 C.3   120  VAL120      0.1561
     99  C        -56.8010    9.3930  -17.3450 C.2   120  VAL120      0.2260
    100  O        -57.8650    9.8190  -16.8670 O.2   120  VAL120     -0.2867
    101  CB       -56.5440    6.9590  -16.7110 C.3   120  VAL120      0.0252
    102  CG1      -55.4690    7.4390  -15.7440 C.3   120  VAL120      0.0019
    103  CG2      -57.8580    6.7040  -15.9960 C.3   120  VAL120      0.0019
    104  N        -35.8570    0.5680  -19.3230 N.3   642  VAL642     -0.1231
    105  CA       -36.7650   -0.5070  -18.9350 C.3   642  VAL642      0.1692
    106  C        -37.4340   -1.1070  -20.1660 C.2   642  VAL642      0.2592
    107  O        -37.6150   -2.3270  -20.2590 O.2   642  VAL642     -0.2718
    108  CB       -37.7920   -0.0020  -17.9010 C.3   642  VAL642      0.0266
    109  CG1      -38.6600    1.1050  -18.4780 C.3   642  VAL642      0.0020
    110  CG2      -38.6490   -1.1520  -17.3900 C.3   642  VAL642      0.0020
    111  N        -37.7680   -0.2700  -21.1520 N.am  643  TRP643     -0.1976
    112  CA       -38.3420   -0.7880  -22.3880 C.3   643  TRP643      0.1640
    113  C        -37.2890   -1.5150  -23.2180 C.2   643  TRP643      0.2290
    114  O        -37.5870   -2.5330  -23.8590 O.2   643  TRP643     -0.2864
    115  CB       -38.9730    0.3520  -23.1860 C.3   643  TRP643      0.0576
    116  CG       -39.9110    1.2090  -22.3820 C.ar  643  TRP643      0.0006
    117  CD1      -39.6340    2.4190  -21.8150 C.ar  643  TRP643      0.0946
    118  CD2      -41.2790    0.9200  -22.0590 C.ar  643  TRP643      0.0152
    119  NE1      -40.7430    2.9030  -21.1620 N.ar  643  TRP643     -0.2442
    120  CE2      -41.7660    2.0010  -21.2960 C.ar  643  TRP643      0.0810
    121  CE3      -42.1390   -0.1480  -22.3410 C.ar  643  TRP643      0.0012
    122  CZ2      -43.0740    2.0460  -20.8110 C.ar  643  TRP643      0.0191
    123  CZ3      -43.4390   -0.1010  -21.8590 C.ar  643  TRP643      0.0001
    124  CH2      -43.8930    0.9880  -21.1040 C.ar  643  TRP643      0.0015
    125  N        -37.1750   -4.8570  -21.6150 N.3   646  MET646     -0.1245
    126  CA       -38.3810   -5.6350  -21.8780 C.3   646  MET646      0.1570
    127  C        -38.4250   -6.1560  -23.3100 C.2   646  MET646      0.2261
    128  O        -38.9820   -7.2300  -23.5550 O.2   646  MET646     -0.2867
    129  CB       -39.6230   -4.7890  -21.5840 C.3   646  MET646      0.0387
    130  CG       -40.9430   -5.4990  -21.8620 C.3   646  MET646      0.0595
    131  SD       -42.3930   -4.4560  -21.6150 S.3   646  MET646     -0.1393
    132  CE       -42.3150   -4.1850  -19.8470 C.3   646  MET646      0.0692
    133  N        -45.4690   -8.6870  -25.3330 N.3   716  LEU716     -0.1245
    134  CA       -44.5490   -7.8430  -24.5750 C.3   716  LEU716      0.1561
    135  C        -43.5190   -7.1810  -25.4790 C.2   716  LEU716      0.2260
    136  O        -43.1930   -6.0040  -25.2940 O.2   716  LEU716     -0.2867
    137  CB       -43.8490   -8.6610  -23.4920 C.3   716  LEU716      0.0270
    138  CG       -44.7100   -9.0760  -22.3010 C.3   716  LEU716      0.0019
    139  CD1      -43.8530   -9.7550  -21.2430 C.3   716  LEU716      0.0001
    140  CD2      -45.4390   -7.8660  -21.7310 C.3   716  LEU716      0.0001
@<TRIPOS>BOND
     1   135   136    2
     2   135   134    1
     3   133   134    1
     4   134   137    1
     5   114   113    2
     6   128   127    2
     7   137   138    1
     8   127   126    1
     9   113   112    1
    10   115   112    1
    11   115   116    1
    12    82    81    2
    13   112   111    1
    14   116   118   ar
    15   116   117   ar
    16   121   118   ar
    17   121   123   ar
    18   138   140    1
    19   138   139    1
    20    85    87   ar
    21    85    84   ar
    22    87    89   ar
    23   118   120   ar
    24    83    84    1
    25    83    80    1
    26   126   125    1
    27   126   129    1
    28   130   131    1
    29   130   129    1
    30   123   124   ar
    31    84    86   ar
    32   117   119   ar
    33    89    90    1
    34    89    88   ar
    35   131   132    1
    36    86    88   ar
    37    81    80    1
    38    81    91   am
    39   120   119   ar
    40   120   122   ar
    41   111   106   am
    42    80    79    1
    43   124   122   ar
    44    94    93    2
    45    93    92    1
    46    92    91    1
    47    92    95    1
    48   107   106    2
    49   106   105    1
    50    77    76    2
    51    79    76   am
    52   104   105    1
    53    73    71    1
    54    76    75    1
    55    95    96    1
    56    72    70    1
    57   105   108    1
    58    97    98    1
    59   109   108    1
    60    70    71    1
    61    70    67    1
    62   108   110    1
    63    98    99    1
    64    98   101    1
    65    75    74    1
    66    75    78    1
    67    74    68   am
    68    69    68    2
    69    99   100    2
    70    68    67    1
    71    67    66    1
    72   101   103    1
    73   101   102    1
    74    66    60   am
    75    14    12   ar
    76    14    13   ar
    77    12    10   ar
    78    13    11   ar
    79    60    61    2
    80    60    59    1
    81    65    63   am
    82    10     9   ar
    83    10     8   ar
    84    47    44    1
    85    59    62    1
    86    59    58    1
    87    62    63    1
    88    11     8   ar
    89    63    64    2
    90     9     7   ar
    91    43    44    1
    92     8     6   ar
    93    44    45    1
    94    25    23    1
    95     7     6   ar
    96     6     5    1
    97    24    23    1
    98    57    55   ar
    99    57    56   ar
   100    45    48   am
   101    45    46    2
   102    55    53   ar
   103    23    20    1
   104    42    40    1
   105    48    49    1
   106     5     2    1
   107    56    54   ar
   108    41    40    1
   109    51    50    2
   110    53    54   ar
   111    53    52    1
   112    20    21    1
   113    20    19    1
   114    40    37    1
   115     4     3    2
   116    22    21    2
   117     3     2    1
   118    49    52    1
   119    49    50    1
   120     2     1    1
   121    19    17   am
   122    37    36    1
   123    37    38    1
   124    36    28   am
   125    39    38    2
   126    17    18    2
   127    17    16    1
   128    30    31    1
   129    30    27    1
   130    28    29    2
   131    28    27    1
   132    31    33   ar
   133    31    32   ar
   134    27    26    1
   135    15    16    1
   136    33    35   ar
   137    32    34   ar
   138    35    34   ar
