@<TRIPOS>MOLECULE
tmp/6hqbA33.pdb
 93 90 0 0 0
SMALL
GASTEIGER

@<TRIPOS>ATOM
      1  N        -18.5200  -38.1950  -58.1240 N.3    80  LEU80      -0.1245
      2  CA       -17.2970  -37.5830  -58.6330 C.3    80  LEU80       0.1561
      3  C        -17.5150  -36.9810  -60.0150 C.2    80  LEU80       0.2260
      4  O        -16.9510  -35.9270  -60.3340 O.2    80  LEU80      -0.2867
      5  CB       -16.1670  -38.6100  -58.6570 C.3    80  LEU80       0.0270
      6  CG       -15.5140  -38.8020  -57.2910 C.3    80  LEU80       0.0019
      7  CD1      -14.4760  -39.9100  -57.3170 C.3    80  LEU80       0.0001
      8  CD2      -14.8960  -37.4880  -56.8460 C.3    80  LEU80       0.0001
      9  N        -19.1810  -33.7110  -59.3800 N.3    83  VAL83      -0.1231
     10  CA       -18.2290  -32.7350  -58.8580 C.3    83  VAL83       0.1692
     11  C        -17.3450  -32.1930  -59.9730 C.2    83  VAL83       0.2592
     12  O        -17.0700  -30.9870  -60.0380 O.2    83  VAL83      -0.2718
     13  CB       -17.3940  -33.3650  -57.7300 C.3    83  VAL83       0.0266
     14  CG1      -16.1830  -32.5110  -57.4310 C.3    83  VAL83       0.0020
     15  CG2      -18.2410  -33.5310  -56.4880 C.3    83  VAL83       0.0020
     16  N        -16.8790  -33.0710  -60.8630 N.am   84  PHE84      -0.1976
     17  CA       -16.0280  -32.6170  -61.9570 C.3    84  PHE84       0.1639
     18  C        -16.7970  -31.7180  -62.9180 C.2    84  PHE84       0.2290
     19  O        -16.2390  -30.7440  -63.4400 O.2    84  PHE84      -0.2864
     20  CB       -15.4250  -33.8150  -62.6870 C.3    84  PHE84       0.0560
     21  CG       -14.2080  -34.3800  -62.0140 C.ar   84  PHE84      -0.0200
     22  CD1      -13.2860  -33.5400  -61.4080 C.ar   84  PHE84      -0.0042
     23  CD2      -13.9890  -35.7460  -61.9750 C.ar   84  PHE84      -0.0042
     24  CE1      -12.1640  -34.0520  -60.7840 C.ar   84  PHE84      -0.0003
     25  CE2      -12.8680  -36.2650  -61.3510 C.ar   84  PHE84      -0.0003
     26  CZ       -11.9550  -35.4170  -60.7540 C.ar   84  PHE84      -0.0000
     27  N        -19.2270  -29.7080  -61.9850 N.3    86  TRP86      -0.1227
     28  CA       -19.3170  -28.4280  -61.2860 C.3    86  TRP86       0.1737
     29  C        -18.0050  -27.6510  -61.3590 C.2    86  TRP86       0.2595
     30  O        -18.0110  -26.4240  -61.5120 O.2    86  TRP86      -0.2718
     31  CB       -19.7190  -28.6430  -59.8280 C.3    86  TRP86       0.0564
     32  CG       -19.4730  -27.4310  -58.9790 C.ar   86  TRP86       0.0003
     33  CD1      -20.1810  -26.2650  -58.9900 C.ar   86  TRP86       0.0946
     34  CD2      -18.4390  -27.2640  -58.0010 C.ar   86  TRP86       0.0152
     35  NE1      -19.6540  -25.3830  -58.0770 N.ar   86  TRP86      -0.2442
     36  CE2      -18.5850  -25.9730  -57.4560 C.ar   86  TRP86       0.0810
     37  CE3      -17.4070  -28.0810  -57.5300 C.ar   86  TRP86       0.0012
     38  CZ2      -17.7380  -25.4810  -56.4660 C.ar   86  TRP86       0.0191
     39  CZ3      -16.5670  -27.5900  -56.5460 C.ar   86  TRP86       0.0001
     40  CH2      -16.7380  -26.3020  -56.0250 C.ar   86  TRP86       0.0015
     41  N        -16.8720  -28.3470  -61.2490 N.am   87  LEU87      -0.1980
     42  CA       -15.5810  -27.6610  -61.2320 C.3    87  LEU87       0.1596
     43  C        -15.2090  -27.1370  -62.6170 C.2    87  LEU87       0.2287
     44  O        -14.6610  -26.0300  -62.7480 O.2    87  LEU87      -0.2864
     45  CB       -14.5010  -28.6000  -60.6990 C.3    87  LEU87       0.0297
     46  CG       -13.1740  -27.9500  -60.3160 C.3    87  LEU87       0.0022
     47  CD1      -13.3960  -26.8780  -59.2600 C.3    87  LEU87       0.0001
     48  CD2      -12.1920  -29.0000  -59.8230 C.3    87  LEU87       0.0001
     49  N        -14.1330  -23.2920  -63.8670 N.3    91  TYR91      -0.1241
     50  CA       -13.0070  -22.9590  -64.7350 C.3    91  TYR91       0.1605
     51  C        -13.4770  -22.2920  -66.0250 C.2    91  TYR91       0.2264
     52  O        -12.8490  -21.3370  -66.4980 O.2    91  TYR91      -0.2867
     53  CB       -12.1730  -24.2030  -65.0270 C.3    91  TYR91       0.0534
     54  CG       -11.2560  -24.5630  -63.8830 C.ar   91  TYR91      -0.0201
     55  CD1      -10.1560  -23.7730  -63.5790 C.ar   91  TYR91      -0.0009
     56  CD2      -11.4940  -25.6820  -63.0990 C.ar   91  TYR91      -0.0009
     57  CE1       -9.3150  -24.0910  -62.5300 C.ar   91  TYR91       0.0417
     58  CE2      -10.6570  -26.0100  -62.0470 C.ar   91  TYR91       0.0417
     59  CZ        -9.5690  -25.2110  -61.7680 C.ar   91  TYR91       0.1957
     60  OH        -8.7320  -25.5310  -60.7230 O.3    91  TYR91      -0.2866
     61  N         -8.4660  -26.2430  -68.5050 N.3   161  THR161     -0.1218
     62  CA        -8.7920  -26.8450  -67.2160 C.3   161  THR161      0.1862
     63  C        -10.2430  -27.3090  -67.1820 C.2   161  THR161      0.2287
     64  O        -10.5430  -28.4030  -66.6910 O.2   161  THR161     -0.2866
     65  CB        -8.5250  -25.8540  -66.0850 C.3   161  THR161      0.1770
     66  OG1       -7.3160  -25.1350  -66.3530 O.3   161  THR161     -0.2211
     67  CG2       -8.3840  -26.5960  -64.7670 C.3   161  THR161      0.0375
     68  N        -10.5340  -30.4630  -69.3180 N.3   164  GLY164     -0.1210
     69  CA       -10.0560  -31.6230  -68.5820 C.3   164  GLY164      0.1956
     70  C        -11.0080  -32.0440  -67.4800 C.2   164  GLY164      0.2612
     71  O        -11.1750  -33.2370  -67.2120 O.2   164  GLY164     -0.2717
     72  N        -11.6470  -31.0720  -66.8250 N.am  165  GLY165     -0.1956
     73  CA       -12.6450  -31.4040  -65.8230 C.3   165  GLY165      0.1869
     74  C        -13.8310  -32.1420  -66.4110 C.2   165  GLY165      0.2309
     75  O        -14.3290  -33.1050  -65.8250 O.2   165  GLY165     -0.2863
     76  N        -12.7270  -35.6920  -67.1490 N.3   168  MET168     -0.1245
     77  CA       -12.7130  -36.5020  -65.9360 C.3   168  MET168      0.1570
     78  C        -14.1220  -36.8090  -65.4450 C.2   168  MET168      0.2261
     79  O        -14.3580  -37.8830  -64.8850 O.2   168  MET168     -0.2867
     80  CB       -11.9050  -35.8050  -64.8430 C.3   168  MET168      0.0387
     81  CG       -10.4250  -36.1300  -64.8890 C.3   168  MET168      0.0595
     82  SD       -10.1440  -37.9110  -64.8490 S.3   168  MET168     -0.1393
     83  CE        -8.3580  -37.9770  -64.9460 C.3   168  MET168      0.0692
     84  N        -17.0770  -23.2670  -45.0820 N.3   393  HIS393     -0.1241
     85  CA       -16.4300  -24.4550  -44.5420 C.3   393  HIS393      0.1621
     86  C        -16.8060  -24.7160  -43.0910 C.2   393  HIS393      0.2264
     87  O        -16.5320  -25.8090  -42.5850 O.2   393  HIS393     -0.2867
     88  CB       -14.9150  -24.3340  -44.6820 C.3   393  HIS393      0.0745
     89  CG       -14.4460  -24.3330  -46.1020 C.ar  393  HIS393      0.0817
     90  ND1      -13.1450  -24.0510  -46.4570 N.ar  393  HIS393     -0.2268
     91  CD2      -15.1060  -24.5820  -47.2580 C.ar  393  HIS393      0.1154
     92  CE1      -13.0250  -24.1240  -47.7700 C.ar  393  HIS393      0.1986
     93  NE2      -14.2000  -24.4440  -48.2800 N.ar  393  HIS393     -0.2212
@<TRIPOS>BOND
     1    68    69    1
     2    69    70    1
     3    61    62    1
     4    70    71    2
     5    70    72   am
     6    62    63    1
     7    62    65    1
     8    63    64    2
     9    76    77    1
    10    72    73    1
    11    52    51    2
    12    74    75    2
    13    74    73    1
    14    66    65    1
    15    65    67    1
    16    51    50    1
    17    77    78    1
    18    77    80    1
    19    78    79    2
    20    53    50    1
    21    53    54    1
    22    83    82    1
    23    81    82    1
    24    81    80    1
    25    50    49    1
    26    54    55   ar
    27    54    56   ar
    28    55    57   ar
    29    19    18    2
    30    56    58   ar
    31    18    17    1
    32    44    43    2
    33    20    21    1
    34    20    17    1
    35    43    42    1
    36    57    59   ar
    37    58    59   ar
    38    21    23   ar
    39    21    22   ar
    40    27    28    1
    41    23    25   ar
    42    17    16    1
    43    59    60    1
    44    30    29    2
    45    22    24   ar
    46    29    28    1
    47    29    41   am
    48    25    26   ar
    49    28    31    1
    50    41    42    1
    51    42    45    1
    52    16    11   am
    53    24    26   ar
    54    45    46    1
    55     4     3    2
    56    46    48    1
    57    46    47    1
    58    12    11    2
    59     3     2    1
    60    11    10    1
    61    31    32    1
    62     9    10    1
    63    33    32   ar
    64    33    35   ar
    65    32    34   ar
    66    10    13    1
    67     5     2    1
    68     5     6    1
    69     2     1    1
    70    35    36   ar
    71    34    37   ar
    72    34    36   ar
    73    13    14    1
    74    13    15    1
    75    37    39   ar
    76    36    38   ar
    77     7     6    1
    78     6     8    1
    79    39    40   ar
    80    38    40   ar
    81    93    92   ar
    82    93    91   ar
    83    92    90   ar
    84    91    89   ar
    85    90    89   ar
    86    89    88    1
    87    84    85    1
    88    88    85    1
    89    85    86    1
    90    86    87    2
