@<TRIPOS>MOLECULE
tmp/6hqbA57.pdb
 173 168 0 0 0
SMALL
GASTEIGER

@<TRIPOS>ATOM
      1  N        -13.8810  -56.8430  -71.7010 N.3     5  PRO5       -0.2116
      2  CA       -12.4240  -56.6800  -71.6620 C.3     5  PRO5        0.1372
      3  C        -11.7450  -57.9910  -71.3070 C.2     5  PRO5        0.2244
      4  O        -12.4200  -58.9630  -70.9380 O.2     5  PRO5       -0.2868
      5  CB       -12.2220  -55.6250  -70.5640 C.3     5  PRO5        0.0268
      6  CG       -13.3890  -55.8110  -69.6620 C.3     5  PRO5        0.0207
      7  CD       -14.5420  -56.2200  -70.5410 C.3     5  PRO5        0.0892
      8  N         -8.9420  -59.2620  -68.7470 N.3     7  GLU7       -0.1231
      9  CA        -8.9820  -59.6620  -67.3440 C.3     7  GLU7        0.1699
     10  C         -8.5390  -58.5430  -66.4070 C.2     7  GLU7        0.2592
     11  O         -9.2190  -58.2610  -65.4150 O.2     7  GLU7       -0.2718
     12  CB        -8.1220  -60.9120  -67.1240 C.3     7  GLU7        0.0402
     13  CG        -6.7390  -60.8550  -67.7570 C.3     7  GLU7        0.1161
     14  CD        -5.9070  -62.0850  -67.4490 C.2     7  GLU7        0.3649
     15  OE1       -6.3810  -62.9460  -66.6780 O.co2   7  GLU7       -0.2457
     16  OE2       -4.7800  -62.1900  -67.9770 O.co2   7  GLU7       -0.2457
     17  N         -7.4020  -57.9100  -66.7040 N.am    8  ARG8       -0.1966
     18  CA        -6.8440  -56.8230  -65.8950 C.3     8  ARG8        0.1729
     19  C         -6.6050  -57.2770  -64.4500 C.2     8  ARG8        0.2616
     20  O         -7.3190  -56.9060  -63.5160 O.2     8  ARG8       -0.2715
     21  CB        -7.7490  -55.5840  -65.9430 C.3     8  ARG8        0.0348
     22  CG        -7.2550  -54.4800  -66.8650 C.3     8  ARG8        0.0492
     23  CD        -6.0240  -53.7850  -66.2960 C.3     8  ARG8        0.2205
     24  NE        -6.3240  -53.0280  -65.0810 N.pl3   8  ARG8       -0.0865
     25  CZ        -6.6820  -51.7480  -65.0680 C.cat   8  ARG8        0.5346
     26  NH1       -6.9350  -51.1370  -63.9180 N.pl3   8  ARG8        0.1354
     27  NH2       -6.7890  -51.0750  -66.2050 N.pl3   8  ARG8        0.1354
     28  N         -5.5660  -58.0950  -64.2990 N.am    9  GLU9       -0.1963
     29  CA        -5.1020  -58.5420  -62.9900 C.3     9  GLU9        0.1733
     30  C         -3.7240  -59.1630  -63.1570 C.2     9  GLU9        0.2616
     31  O         -3.3310  -59.5560  -64.2590 O.2     9  GLU9       -0.2715
     32  CB        -6.0710  -59.5410  -62.3460 C.3     9  GLU9        0.0429
     33  CG        -6.1870  -60.8670  -63.0770 C.3     9  GLU9        0.1163
     34  CD        -7.0280  -61.8730  -62.3170 C.2     9  GLU9        0.3649
     35  OE1       -7.5020  -61.5370  -61.2110 O.co2   9  GLU9       -0.2457
     36  OE2       -7.2160  -62.9990  -62.8240 O.co2   9  GLU9       -0.2457
     37  N         -2.9890  -59.2470  -62.0390 N.am   10  ALA10      -0.1977
     38  CA        -1.6320  -59.8000  -62.0440 C.3    10  ALA10       0.1597
     39  C         -1.3430  -60.3460  -60.6410 C.2    10  ALA10       0.2287
     40  O         -0.6280  -59.7370  -59.8410 O.2    10  ALA10      -0.2864
     41  CB        -0.5920  -58.7630  -62.4660 C.3    10  ALA10       0.0319
     42  N         -3.4630  -60.8470  -57.9870 N.3    12  ALA12      -0.1245
     43  CA        -4.0340  -59.8810  -57.0600 C.3    12  ALA12       0.1562
     44  C         -5.2430  -60.4850  -56.3540 C.2    12  ALA12       0.2260
     45  O         -5.6760  -61.6020  -56.6540 O.2    12  ALA12      -0.2867
     46  CB        -4.4190  -58.5930  -57.7920 C.3    12  ALA12       0.0290
     47  N         -8.0890  -59.3730  -56.8520 N.3    14  VAL14      -0.1245
     48  CA        -9.1840  -58.8970  -57.6870 C.3    14  VAL14       0.1561
     49  C        -10.2240  -59.9980  -57.8380 C.2    14  VAL14       0.2260
     50  O         -9.8910  -61.1620  -58.1000 O.2    14  VAL14      -0.2867
     51  CB        -8.6550  -58.4360  -59.0540 C.3    14  VAL14       0.0252
     52  CG1       -9.8040  -58.0430  -59.9690 C.3    14  VAL14       0.0019
     53  CG2       -7.6870  -57.2760  -58.8810 C.3    14  VAL14       0.0019
     54  N        -14.2880  -60.1160  -59.4590 N.3    16  VAL16      -0.1245
     55  CA       -15.4290  -59.4310  -60.0480 C.3    16  VAL16       0.1561
     56  C        -16.4080  -60.4670  -60.5880 C.2    16  VAL16       0.2260
     57  O        -16.1190  -61.6630  -60.6470 O.2    16  VAL16      -0.2867
     58  CB       -15.0150  -58.4540  -61.1680 C.3    16  VAL16       0.0252
     59  CG1      -14.0150  -57.4310  -60.6490 C.3    16  VAL16       0.0019
     60  CG2      -14.4450  -59.2180  -62.3510 C.3    16  VAL16       0.0019
     61  N        -20.1750  -48.1080  -54.6620 N.3    73  PHE73      -0.1241
     62  CA       -18.9960  -47.7580  -55.4550 C.3    73  PHE73       0.1605
     63  C        -19.3810  -46.9100  -56.6690 C.2    73  PHE73       0.2264
     64  O        -18.8160  -45.8290  -56.9040 O.2    73  PHE73      -0.2867
     65  CB       -18.2710  -49.0370  -55.8810 C.3    73  PHE73       0.0534
     66  CG       -16.8430  -48.8240  -56.2970 C.ar   73  PHE73      -0.0203
     67  CD1      -15.9180  -48.2990  -55.4100 C.ar   73  PHE73      -0.0042
     68  CD2      -16.4200  -49.1750  -57.5690 C.ar   73  PHE73      -0.0042
     69  CE1      -14.6000  -48.1100  -55.7890 C.ar   73  PHE73      -0.0003
     70  CE2      -15.1040  -48.9910  -57.9530 C.ar   73  PHE73      -0.0003
     71  CZ       -14.1940  -48.4560  -57.0630 C.ar   73  PHE73      -0.0000
     72  N        -18.6910  -42.9620  -57.8140 N.3    77  PHE77      -0.1241
     73  CA       -18.2360  -42.5610  -59.1440 C.3    77  PHE77       0.1605
     74  C        -19.1540  -41.5010  -59.7470 C.2    77  PHE77       0.2264
     75  O        -18.6840  -40.5170  -60.3360 O.2    77  PHE77      -0.2867
     76  CB       -18.1500  -43.7790  -60.0600 C.3    77  PHE77       0.0534
     77  CG       -16.8040  -44.4440  -60.0640 C.ar   77  PHE77      -0.0203
     78  CD1      -15.6430  -43.6930  -60.0130 C.ar   77  PHE77      -0.0042
     79  CD2      -16.7000  -45.8240  -60.1190 C.ar   77  PHE77      -0.0042
     80  CE1      -14.4050  -44.3060  -60.0190 C.ar   77  PHE77      -0.0003
     81  CE2      -15.4650  -46.4400  -60.1230 C.ar   77  PHE77      -0.0003
     82  CZ       -14.3170  -45.6810  -60.0720 C.ar   77  PHE77      -0.0000
     83  N        -12.7270  -35.6920  -67.1490 N.3   168  MET168     -0.1245
     84  CA       -12.7130  -36.5020  -65.9360 C.3   168  MET168      0.1570
     85  C        -14.1220  -36.8090  -65.4450 C.2   168  MET168      0.2261
     86  O        -14.3580  -37.8830  -64.8850 O.2   168  MET168     -0.2867
     87  CB       -11.9050  -35.8050  -64.8430 C.3   168  MET168      0.0387
     88  CG       -10.4250  -36.1300  -64.8890 C.3   168  MET168      0.0595
     89  SD       -10.1440  -37.9110  -64.8490 S.3   168  MET168     -0.1393
     90  CE        -8.3580  -37.9770  -64.9460 C.3   168  MET168      0.0692
     91  N        -15.1750  -39.6400  -67.4230 N.3   171  LEU171     -0.1231
     92  CA       -14.4770  -40.8420  -66.9740 C.3   171  LEU171      0.1693
     93  C        -15.0990  -41.4180  -65.7070 C.2   171  LEU171      0.2591
     94  O        -15.2800  -42.6350  -65.6010 O.2   171  LEU171     -0.2718
     95  CB       -12.9960  -40.5410  -66.7490 C.3   171  LEU171      0.0284
     96  CG       -12.1270  -40.4850  -68.0060 C.3   171  LEU171      0.0019
     97  CD1      -10.6730  -40.2410  -67.6410 C.3   171  LEU171      0.0001
     98  CD2      -12.2750  -41.7680  -68.8050 C.3   171  LEU171      0.0001
     99  N        -15.4190  -40.5670  -64.7290 N.am  172  MET172     -0.1979
    100  CA       -16.0230  -41.0640  -63.4930 C.3   172  MET172      0.1605
    101  C        -17.4190  -41.6180  -63.7490 C.2   172  MET172      0.2287
    102  O        -17.7840  -42.6760  -63.2140 O.2   172  MET172     -0.2864
    103  CB       -16.0730  -39.9580  -62.4380 C.3   172  MET172      0.0413
    104  CG       -14.7520  -39.2520  -62.2180 C.3   172  MET172      0.0598
    105  SD       -13.3410  -40.3710  -62.2520 S.3   172  MET172     -0.1393
    106  CE       -13.4110  -41.0460  -60.5990 C.3   172  MET172      0.0692
    107  N        -18.4230  -42.9420  -66.4810 N.3   174  PHE174     -0.1227
    108  CA       -18.2510  -44.2150  -67.1700 C.3   174  PHE174      0.1736
    109  C        -17.8150  -45.3140  -66.2090 C.2   174  PHE174      0.2595
    110  O        -18.3090  -46.4450  -66.2860 O.2   174  PHE174     -0.2718
    111  CB       -17.2370  -44.0550  -68.3010 C.3   174  PHE174      0.0547
    112  CG       -17.0440  -45.2940  -69.1210 C.ar  174  PHE174     -0.0202
    113  CD1      -17.8880  -45.5730  -70.1830 C.ar  174  PHE174     -0.0042
    114  CD2      -16.0160  -46.1770  -68.8360 C.ar  174  PHE174     -0.0042
    115  CE1      -17.7130  -46.7120  -70.9430 C.ar  174  PHE174     -0.0003
    116  CE2      -15.8360  -47.3190  -69.5910 C.ar  174  PHE174     -0.0003
    117  CZ       -16.6850  -47.5870  -70.6470 C.ar  174  PHE174     -0.0000
    118  N        -16.8810  -45.0020  -65.3050 N.am  175  ALA175     -0.1980
    119  CA       -16.4050  -45.9960  -64.3500 C.3   175  ALA175      0.1597
    120  C        -17.5190  -46.4600  -63.4240 C.2   175  ALA175      0.2287
    121  O        -17.5470  -47.6300  -63.0230 O.2   175  ALA175     -0.2864
    122  CB       -15.2410  -45.4290  -63.5380 C.3   175  ALA175      0.0319
    123  N        -19.4250  -48.9530  -65.3190 N.3   178  PHE178     -0.1227
    124  CA       -18.5880  -50.1240  -65.5420 C.3   178  PHE178      0.1736
    125  C        -18.5320  -51.0100  -64.3050 C.2   178  PHE178      0.2595
    126  O        -18.5730  -52.2420  -64.4160 O.2   178  PHE178     -0.2718
    127  CB       -17.1840  -49.6900  -65.9590 C.3   178  PHE178      0.0547
    128  CG       -16.2330  -50.8300  -66.1740 C.ar  178  PHE178     -0.0202
    129  CD1      -16.2250  -51.5240  -67.3710 C.ar  178  PHE178     -0.0042
    130  CD2      -15.3440  -51.2050  -65.1810 C.ar  178  PHE178     -0.0042
    131  CE1      -15.3510  -52.5730  -67.5720 C.ar  178  PHE178     -0.0003
    132  CE2      -14.4680  -52.2520  -65.3760 C.ar  178  PHE178     -0.0003
    133  CZ       -14.4710  -52.9370  -66.5740 C.ar  178  PHE178     -0.0000
    134  N        -18.4450  -50.4050  -63.1200 N.am  179  HIS179     -0.1975
    135  CA       -18.3130  -51.1890  -61.8990 C.3   179  HIS179      0.1656
    136  C        -19.6690  -51.5770  -61.3280 C.2   179  HIS179      0.2291
    137  O        -19.8310  -51.6570  -60.1040 O.2   179  HIS179     -0.2864
    138  CB       -17.5050  -50.4190  -60.8540 C.3   179  HIS179      0.0771
    139  CG       -16.0360  -50.3890  -61.1330 C.ar  179  HIS179      0.0820
    140  ND1      -15.4010  -49.2820  -61.6510 N.ar  179  HIS179     -0.2267
    141  CD2      -15.0770  -51.3310  -60.9690 C.ar  179  HIS179      0.1154
    142  CE1      -14.1130  -49.5410  -61.7900 C.ar  179  HIS179      0.1986
    143  NE2      -13.8900  -50.7780  -61.3840 N.ar  179  HIS179     -0.2212
    144  N        -18.1690  -55.4120  -64.9970 N.3   183  LYS183     -0.1245
    145  CA       -17.4100  -56.2350  -64.0550 C.3   183  LYS183      0.1561
    146  C        -17.5050  -55.5760  -62.6820 C.2   183  LYS183      0.2260
    147  O        -16.6930  -54.7140  -62.3370 O.2   183  LYS183     -0.2867
    148  CB       -15.9640  -56.4030  -64.5100 C.3   183  LYS183      0.0271
    149  CG       -15.8070  -57.2720  -65.7470 C.3   183  LYS183      0.0035
    150  CD       -14.3470  -57.4220  -66.1330 C.3   183  LYS183      0.0206
    151  CE       -14.1730  -58.4260  -67.2600 C.3   183  LYS183      0.1093
    152  NZ       -12.7410  -58.5910  -67.6330 N.3   183  LYS183     -0.1314
    153  N        -17.1030  -55.6310  -58.6880 N.3   185  PRO185     -0.2116
    154  CA       -16.1960  -56.3790  -57.8110 C.3   185  PRO185      0.1372
    155  C        -16.9400  -57.1720  -56.7480 C.2   185  PRO185      0.2244
    156  O        -17.9980  -56.7690  -56.2600 O.2   185  PRO185     -0.2868
    157  CB       -15.3320  -55.2830  -57.1790 C.3   185  PRO185      0.0268
    158  CG       -16.1950  -54.0660  -57.2180 C.3   185  PRO185      0.0207
    159  CD       -17.0040  -54.1760  -58.4800 C.3   185  PRO185      0.0892
    160  N        -12.5500  -58.2500  -53.0200 N.3   189  TRP189     -0.1241
    161  CA       -11.8140  -57.0430  -53.3720 C.3   189  TRP189      0.1605
    162  C        -11.9910  -55.9210  -52.3560 C.2   189  TRP189      0.2264
    163  O        -11.1230  -55.0460  -52.2650 O.2   189  TRP189     -0.2867
    164  CB       -12.2390  -56.5490  -54.7570 C.3   189  TRP189      0.0550
    165  CG       -11.5250  -55.3050  -55.1740 C.ar  189  TRP189      0.0003
    166  CD1      -10.2480  -55.2140  -55.6440 C.ar  189  TRP189      0.0946
    167  CD2      -12.0380  -53.9680  -55.1460 C.ar  189  TRP189      0.0152
    168  NE1       -9.9340  -53.9040  -55.9110 N.ar  189  TRP189     -0.2442
    169  CE2      -11.0160  -53.1190  -55.6130 C.ar  189  TRP189      0.0810
    170  CE3      -13.2620  -53.4060  -54.7710 C.ar  189  TRP189      0.0012
    171  CZ2      -11.1830  -51.7410  -55.7250 C.ar  189  TRP189      0.0191
    172  CZ3      -13.4230  -52.0360  -54.8780 C.ar  189  TRP189      0.0001
    173  CH2      -12.3890  -51.2190  -55.3500 C.ar  189  TRP189      0.0015
@<TRIPOS>BOND
     1     1     2    1
     2     1     7    1
     3     2     3    1
     4     2     5    1
     5     3     4    2
     6   115   117   ar
     7   115   113   ar
     8   117   116   ar
     9     5     6    1
    10     7     6    1
    11   113   112   ar
    12   116   114   ar
    13   112   114   ar
    14   112   111    1
    15    98    96    1
    16     8     9    1
    17   111   108    1
    18    96    97    1
    19    96    95    1
    20    16    14   ar
    21    13    14    1
    22    13    12    1
    23   152   151    1
    24   131   129   ar
    25   131   133   ar
    26    14    15   ar
    27    91    92    1
    28   129   128   ar
    29     9    12    1
    30     9    10    1
    31   151   150    1
    32   108   107    1
    33   108   109    1
    34    83    84    1
    35    92    95    1
    36    92    93    1
    37    22    23    1
    38    22    21    1
    39    17    10   am
    40    17    18    1
    41   133   132   ar
    42    10    11    2
    43    23    24    1
    44   110   109    2
    45   109   118   am
    46    27    25    1
    47   128   127    1
    48   128   130   ar
    49   150   149    1
    50   127   124    1
    51    21    18    1
    52    84    85    1
    53    84    87    1
    54    18    19    1
    55   149   148    1
    56    93    94    2
    57    93    99   am
    58   124   123    1
    59   124   125    1
    60    85    86    2
    61   132   130   ar
    62   118   119    1
    63    24    25    2
    64    25    26    1
    65   144   145    1
    66    90    89    1
    67    88    89    1
    68    88    87    1
    69    99   100    1
    70   148   145    1
    71    19    28   am
    72    19    20    2
    73   126   125    2
    74   119   122    1
    75   119   120    1
    76   125   134   am
    77    28    29    1
    78    31    30    2
    79   145   146    1
    80   101   100    1
    81   101   102    2
    82   100   103    1
    83   120   121    2
    84    30    29    1
    85    30    37   am
    86   134   135    1
    87    33    32    1
    88    33    34    1
    89    29    32    1
    90    36    34   ar
    91   146   147    2
    92    41    38    1
    93   103   104    1
    94    60    58    1
    95    34    35   ar
    96   105   104    1
    97   105   106    1
    98    38    37    1
    99    38    39    1
   100   135   136    1
   101   135   138    1
   102   142   140   ar
   103   142   143   ar
   104   140   139   ar
   105   143   141   ar
   106   136   137    2
   107    58    59    1
   108    58    55    1
   109   139   141   ar
   110   139   138    1
   111    57    56    2
   112    39    40    2
   113    56    55    1
   114    75    74    2
   115    81    79   ar
   116    81    82   ar
   117    79    77   ar
   118    82    80   ar
   119    77    76    1
   120    77    78   ar
   121    76    73    1
   122    55    54    1
   123    80    78   ar
   124    52    51    1
   125    74    73    1
   126    73    72    1
   127    51    53    1
   128    51    48    1
   129   153   159    1
   130   153   154    1
   131   159   158    1
   132    50    49    2
   133    42    43    1
   134    70    68   ar
   135    70    71   ar
   136    49    48    1
   137   154   157    1
   138   154   155    1
   139    46    43    1
   140    48    47    1
   141    68    66   ar
   142   158   157    1
   143    71    69   ar
   144    43    44    1
   145    64    63    2
   146   155   156    2
   147    63    62    1
   148    45    44    2
   149    66    65    1
   150    66    67   ar
   151   168   166   ar
   152   168   169   ar
   153    65    62    1
   154    69    67   ar
   155   171   169   ar
   156   171   173   ar
   157   166   165   ar
   158   169   167   ar
   159    62    61    1
   160   173   172   ar
   161   165   167   ar
   162   165   164    1
   163   167   170   ar
   164   172   170   ar
   165   164   161    1
   166   161   160    1
   167   161   162    1
   168   162   163    2
