@<TRIPOS>MOLECULE
tmp/6hqbA56.pdb
 98 93 0 0 0
SMALL
GASTEIGER

@<TRIPOS>ATOM
      1  N        -19.1570  -13.8030  -62.9620 N.3   115  GLN115     -0.1231
      2  CA       -20.5240  -14.0720  -63.3880 C.3   115  GLN115      0.1698
      3  C        -21.0960  -12.8200  -64.0380 C.2   115  GLN115      0.2592
      4  O        -20.8810  -11.7070  -63.5500 O.2   115  GLN115     -0.2718
      5  CB       -21.4050  -14.5130  -62.2140 C.3   115  GLN115      0.0381
      6  CG       -22.8210  -14.8950  -62.6160 C.3   115  GLN115      0.0905
      7  CD       -23.6800  -15.2800  -61.4300 C.2   115  GLN115      0.2608
      8  OE1      -23.2040  -15.3300  -60.2960 O.2   115  GLN115     -0.2717
      9  NE2      -24.9540  -15.5530  -61.6840 N.am  115  GLN115     -0.0878
     10  N        -21.8200  -13.0130  -65.1380 N.am  116  VAL116     -0.1966
     11  CA       -22.4560  -11.9290  -65.8780 C.3   116  VAL116      0.1727
     12  C        -23.9490  -12.2200  -65.9460 C.2   116  VAL116      0.2616
     13  O        -24.3570  -13.2840  -66.4260 O.2   116  VAL116     -0.2715
     14  CB       -21.8650  -11.7750  -67.2870 C.3   116  VAL116      0.0290
     15  CG1      -22.5590  -10.6450  -68.0320 C.3   116  VAL116      0.0023
     16  CG2      -20.3650  -11.5320  -67.2080 C.3   116  VAL116      0.0023
     17  N        -24.7570  -11.2770  -65.4710 N.am  117  VAL117     -0.1963
     18  CA       -26.2070  -11.4300  -65.4460 C.3   117  VAL117      0.1727
     19  C        -26.7790  -10.9500  -66.7730 C.2   117  VAL117      0.2616
     20  O        -26.4080   -9.8800  -67.2700 O.2   117  VAL117     -0.2715
     21  CB       -26.8220  -10.6560  -64.2680 C.3   117  VAL117      0.0290
     22  CG1      -28.3370  -10.7830  -64.2800 C.3   117  VAL117      0.0023
     23  CG2      -26.2550  -11.1600  -62.9540 C.3   117  VAL117      0.0023
     24  N        -27.6750  -11.7410  -67.3440 N.am  118  TRP118     -0.1974
     25  CA       -28.3240  -11.3820  -68.6000 C.3   118  TRP118      0.1640
     26  C        -29.2170  -10.1640  -68.4060 C.2   118  TRP118      0.2290
     27  O        -30.1410  -10.2110  -67.5830 O.2   118  TRP118     -0.2864
     28  CB       -29.1390  -12.5610  -69.1180 C.3   118  TRP118      0.0576
     29  CG       -28.3340  -13.5510  -69.9010 C.ar  118  TRP118      0.0006
     30  CD1      -27.1180  -13.3420  -70.4810 C.ar  118  TRP118      0.0946
     31  CD2      -28.6900  -14.9070  -70.1920 C.ar  118  TRP118      0.0152
     32  NE1      -26.6950  -14.4830  -71.1180 N.ar  118  TRP118     -0.2442
     33  CE2      -27.6410  -15.4600  -70.9540 C.ar  118  TRP118      0.0810
     34  CE3      -29.7920  -15.7090  -69.8820 C.ar  118  TRP118      0.0012
     35  CZ2      -27.6620  -16.7750  -71.4090 C.ar  118  TRP118      0.0191
     36  CZ3      -29.8130  -17.0120  -70.3370 C.ar  118  TRP118      0.0001
     37  CH2      -28.7540  -17.5340  -71.0910 C.ar  118  TRP118      0.0015
     38  N        -32.1900   -8.2760  -68.5060 N.3   120  ILE120     -0.1231
     39  CA       -33.5830   -8.5450  -68.8420 C.3   120  ILE120      0.1692
     40  C        -34.4430   -8.1260  -67.6600 C.2   120  ILE120      0.2591
     41  O        -34.0200   -8.2170  -66.5040 O.2   120  ILE120     -0.2718
     42  CB       -33.7870  -10.0370  -69.2150 C.3   120  ILE120      0.0266
     43  CG1      -35.2180  -10.2860  -69.6880 C.3   120  ILE120      0.0019
     44  CG2      -33.4500  -10.9400  -68.0430 C.3   120  ILE120      0.0020
     45  CD1      -35.6480   -9.3520  -70.7790 C.3   120  ILE120      0.0001
     46  N        -35.6550   -7.6450  -67.9600 N.am  121  VAL121     -0.1980
     47  CA       -36.6720   -7.2010  -67.0030 C.3   121  VAL121      0.1595
     48  C        -36.0710   -6.4640  -65.8090 C.2   121  VAL121      0.2287
     49  O        -36.5810   -6.5530  -64.6860 O.2   121  VAL121     -0.2864
     50  CB       -37.5580   -8.3800  -66.5390 C.3   121  VAL121      0.0276
     51  CG1      -38.2850   -8.9950  -67.7300 C.3   121  VAL121      0.0022
     52  CG2      -36.7630   -9.4440  -65.7730 C.3   121  VAL121      0.0022
     53  N        -33.0810   -6.8600  -64.3850 N.3   123  GLN123     -0.1245
     54  CA       -32.0530   -7.5380  -63.6070 C.3   123  GLN123      0.1566
     55  C        -30.6430   -7.2200  -64.0880 C.2   123  GLN123      0.2260
     56  O        -29.6780   -7.5690  -63.3980 O.2   123  GLN123     -0.2867
     57  CB       -32.2820   -9.0540  -63.6170 C.3   123  GLN123      0.0367
     58  CG       -31.8380   -9.7700  -64.8790 C.3   123  GLN123      0.0905
     59  CD       -32.1390  -11.2600  -64.8380 C.2   123  GLN123      0.2608
     60  OE1      -33.0150  -11.7090  -64.0980 O.2   123  GLN123     -0.2717
     61  NE2      -31.4100  -12.0330  -65.6330 N.am  123  GLN123     -0.0878
     62  N        -28.0060   -5.8060  -61.7590 N.3   126  LEU126     -0.1245
     63  CA       -27.2040   -6.6150  -60.8500 C.3   126  LEU126      0.1561
     64  C        -25.7410   -6.6960  -61.2680 C.2   126  LEU126      0.2260
     65  O        -24.9240   -7.2070  -60.4950 O.2   126  LEU126     -0.2867
     66  CB       -27.7980   -8.0220  -60.7420 C.3   126  LEU126      0.0270
     67  CG       -29.2560   -8.0950  -60.2740 C.3   126  LEU126      0.0019
     68  CD1      -29.7960   -9.5110  -60.3850 C.3   126  LEU126      0.0001
     69  CD2      -29.4030   -7.5760  -58.8520 C.3   126  LEU126      0.0001
     70  N        -21.1750   -9.7650  -61.1420 N.3   137  ILE137     -0.1245
     71  CA       -21.3650  -10.0520  -59.7250 C.3   137  ILE137      0.1561
     72  C        -20.0030  -10.2920  -59.0880 C.2   137  ILE137      0.2260
     73  O        -19.2470  -11.1660  -59.5270 O.2   137  ILE137     -0.2867
     74  CB       -22.2890  -11.2610  -59.5230 C.3   137  ILE137      0.0252
     75  CG1      -23.6950  -10.9540  -60.0440 C.3   137  ILE137      0.0019
     76  CG2      -22.3290  -11.6640  -58.0550 C.3   137  ILE137      0.0019
     77  CD1      -24.6910  -12.0690  -59.8010 C.3   137  ILE137      0.0001
     78  N        -30.1020   -7.8290  -54.8080 N.3   667  ALA667     -0.1245
     79  CA       -30.4200   -9.2480  -54.7010 C.3   667  ALA667      0.1562
     80  C        -30.1780   -9.7700  -53.2910 C.2   667  ALA667      0.2260
     81  O        -30.8990  -10.6600  -52.8250 O.2   667  ALA667     -0.2867
     82  CB       -29.6000  -10.0500  -55.7130 C.3   667  ALA667      0.0290
     83  N        -33.1300   -8.7990  -51.2200 N.3   670  ILE670     -0.1231
     84  CA       -34.2270   -9.6710  -51.6310 C.3   670  ILE670      0.1692
     85  C        -34.1090  -11.0270  -50.9470 C.2   670  ILE670      0.2591
     86  O        -35.0700  -11.5270  -50.3550 O.2   670  ILE670     -0.2718
     87  CB       -34.2590   -9.8090  -53.1650 C.3   670  ILE670      0.0266
     88  CG1      -34.7520   -8.5100  -53.8090 C.3   670  ILE670      0.0019
     89  CG2      -35.1270  -10.9900  -53.5800 C.3   670  ILE670      0.0020
     90  CD1      -34.9350   -8.6010  -55.3100 C.3   670  ILE670      0.0001
     91  N        -32.9190  -11.6300  -50.9960 N.am  671  MET671     -0.1979
     92  CA       -32.7310  -12.9430  -50.3870 C.3   671  MET671      0.1605
     93  C        -32.7730  -12.8760  -48.8650 C.2   671  MET671      0.2287
     94  O        -33.1390  -13.8580  -48.2160 O.2   671  MET671     -0.2864
     95  CB       -31.4160  -13.5640  -50.8570 C.3   671  MET671      0.0413
     96  CG       -31.3390  -13.7430  -52.3610 C.3   671  MET671      0.0598
     97  SD       -32.9190  -14.2760  -53.0440 S.3   671  MET671     -0.1393
     98  CE       -33.0170  -15.9510  -52.4130 C.3   671  MET671      0.0692
@<TRIPOS>BOND
     1    35    37   ar
     2    35    33   ar
     3    32    33   ar
     4    32    30   ar
     5    37    36   ar
     6    33    31   ar
     7    45    43    1
     8    30    29   ar
     9    36    34   ar
    10    31    29   ar
    11    31    34   ar
    12    29    28    1
    13    43    42    1
    14    42    39    1
    15    42    44    1
    16    28    25    1
    17    39    38    1
    18    39    40    1
    19    25    26    1
    20    25    24    1
    21    26    27    2
    22    15    14    1
    23    46    40   am
    24    46    47    1
    25    51    50    1
    26    40    41    2
    27    24    19   am
    28    14    16    1
    29    14    11    1
    30    20    19    2
    31    47    50    1
    32    47    48    1
    33    19    18    1
    34    50    52    1
    35    13    12    2
    36    12    11    1
    37    12    17   am
    38    11    10    1
    39    48    49    2
    40    61    59   am
    41    17    18    1
    42    18    21    1
    43    10     3   am
    44    58    59    1
    45    58    57    1
    46    59    60    2
    47    53    54    1
    48    22    21    1
    49    21    23    1
    50    55    54    1
    51    55    56    2
    52     3     4    2
    53     3     2    1
    54    57    54    1
    55     2     1    1
    56     2     5    1
    57     6     5    1
    58     6     7    1
    59    62    63    1
    60     9     7   am
    61     7     8    2
    62    64    63    1
    63    64    65    2
    64    70    71    1
    65    63    66    1
    66    66    67    1
    67    68    67    1
    68    67    69    1
    69    75    77    1
    70    75    74    1
    71    71    74    1
    72    71    72    1
    73    73    72    2
    74    74    76    1
    75    82    79    1
    76    90    88    1
    77    78    79    1
    78    79    80    1
    79    88    87    1
    80    89    87    1
    81    80    81    2
    82    87    84    1
    83    97    98    1
    84    97    96    1
    85    96    95    1
    86    84    83    1
    87    84    85    1
    88    91    85   am
    89    91    92    1
    90    85    86    2
    91    95    92    1
    92    92    93    1
    93    93    94    2
