@<TRIPOS>MOLECULE
tmp/6hqbA22.pdb
 111 106 0 0 0
SMALL
GASTEIGER

@<TRIPOS>ATOM
      1  N         11.5950  -22.0890  -44.7500 N.3   277  PHE277     -0.1241
      2  CA        10.7790  -22.1670  -43.5430 C.3   277  PHE277      0.1605
      3  C         10.6170  -20.7660  -42.9640 C.2   277  PHE277      0.2264
      4  O         10.8600  -20.5180  -41.7820 O.2   277  PHE277     -0.2867
      5  CB        11.3970  -23.1200  -42.5210 C.3   277  PHE277      0.0534
      6  CG        10.3900  -23.8010  -41.6310 C.ar  277  PHE277     -0.0203
      7  CD1        9.9470  -25.0820  -41.9190 C.ar  277  PHE277     -0.0042
      8  CD2        9.8940  -23.1650  -40.5050 C.ar  277  PHE277     -0.0042
      9  CE1        9.0260  -25.7150  -41.1040 C.ar  277  PHE277     -0.0003
     10  CE2        8.9720  -23.7920  -39.6870 C.ar  277  PHE277     -0.0003
     11  CZ         8.5370  -25.0690  -39.9880 C.ar  277  PHE277     -0.0000
     12  N         -8.1140  -22.7270  -39.8890 N.3   369  HIS369     -0.1241
     13  CA        -6.7190  -22.5620  -40.2720 C.3   369  HIS369      0.1621
     14  C         -6.5440  -21.6250  -41.4550 C.2   369  HIS369      0.2264
     15  O         -5.5410  -20.9060  -41.5230 O.2   369  HIS369     -0.2867
     16  CB        -6.0970  -23.9190  -40.6030 C.3   369  HIS369      0.0745
     17  CG        -5.8730  -24.7890  -39.4060 C.ar  369  HIS369      0.0817
     18  ND1       -5.1470  -25.9590  -39.4620 N.ar  369  HIS369     -0.2268
     19  CD2       -6.2790  -24.6590  -38.1210 C.ar  369  HIS369      0.1154
     20  CE1       -5.1150  -26.5120  -38.2630 C.ar  369  HIS369      0.1986
     21  NE2       -5.7980  -25.7460  -37.4320 N.ar  369  HIS369     -0.2212
     22  N         -4.2150  -18.1250  -41.0730 N.3   373  MET373     -0.1245
     23  CA        -2.9970  -18.2630  -41.8660 C.3   373  MET373      0.1570
     24  C         -3.4110  -18.2540  -43.3330 C.2   373  MET373      0.2261
     25  O         -3.4720  -19.3130  -43.9760 O.2   373  MET373     -0.2867
     26  CB        -2.2350  -19.5370  -41.5080 C.3   373  MET373      0.0387
     27  CG        -1.8320  -19.6230  -40.0440 C.3   373  MET373      0.0595
     28  SD        -1.4590  -21.3040  -39.5120 S.3   373  MET373     -0.1393
     29  CE        -3.0430  -22.0850  -39.7960 C.3   373  MET373      0.0692
     30  N         -1.7650  -16.9270  -22.9540 N.3   485  TRP485     -0.1227
     31  CA        -0.4760  -17.5690  -22.7230 C.3   485  TRP485      0.1737
     32  C         -0.0090  -18.3240  -23.9610 C.2   485  TRP485      0.2595
     33  O          1.1560  -18.2220  -24.3580 O.2   485  TRP485     -0.2718
     34  CB        -0.5660  -18.5030  -21.5180 C.3   485  TRP485      0.0564
     35  CG         0.6460  -19.3610  -21.3390 C.ar  485  TRP485      0.0003
     36  CD1        1.9350  -18.9380  -21.1920 C.ar  485  TRP485      0.0946
     37  CD2        0.6820  -20.7920  -21.2760 C.ar  485  TRP485      0.0152
     38  NE1        2.7730  -20.0180  -21.0480 N.ar  485  TRP485     -0.2442
     39  CE2        2.0280  -21.1680  -21.0950 C.ar  485  TRP485      0.0810
     40  CE3       -0.2930  -21.7930  -21.3570 C.ar  485  TRP485      0.0012
     41  CZ2        2.4240  -22.5010  -20.9930 C.ar  485  TRP485      0.0191
     42  CZ3        0.1030  -23.1170  -21.2560 C.ar  485  TRP485      0.0001
     43  CH2        1.4490  -23.4570  -21.0750 C.ar  485  TRP485      0.0015
     44  N         -0.9070  -19.0830  -24.5930 N.am  486  VAL486     -0.1980
     45  CA        -0.4920  -19.8200  -25.7860 C.3   486  VAL486      0.1595
     46  C         -0.2560  -18.8700  -26.9580 C.2   486  VAL486      0.2287
     47  O          0.5860  -19.1400  -27.8260 O.2   486  VAL486     -0.2864
     48  CB        -1.5120  -20.9180  -26.1360 C.3   486  VAL486      0.0276
     49  CG1       -0.9610  -21.8140  -27.2310 C.3   486  VAL486      0.0022
     50  CG2       -1.8320  -21.7420  -24.9090 C.3   486  VAL486      0.0022
     51  N          3.1610  -17.8230  -26.4010 N.3   489  LEU489     -0.1231
     52  CA         4.0410  -18.9350  -26.7520 C.3   489  LEU489      0.1693
     53  C          4.2970  -18.9740  -28.2520 C.2   489  LEU489      0.2592
     54  O          5.4460  -19.0760  -28.6970 O.2   489  LEU489     -0.2718
     55  CB         3.4360  -20.2600  -26.2880 C.3   489  LEU489      0.0284
     56  CG         3.2980  -20.5210  -24.7900 C.3   489  LEU489      0.0019
     57  CD1        2.7310  -21.9140  -24.5520 C.3   489  LEU489      0.0001
     58  CD2        4.6340  -20.3430  -24.0860 C.3   489  LEU489      0.0001
     59  N          3.2290  -18.9070  -29.0490 N.am  490  HIS490     -0.1976
     60  CA         3.3810  -18.8970  -30.4990 C.3   490  HIS490      0.1656
     61  C          4.0960  -17.6480  -30.9930 C.2   490  HIS490      0.2291
     62  O          4.6940  -17.6770  -32.0740 O.2   490  HIS490     -0.2864
     63  CB         2.0150  -19.0140  -31.1750 C.3   490  HIS490      0.0771
     64  CG         1.2840  -20.2760  -30.8420 C.ar  490  HIS490      0.0820
     65  ND1       -0.0200  -20.5020  -31.2240 N.ar  490  HIS490     -0.2267
     66  CD2        1.6750  -21.3810  -30.1660 C.ar  490  HIS490      0.1154
     67  CE1       -0.4020  -21.6920  -30.7950 C.ar  490  HIS490      0.1986
     68  NE2        0.6080  -22.2450  -30.1500 N.ar  490  HIS490     -0.2212
     69  N          7.9840  -18.1500  -30.7200 N.3   493  ALA493     -0.1245
     70  CA         8.4370  -19.4010  -31.3250 C.3   493  ALA493      0.1562
     71  C          9.7200  -19.2430  -32.1330 C.2   493  ALA493      0.2260
     72  O         10.6310  -20.0730  -31.9660 O.2   493  ALA493     -0.2867
     73  CB         7.3120  -20.0030  -32.1710 C.3   493  ALA493      0.0290
     74  N         11.5910  -22.3570  -29.2920 N.3   497  THR497     -0.1203
     75  CA        11.1890  -23.7010  -29.6810 C.3   497  THR497      0.1994
     76  C         11.0340  -23.8550  -31.1900 C.2   497  THR497      0.2617
     77  O         10.3460  -24.7760  -31.6440 O.2   497  THR497     -0.2717
     78  CB         9.8870  -24.0850  -28.9770 C.3   497  THR497      0.1784
     79  OG1        8.8360  -23.2070  -29.4000 O.3   497  THR497     -0.2211
     80  CG2       10.0530  -23.9780  -27.4680 C.3   497  THR497      0.0376
     81  N         11.6520  -22.9730  -31.9720 N.am  498  ALA498     -0.1979
     82  CA        11.6560  -23.0680  -33.4260 C.3   498  ALA498      0.1597
     83  C         12.7690  -22.1960  -33.9930 C.2   498  ALA498      0.2287
     84  O         12.4900  -21.1560  -34.6040 O.2   498  ALA498     -0.2864
     85  CB        10.3030  -22.6500  -34.0050 C.3   498  ALA498      0.0319
     86  N         12.5050  -21.5940  -37.7840 N.3   501  ALA501     -0.1245
     87  CA        11.3820  -20.7650  -38.1980 C.3   501  ALA501      0.1562
     88  C         11.7280  -19.2920  -38.0280 C.2   501  ALA501      0.2260
     89  O         12.2180  -18.8750  -36.9750 O.2   501  ALA501     -0.2867
     90  CB        10.1360  -21.1160  -37.3890 C.3   501  ALA501      0.0290
     91  N          9.3880  -16.6180  -38.8490 N.3   503  ALA503     -0.1245
     92  CA         8.2060  -15.9000  -38.4030 C.3   503  ALA503      0.1562
     93  C          7.2520  -16.8680  -37.7180 C.2   503  ALA503      0.2260
     94  O          7.3660  -18.0890  -37.8550 O.2   503  ALA503     -0.2867
     95  CB         7.4970  -15.1980  -39.5690 C.3   503  ALA503      0.0290
     96  N          3.6580  -18.7950  -36.8090 N.3   505  ALA505     -0.1245
     97  CA         2.6970  -19.4880  -37.6620 C.3   505  ALA505      0.1562
     98  C          1.6090  -18.5360  -38.1400 C.2   505  ALA505      0.2260
     99  O          1.2950  -18.4800  -39.3350 O.2   505  ALA505     -0.2867
    100  CB         2.0890  -20.6730  -36.9110 C.3   505  ALA505      0.0290
    101  N         -1.8370  -14.7090  -33.0170 N.3   509  PHE509     -0.1241
    102  CA        -1.3580  -14.9380  -31.6580 C.3   509  PHE509      0.1605
    103  C         -0.6460  -13.7070  -31.1130 C.2   509  PHE509      0.2264
    104  O         -0.7880  -13.3720  -29.9310 O.2   509  PHE509     -0.2867
    105  CB        -0.4280  -16.1490  -31.6240 C.3   509  PHE509      0.0534
    106  CG        -0.9760  -17.3570  -32.3280 C.ar  509  PHE509     -0.0203
    107  CD1       -2.0630  -18.0430  -31.8120 C.ar  509  PHE509     -0.0042
    108  CD2       -0.3980  -17.8120  -33.5020 C.ar  509  PHE509     -0.0042
    109  CE1       -2.5690  -19.1570  -32.4570 C.ar  509  PHE509     -0.0003
    110  CE2       -0.8970  -18.9260  -34.1520 C.ar  509  PHE509     -0.0003
    111  CZ        -1.9840  -19.6000  -33.6290 C.ar  509  PHE509     -0.0000
@<TRIPOS>BOND
     1     1     2    1
     2    25    24    2
     3     2     3    1
     4     2     5    1
     5    24    23    1
     6     3     4    2
     7     5     6    1
     8     7     6   ar
     9     7     9   ar
    10    23    26    1
    11    23    22    1
    12     6     8   ar
    13    15    14    2
    14    26    27    1
    15    14    13    1
    16     9    11   ar
    17    16    13    1
    18    16    17    1
    19     8    10   ar
    20    13    12    1
    21    27    28    1
    22    11    10   ar
    23    29    28    1
    24    95    92    1
    25    18    17   ar
    26    18    20   ar
    27    17    19   ar
    28    99    98    2
    29    91    92    1
    30    92    93    1
    31    20    21   ar
    32    87    88    1
    33    87    86    1
    34    87    90    1
    35    98    97    1
    36    19    21   ar
    37    88    89    2
    38    94    93    2
    39    97   100    1
    40    97    96    1
    41    84    83    2
    42   110   111   ar
    43   110   108   ar
    44    85    82    1
    45    83    82    1
    46   111   109   ar
    47   108   106   ar
    48    82    81    1
    49   101   102    1
    50   109   107   ar
    51   106   107   ar
    52   106   105    1
    53    73    70    1
    54    71    72    2
    55    71    70    1
    56    62    61    2
    57    81    76   am
    58   102   105    1
    59   102   103    1
    60    77    76    2
    61    70    69    1
    62    65    64   ar
    63    65    67   ar
    64    76    75    1
    65    63    64    1
    66    63    60    1
    67   103   104    2
    68    61    60    1
    69    64    66   ar
    70    67    68   ar
    71    60    59    1
    72    66    68   ar
    73    75    74    1
    74    75    78    1
    75    79    78    1
    76    59    53   am
    77    78    80    1
    78    54    53    2
    79    53    52    1
    80    47    46    2
    81    49    48    1
    82    46    45    1
    83    52    51    1
    84    52    55    1
    85    55    56    1
    86    48    45    1
    87    48    50    1
    88    45    44    1
    89    56    57    1
    90    56    58    1
    91    44    32   am
    92    33    32    2
    93    32    31    1
    94    30    31    1
    95    31    34    1
    96    34    35    1
    97    40    37   ar
    98    40    42   ar
    99    35    37   ar
   100    35    36   ar
   101    37    39   ar
   102    42    43   ar
   103    36    38   ar
   104    39    38   ar
   105    39    41   ar
   106    43    41   ar
