@<TRIPOS>MOLECULE
tmp/6hqbA31.pdb
 129 127 0 0 0
SMALL
GASTEIGER

@<TRIPOS>ATOM
      1  N        -43.9490  -39.2660  -51.8980 N.3    49  TRP49      -0.1241
      2  CA       -42.9460  -38.8070  -50.9410 C.3    49  TRP49       0.1605
      3  C        -42.0600  -39.9600  -50.4840 C.2    49  TRP49       0.2264
      4  O        -40.8270  -39.8620  -50.5150 O.2    49  TRP49      -0.2867
      5  CB       -43.6270  -38.1440  -49.7430 C.3    49  TRP49       0.0550
      6  CG       -44.5640  -37.0220  -50.0990 C.ar   49  TRP49       0.0003
      7  CD1      -45.9070  -36.9620  -49.8470 C.ar   49  TRP49       0.0946
      8  CD2      -44.2260  -35.8020  -50.7680 C.ar   49  TRP49       0.0152
      9  NE1      -46.4230  -35.7760  -50.3160 N.ar   49  TRP49      -0.2442
     10  CE2      -45.4110  -35.0460  -50.8840 C.ar   49  TRP49       0.0810
     11  CE3      -43.0350  -35.2720  -51.2730 C.ar   49  TRP49       0.0012
     12  CZ2      -45.4390  -33.7910  -51.4910 C.ar   49  TRP49       0.0191
     13  CZ3      -43.0660  -34.0260  -51.8750 C.ar   49  TRP49       0.0001
     14  CH2      -44.2590  -33.3000  -51.9800 C.ar   49  TRP49       0.0015
     15  N        -45.0110  -23.2680  -39.6260 N.3   684  MET684     -0.1230
     16  CA       -46.3010  -23.9060  -39.8680 C.3   684  MET684      0.1702
     17  C        -46.2010  -25.4200  -39.7280 C.2   684  MET684      0.2592
     18  O        -47.0590  -26.0540  -39.1040 O.2   684  MET684     -0.2718
     19  CB       -46.8140  -23.5230  -41.2570 C.3   684  MET684      0.0401
     20  CG       -48.2010  -24.0490  -41.5830 C.3   684  MET684      0.0596
     21  SD       -48.6690  -23.7680  -43.3030 S.3   684  MET684     -0.1393
     22  CE       -47.3960  -24.6870  -44.1570 C.3   684  MET684      0.0692
     23  N        -45.1520  -26.0170  -40.2980 N.am  685  PHE685     -0.1976
     24  CA       -44.9500  -27.4550  -40.1570 C.3   685  PHE685      0.1639
     25  C        -44.4850  -27.8130  -38.7530 C.2   685  PHE685      0.2290
     26  O        -44.9590  -28.7920  -38.1650 O.2   685  PHE685     -0.2864
     27  CB       -43.9320  -27.9500  -41.1850 C.3   685  PHE685      0.0560
     28  CG       -44.2880  -27.6120  -42.6000 C.ar  685  PHE685     -0.0200
     29  CD1      -45.0390  -28.4880  -43.3660 C.ar  685  PHE685     -0.0042
     30  CD2      -43.8680  -26.4180  -43.1670 C.ar  685  PHE685     -0.0042
     31  CE1      -45.3680  -28.1800  -44.6700 C.ar  685  PHE685     -0.0003
     32  CE2      -44.1930  -26.1030  -44.4700 C.ar  685  PHE685     -0.0003
     33  CZ       -44.9440  -26.9840  -45.2240 C.ar  685  PHE685     -0.0000
     34  N        -47.4930  -27.6270  -35.9670 N.3   688  SER688     -0.1202
     35  CA       -48.7900  -28.2500  -36.1970 C.3   688  SER688      0.2020
     36  C        -48.6560  -29.7700  -36.2830 C.2   688  SER688      0.2619
     37  O        -47.5760  -30.3410  -36.1040 O.2   688  SER688     -0.2717
     38  CB       -49.4350  -27.6890  -37.4680 C.3   688  SER688      0.2103
     39  OG       -48.6180  -27.9270  -38.6010 O.3   688  SER688     -0.2182
     40  N        -49.7790  -30.4210  -36.5570 N.am  689  GLY689     -0.1942
     41  CA       -49.8060  -31.8630  -36.7170 C.3   689  GLY689      0.2014
     42  C        -50.6990  -32.2480  -37.8770 C.2   689  GLY689      0.2638
     43  O        -51.6640  -31.5530  -38.2030 O.2   689  GLY689     -0.2714
     44  N        -50.3730  -33.3870  -38.4940 N.am  690  ARG690     -0.1977
     45  CA       -51.0090  -33.7680  -39.7510 C.3   690  ARG690      0.1597
     46  C        -52.4800  -34.1370  -39.5950 C.2   690  ARG690      0.2287
     47  O        -53.1990  -34.1830  -40.6000 O.2   690  ARG690     -0.2864
     48  CB       -50.2530  -34.9360  -40.3880 C.3   690  ARG690      0.0334
     49  CG       -50.4350  -36.2650  -39.6870 C.3   690  ARG690      0.0492
     50  CD       -49.7360  -37.3720  -40.4570 C.3   690  ARG690      0.2205
     51  NE       -50.0790  -37.3490  -41.8780 N.pl3 690  ARG690     -0.0865
     52  CZ       -51.1570  -37.9270  -42.4020 C.cat 690  ARG690      0.5346
     53  NH1      -51.3810  -37.8500  -43.7070 N.pl3 690  ARG690      0.1354
     54  NH2      -52.0130  -38.5790  -41.6270 N.pl3 690  ARG690      0.1354
     55  N        -54.4940  -31.4110  -41.0440 N.3   693  TRP693     -0.1241
     56  CA       -54.3340  -31.2260  -42.4790 C.3   693  TRP693      0.1605
     57  C        -55.0320  -32.3230  -43.2670 C.2   693  TRP693      0.2264
     58  O        -55.5540  -32.0590  -44.3540 O.2   693  TRP693     -0.2867
     59  CB       -52.8490  -31.1590  -42.8310 C.3   693  TRP693      0.0550
     60  CG       -52.1360  -30.0990  -42.0550 C.ar  693  TRP693      0.0003
     61  CD1      -51.2430  -30.2840  -41.0410 C.ar  693  TRP693      0.0946
     62  CD2      -52.2850  -28.6820  -42.2060 C.ar  693  TRP693      0.0152
     63  NE1      -50.8160  -29.0700  -40.5590 N.ar  693  TRP693     -0.2442
     64  CE2      -51.4400  -28.0700  -41.2590 C.ar  693  TRP693      0.0810
     65  CE3      -53.0460  -27.8720  -43.0540 C.ar  693  TRP693      0.0012
     66  CZ2      -51.3350  -26.6840  -41.1380 C.ar  693  TRP693      0.0191
     67  CZ3      -52.9400  -26.4990  -42.9320 C.ar  693  TRP693      0.0001
     68  CH2      -52.0900  -25.9180  -41.9820 C.ar  693  TRP693      0.0015
     69  N        -57.8670  -31.7600  -46.0320 N.3   697  ILE697     -0.1245
     70  CA       -57.8050  -32.4080  -47.3360 C.3   697  ILE697      0.1561
     71  C        -59.0880  -33.1790  -47.6050 C.2   697  ILE697      0.2260
     72  O        -59.4940  -33.3300  -48.7570 O.2   697  ILE697     -0.2867
     73  CB       -56.5570  -33.3130  -47.4240 C.3   697  ILE697      0.0252
     74  CG1      -55.2830  -32.4680  -47.4680 C.3   697  ILE697      0.0019
     75  CG2      -56.6040  -34.2090  -48.6510 C.3   697  ILE697      0.0019
     76  CD1      -54.0230  -33.2760  -47.7190 C.3   697  ILE697      0.0001
     77  N        -52.9660  -37.4630  -49.5460 N.3   716  ARG716     -0.1231
     78  CA       -52.7520  -37.6920  -48.1250 C.3   716  ARG716      0.1694
     79  C        -51.7360  -36.6820  -47.6230 C.2   716  ARG716      0.2592
     80  O        -50.7010  -36.4710  -48.2640 O.2   716  ARG716     -0.2718
     81  CB       -52.2560  -39.1150  -47.8570 C.3   716  ARG716      0.0321
     82  CG       -53.2590  -40.2050  -48.1690 C.3   716  ARG716      0.0489
     83  CD       -54.3270  -40.2890  -47.1030 C.3   716  ARG716      0.2205
     84  NE       -55.1580  -41.4790  -47.2550 N.pl3 716  ARG716     -0.0865
     85  CZ       -56.3140  -41.5050  -47.9070 C.cat 716  ARG716      0.5346
     86  NH1      -56.7830  -40.3990  -48.4720 N.pl3 716  ARG716      0.1354
     87  NH2      -57.0040  -42.6340  -47.9910 N.pl3 716  ARG716      0.1354
     88  N        -52.0330  -36.0610  -46.4830 N.am  717  ALA717     -0.1966
     89  CA       -51.0990  -35.1310  -45.8680 C.3   717  ALA717      0.1728
     90  C        -49.7600  -35.8170  -45.6040 C.2   717  ALA717      0.2616
     91  O        -49.6620  -37.0460  -45.5360 O.2   717  ALA717     -0.2715
     92  CB       -51.6780  -34.5750  -44.5680 C.3   717  ALA717      0.0334
     93  N        -48.7150  -35.0040  -45.4720 N.am  718  LEU718     -0.1963
     94  CA       -47.3870  -35.5380  -45.2080 C.3   718  LEU718      0.1728
     95  C        -47.3960  -36.3610  -43.9250 C.2   718  LEU718      0.2617
     96  O        -48.1100  -36.0550  -42.9650 O.2   718  LEU718     -0.2715
     97  CB       -46.3630  -34.4070  -45.0870 C.3   718  LEU718      0.0311
     98  CG       -46.3730  -33.2980  -46.1420 C.3   718  LEU718      0.0022
     99  CD1      -45.2880  -32.2730  -45.8440 C.3   718  LEU718      0.0001
    100  CD2      -46.2060  -33.8690  -47.5400 C.3   718  LEU718      0.0001
    101  N        -46.6000  -37.4250  -43.9160 N.am  719  SER719     -0.1936
    102  CA       -46.4470  -38.2060  -42.7010 C.3   719  SER719      0.2055
    103  C        -45.8460  -37.3380  -41.5990 C.2   719  SER719      0.2642
    104  O        -45.2810  -36.2690  -41.8500 O.2   719  SER719     -0.2714
    105  CB       -45.5740  -39.4390  -42.9550 C.3   719  SER719      0.2130
    106  OG       -44.2830  -39.0830  -43.4190 O.3   719  SER719     -0.2179
    107  N        -45.9940  -37.8080  -40.3590 N.am  720  ILE720     -0.1977
    108  CA       -45.4770  -37.0690  -39.2090 C.3   720  ILE720      0.1596
    109  C        -43.9820  -36.8150  -39.3720 C.2   720  ILE720      0.2287
    110  O        -43.4980  -35.6840  -39.2170 O.2   720  ILE720     -0.2864
    111  CB       -45.7870  -37.8330  -37.9100 C.3   720  ILE720      0.0276
    112  CG1      -47.2330  -38.3330  -37.9290 C.3   720  ILE720      0.0022
    113  CG2      -45.5490  -36.9510  -36.6990 C.3   720  ILE720      0.0022
    114  CD1      -47.5750  -39.2740  -36.7950 C.3   720  ILE720      0.0001
    115  N        -43.5170  -34.3570  -42.1660 N.3   723  GLY723     -0.1210
    116  CA       -43.8500  -33.0290  -41.6760 C.3   723  GLY723      0.1956
    117  C        -42.6980  -32.4010  -40.9170 C.2   723  GLY723      0.2611
    118  O        -42.3010  -31.2600  -41.1890 O.2   723  GLY723     -0.2717
    119  N        -42.1240  -33.1540  -39.9710 N.am  724  ARG724     -0.1979
    120  CA       -40.9840  -32.6450  -39.2110 C.3   724  ARG724      0.1597
    121  C        -39.7850  -32.3760  -40.1170 C.2   724  ARG724      0.2287
    122  O        -39.0440  -31.4030  -39.9140 O.2   724  ARG724     -0.2864
    123  CB       -40.6130  -33.6310  -38.1030 C.3   724  ARG724      0.0334
    124  CG       -41.7800  -34.0430  -37.2140 C.3   724  ARG724      0.0492
    125  CD       -41.3190  -34.3040  -35.7880 C.3   724  ARG724      0.2205
    126  NE       -42.2370  -35.1620  -35.0400 N.pl3 724  ARG724     -0.0865
    127  CZ       -42.0380  -36.4590  -34.8250 C.cat 724  ARG724      0.5346
    128  NH1      -40.9500  -37.0540  -35.2970 N.pl3 724  ARG724      0.1354
    129  NH2      -42.9220  -37.1640  -34.1310 N.pl3 724  ARG724      0.1354
@<TRIPOS>BOND
     1    14    13   ar
     2    14    12   ar
     3     1     2    1
     4    13    11   ar
     5    12    10   ar
     6    11     8   ar
     7     2     3    1
     8     2     5    1
     9    10     8   ar
    10    10     9   ar
    11     8     6   ar
    12     4     3    2
    13     9     7   ar
    14     6     7   ar
    15     6     5    1
    16    77    78    1
    17    72    71    2
    18    75    73    1
    19    86    85    1
    20    80    79    2
    21    82    81    1
    22    82    83    1
    23    78    81    1
    24    78    79    1
    25    87    85    1
    26    85    84    2
    27    76    74    1
    28    79    88   am
    29    71    70    1
    30   100    98    1
    31    74    73    1
    32    73    70    1
    33    70    69    1
    34    84    83    1
    35    88    89    1
    36    98    99    1
    37    98    97    1
    38    89    90    1
    39    89    92    1
    40    90    91    2
    41    90    93   am
    42    93    94    1
    43    33    31   ar
    44    33    32   ar
    45    94    97    1
    46    94    95    1
    47    31    29   ar
    48    32    30   ar
    49    58    57    2
    50    22    21    1
    51    95   101   am
    52    95    96    2
    53   101   102    1
    54    53    52    1
    55   106   105    1
    56    29    28   ar
    57    21    20    1
    58    57    56    1
    59    30    28   ar
    60    65    67   ar
    61    65    62   ar
    62   105   102    1
    63    67    68   ar
    64    59    56    1
    65    59    60    1
    66   102   103    1
    67    28    27    1
    68    56    55    1
    69    52    51    2
    70    52    54    1
    71    62    60   ar
    72    62    64   ar
    73   115   116    1
    74    60    61   ar
    75    68    66   ar
    76    51    50    1
    77   104   103    2
    78   116   117    1
    79   103   107   am
    80    20    19    1
    81    64    66   ar
    82    64    63   ar
    83    19    16    1
    84   118   117    2
    85    27    24    1
    86    61    63   ar
    87   117   119   am
    88    47    46    2
    89    50    49    1
    90    48    45    1
    91    48    49    1
    92   107   108    1
    93    23    24    1
    94    23    17   am
    95    24    25    1
    96   121   122    2
    97   121   120    1
    98   119   120    1
    99    16    17    1
   100    16    15    1
   101    45    46    1
   102    45    44    1
   103    17    18    2
   104   109   110    2
   105   109   108    1
   106   120   123    1
   107   108   111    1
   108    25    26    2
   109    39    38    1
   110    44    42   am
   111    43    42    2
   112   123   124    1
   113   112   111    1
   114   112   114    1
   115   111   113    1
   116    42    41    1
   117    38    35    1
   118   124   125    1
   119    41    40    1
   120    40    36   am
   121    36    35    1
   122    36    37    2
   123    35    34    1
   124   125   126    1
   125   128   127    1
   126   126   127    2
   127   127   129    1
