@<TRIPOS>MOLECULE
tmp/6hqbB19.pdb
 109 101 0 0 0
SMALL
GASTEIGER

@<TRIPOS>ATOM
      1  N        -89.6860  -15.6230  -26.8810 N.3   301  ILE301     -0.1245
      2  CA       -88.6050  -15.8980  -27.8260 C.3   301  ILE301      0.1561
      3  C        -88.7620  -17.2860  -28.4360 C.2   301  ILE301      0.2260
      4  O        -88.4470  -17.5020  -29.6150 O.2   301  ILE301     -0.2867
      5  CB       -87.2430  -15.7360  -27.1270 C.3   301  ILE301      0.0252
      6  CG1      -87.2090  -14.4270  -26.3380 C.3   301  ILE301      0.0019
      7  CG2      -86.1130  -15.7820  -28.1410 C.3   301  ILE301      0.0019
      8  CD1      -85.9350  -14.2150  -25.5560 C.3   301  ILE301      0.0001
      9  N        -91.0530  -16.9220  -31.4070 N.3   304  ILE304     -0.1231
     10  CA       -90.4970  -16.1750  -32.5320 C.3   304  ILE304      0.1692
     11  C        -89.4630  -17.0100  -33.2750 C.2   304  ILE304      0.2591
     12  O        -89.4300  -17.0240  -34.5110 O.2   304  ILE304     -0.2718
     13  CB       -89.9020  -14.8400  -32.0520 C.3   304  ILE304      0.0266
     14  CG1      -90.9190  -14.0680  -31.2110 C.3   304  ILE304      0.0019
     15  CG2      -89.4640  -14.0010  -33.2410 C.3   304  ILE304      0.0020
     16  CD1      -90.4120  -12.7340  -30.7170 C.3   304  ILE304      0.0001
     17  N        -88.5990  -17.7120  -32.5410 N.am  305  LEU305     -0.1980
     18  CA       -87.6400  -18.6010  -33.1870 C.3   305  LEU305      0.1596
     19  C        -88.3550  -19.6850  -33.9810 C.2   305  LEU305      0.2287
     20  O        -88.1380  -19.8380  -35.1880 O.2   305  LEU305     -0.2864
     21  CB       -86.7170  -19.2290  -32.1440 C.3   305  LEU305      0.0297
     22  CG       -85.7020  -18.3120  -31.4750 C.3   305  LEU305      0.0022
     23  CD1      -84.9810  -19.0830  -30.3960 C.3   305  LEU305      0.0001
     24  CD2      -84.7240  -17.7750  -32.5040 C.3   305  LEU305      0.0001
     25  N        -90.0320  -18.5340  -37.3920 N.3   308  HIS308     -0.1241
     26  CA       -89.2500  -18.1210  -38.5590 C.3   308  HIS308      0.1621
     27  C        -88.6940  -19.3650  -39.2390 C.2   308  HIS308      0.2264
     28  O        -87.5660  -19.7930  -38.9850 O.2   308  HIS308     -0.2867
     29  CB       -88.1310  -17.1700  -38.1560 C.3   308  HIS308      0.0745
     30  CG       -88.5960  -15.7850  -37.8310 C.ar  308  HIS308      0.0817
     31  ND1      -89.6120  -15.5290  -36.9340 N.ar  308  HIS308     -0.2268
     32  CD2      -88.1740  -14.5780  -38.2750 C.ar  308  HIS308      0.1154
     33  CE1      -89.7980  -14.2240  -36.8450 C.ar  308  HIS308      0.1986
     34  NE2      -88.9360  -13.6250  -37.6460 N.ar  308  HIS308     -0.2212
     35  N        -84.6200  -23.4370  -45.9410 N.3   313  THR313     -0.1218
     36  CA       -83.9270  -23.7320  -44.6940 C.3   313  THR313      0.1862
     37  C        -84.6620  -24.7610  -43.8440 C.2   313  THR313      0.2287
     38  O        -84.2440  -25.0270  -42.7110 O.2   313  THR313     -0.2866
     39  CB       -83.7170  -22.4470  -43.8880 C.3   313  THR313      0.1770
     40  OG1      -84.9840  -21.8220  -43.6470 O.3   313  THR313     -0.2211
     41  CG2      -82.8210  -21.4870  -44.6540 C.3   313  THR313      0.0375
     42  N        -85.6140  -21.8970  -37.3260 N.3   317  HIS317     -0.1241
     43  CA       -85.0450  -21.7090  -35.9960 C.3   317  HIS317      0.1621
     44  C        -85.8290  -22.4670  -34.9280 C.2   317  HIS317      0.2264
     45  O        -85.8750  -22.0490  -33.7690 O.2   317  HIS317     -0.2867
     46  CB       -84.9820  -20.2220  -35.6510 C.3   317  HIS317      0.0745
     47  CG       -84.5560  -19.3550  -36.7930 C.ar  317  HIS317      0.0817
     48  ND1      -85.3910  -19.0530  -37.8480 N.ar  317  HIS317     -0.2268
     49  CD2      -83.3840  -18.7280  -37.0500 C.ar  317  HIS317      0.1154
     50  CE1      -84.7510  -18.2770  -38.7040 C.ar  317  HIS317      0.1986
     51  NE2      -83.5320  -18.0650  -38.2440 N.ar  317  HIS317     -0.2212
     52  N        -84.6090  -23.9090  -31.2920 N.3   320  LEU320     -0.1245
     53  CA       -83.3740  -23.2020  -30.9860 C.3   320  LEU320      0.1561
     54  C        -83.4390  -22.4970  -29.6410 C.2   320  LEU320      0.2260
     55  O        -82.3930  -22.2560  -29.0320 O.2   320  LEU320     -0.2867
     56  CB       -83.0440  -22.1970  -32.0900 C.3   320  LEU320      0.0270
     57  CG       -82.1600  -22.7440  -33.2120 C.3   320  LEU320      0.0019
     58  CD1      -81.7750  -21.6420  -34.1840 C.3   320  LEU320      0.0001
     59  CD2      -80.9210  -23.4060  -32.6290 C.3   320  LEU320      0.0001
     60  N        -80.3440  -23.0930  -27.1820 N.3   324  ILE324     -0.1245
     61  CA       -79.4250  -22.0890  -26.6580 C.3   324  ILE324      0.1561
     62  C        -79.6240  -21.9020  -25.1610 C.2   324  ILE324      0.2260
     63  O        -78.6580  -21.6680  -24.4240 O.2   324  ILE324     -0.2867
     64  CB       -79.5950  -20.7610  -27.4220 C.3   324  ILE324      0.0252
     65  CG1      -79.4840  -20.9950  -28.9280 C.3   324  ILE324      0.0019
     66  CG2      -78.5520  -19.7450  -26.9840 C.3   324  ILE324      0.0019
     67  CD1      -79.6430  -19.7410  -29.7450 C.3   324  ILE324      0.0001
     68  N        -72.8000  -22.3340  -25.8020 N.3   330  PHE330     -0.1241
     69  CA       -73.4330  -21.5380  -26.8510 C.3   330  PHE330      0.1605
     70  C        -73.5430  -20.0740  -26.4330 C.2   330  PHE330      0.2264
     71  O        -73.1730  -19.1630  -27.1890 O.2   330  PHE330     -0.2867
     72  CB       -74.8160  -22.1150  -27.1550 C.3   330  PHE330      0.0534
     73  CG       -75.3080  -21.8390  -28.5440 C.ar  330  PHE330     -0.0203
     74  CD1      -75.4490  -22.8720  -29.4550 C.ar  330  PHE330     -0.0042
     75  CD2      -75.6460  -20.5570  -28.9370 C.ar  330  PHE330     -0.0042
     76  CE1      -75.9120  -22.6340  -30.7310 C.ar  330  PHE330     -0.0003
     77  CE2      -76.1060  -20.3100  -30.2150 C.ar  330  PHE330     -0.0003
     78  CZ       -76.2380  -21.3510  -31.1130 C.ar  330  PHE330     -0.0000
     79  N        -71.5430  -16.8460  -28.0910 N.3   334  LEU334     -0.1245
     80  CA       -72.1960  -15.6680  -28.6580 C.3   334  LEU334      0.1561
     81  C        -71.7440  -14.3910  -27.9530 C.2   334  LEU334      0.2260
     82  O        -71.4840  -13.3670  -28.6060 O.2   334  LEU334     -0.2867
     83  CB       -73.7150  -15.8150  -28.5800 C.3   334  LEU334      0.0270
     84  CG       -74.3640  -16.7080  -29.6360 C.3   334  LEU334      0.0019
     85  CD1      -75.8730  -16.7500  -29.4520 C.3   334  LEU334      0.0001
     86  CD2      -74.0070  -16.2170  -31.0280 C.3   334  LEU334      0.0001
     87  N        -81.6110  -24.5330  -39.0520 N.3   405  VAL405     -0.1231
     88  CA       -80.5040  -23.8360  -39.6940 C.3   405  VAL405      0.1692
     89  C        -79.1590  -24.2490  -39.1130 C.2   405  VAL405      0.2591
     90  O        -78.1290  -24.0880  -39.7750 O.2   405  VAL405     -0.2718
     91  CB       -80.6930  -22.3120  -39.5890 C.3   405  VAL405      0.0266
     92  CG1      -81.8880  -21.8710  -40.4150 C.3   405  VAL405      0.0020
     93  CG2      -80.8660  -21.8980  -38.1370 C.3   405  VAL405      0.0020
     94  N        -79.1380  -24.7860  -37.8910 N.am  406  LEU406     -0.1980
     95  CA       -77.8760  -25.2010  -37.2860 C.3   406  LEU406      0.1596
     96  C        -77.3930  -26.5300  -37.8550 C.2   406  LEU406      0.2287
     97  O        -76.2000  -26.6880  -38.1380 O.2   406  LEU406     -0.2864
     98  CB       -78.0300  -25.2960  -35.7670 C.3   406  LEU406      0.0297
     99  CG       -76.9160  -24.7130  -34.8910 C.3   406  LEU406      0.0022
    100  CD1      -77.2150  -24.9530  -33.4160 C.3   406  LEU406      0.0001
    101  CD2      -75.5540  -25.2800  -35.2640 C.3   406  LEU406      0.0001
    102  N        -75.8810  -26.4220  -41.3440 N.3   409  MET409     -0.1245
    103  CA       -74.4780  -26.0170  -41.3510 C.3   409  MET409      0.1570
    104  C        -73.5620  -27.2300  -41.2870 C.2   409  MET409      0.2261
    105  O        -72.5220  -27.2730  -41.9560 O.2   409  MET409     -0.2867
    106  CB       -74.1910  -25.0680  -40.1870 C.3   409  MET409      0.0387
    107  CG       -75.0090  -23.7860  -40.2030 C.3   409  MET409      0.0595
    108  SD       -74.9280  -22.8760  -41.7630 S.3   409  MET409     -0.1393
    109  CE       -73.1800  -22.5020  -41.8610 C.3   409  MET409      0.0692
@<TRIPOS>BOND
     1    35    36    1
     2    36    39    1
     3    36    37    1
     4    41    39    1
     5    39    40    1
     6    37    38    2
     7   105   104    2
     8   109   108    1
     9   108   107    1
    10   103   102    1
    11   103   104    1
    12   103   106    1
    13    92    91    1
    14   107   106    1
    15    90    89    2
    16    88    91    1
    17    88    89    1
    18    88    87    1
    19    91    93    1
    20    27    28    2
    21    27    26    1
    22    89    94   am
    23    50    51   ar
    24    50    48   ar
    25    26    29    1
    26    26    25    1
    27    32    30   ar
    28    32    34   ar
    29    51    49   ar
    30    29    30    1
    31    97    96    2
    32    94    95    1
    33    96    95    1
    34    48    47   ar
    35    30    31   ar
    36    34    33   ar
    37    42    43    1
    38    95    98    1
    39    49    47   ar
    40    31    33   ar
    41    47    46    1
    42    43    46    1
    43    43    44    1
    44    98    99    1
    45   101    99    1
    46    20    19    2
    47    44    45    2
    48    99   100    1
    49    12    11    2
    50    58    57    1
    51    19    18    1
    52    11    17   am
    53    11    10    1
    54    15    13    1
    55    57    59    1
    56    57    56    1
    57    18    17    1
    58    18    21    1
    59    10    13    1
    60    10     9    1
    61    24    22    1
    62    21    22    1
    63    56    53    1
    64    13    14    1
    65    22    23    1
    66    52    53    1
    67    14    16    1
    68    78    76   ar
    69    78    77   ar
    70    86    84    1
    71    53    54    1
    72    76    74   ar
    73    77    75   ar
    74    67    65    1
    75    54    55    2
    76    84    85    1
    77    84    83    1
    78     4     3    2
    79    74    73   ar
    80    75    73   ar
    81    65    64    1
    82    80    83    1
    83    80    79    1
    84    80    81    1
    85    82    81    2
    86    73    72    1
    87     3     2    1
    88     7     5    1
    89     2     5    1
    90     2     1    1
    91    64    66    1
    92    64    61    1
    93    71    70    2
    94    60    61    1
    95    72    69    1
    96     5     6    1
    97    69    70    1
    98    69    68    1
    99    61    62    1
   100     6     8    1
   101    62    63    2
