@<TRIPOS>MOLECULE
tmp/6hqbA32.pdb
 95 89 0 0 0
SMALL
GASTEIGER

@<TRIPOS>ATOM
      1  N          1.3970  -39.3430  -52.7990 N.3   207  LEU207     -0.1245
      2  CA         1.7750  -38.9670  -54.1550 C.3   207  LEU207      0.1561
      3  C          1.0290  -37.7260  -54.6240 C.2   207  LEU207      0.2260
      4  O          1.5340  -36.9900  -55.4750 O.2   207  LEU207     -0.2867
      5  CB         1.5260  -40.1320  -55.1120 C.3   207  LEU207      0.0270
      6  CG         2.3080  -41.4110  -54.8150 C.3   207  LEU207      0.0019
      7  CD1        1.9570  -42.4960  -55.8180 C.3   207  LEU207      0.0001
      8  CD2        3.8010  -41.1330  -54.8210 C.3   207  LEU207      0.0001
      9  N          2.9160  -34.8810  -53.2450 N.3   210  LEU210     -0.1245
     10  CA         4.1880  -34.9540  -53.9610 C.3   210  LEU210      0.1561
     11  C          4.0880  -34.2760  -55.3240 C.2   210  LEU210      0.2260
     12  O          4.8740  -33.3770  -55.6530 O.2   210  LEU210     -0.2867
     13  CB         4.6040  -36.4180  -54.1220 C.3   210  LEU210      0.0270
     14  CG         6.0220  -36.8250  -53.7220 C.3   210  LEU210      0.0019
     15  CD1        6.3190  -38.2230  -54.2380 C.3   210  LEU210      0.0001
     16  CD2        7.0560  -35.8250  -54.2190 C.3   210  LEU210      0.0001
     17  N         20.5610  -32.1960  -59.1900 N.3   260  LEU260     -0.1245
     18  CA        19.6830  -33.0950  -58.4510 C.3   260  LEU260      0.1561
     19  C         20.4290  -34.0480  -57.5290 C.2   260  LEU260      0.2260
     20  O         19.8260  -34.5650  -56.5820 O.2   260  LEU260     -0.2867
     21  CB        18.8250  -33.9250  -59.4160 C.3   260  LEU260      0.0270
     22  CG        17.9040  -33.1970  -60.3960 C.3   260  LEU260      0.0019
     23  CD1       18.6050  -32.9480  -61.7260 C.3   260  LEU260      0.0001
     24  CD2       16.6220  -33.9900  -60.5930 C.3   260  LEU260      0.0001
     25  N         20.3180  -34.0210  -53.4050 N.3   263  PHE263     -0.1227
     26  CA        19.1500  -34.5850  -52.7340 C.3   263  PHE263      0.1736
     27  C         19.3180  -36.0800  -52.4950 C.2   263  PHE263      0.2595
     28  O         18.9810  -36.5860  -51.4180 O.2   263  PHE263     -0.2718
     29  CB        17.8890  -34.3100  -53.5520 C.3   263  PHE263      0.0547
     30  CG        16.7370  -35.2020  -53.1990 C.ar  263  PHE263     -0.0202
     31  CD1       16.1940  -35.1830  -51.9270 C.ar  263  PHE263     -0.0042
     32  CD2       16.1920  -36.0550  -54.1420 C.ar  263  PHE263     -0.0042
     33  CE1       15.1390  -36.0060  -51.6020 C.ar  263  PHE263     -0.0003
     34  CE2       15.1310  -36.8780  -53.8220 C.ar  263  PHE263     -0.0003
     35  CZ        14.6030  -36.8510  -52.5510 C.ar  263  PHE263     -0.0000
     36  N         19.8390  -36.8040  -53.4880 N.am  264  PHE264     -0.1976
     37  CA        20.0210  -38.2420  -53.3290 C.3   264  PHE264      0.1639
     38  C         21.1840  -38.5620  -52.3990 C.2   264  PHE264      0.2290
     39  O         21.1880  -39.6190  -51.7590 O.2   264  PHE264     -0.2864
     40  CB        20.2340  -38.8980  -54.6930 C.3   264  PHE264      0.0560
     41  CG        19.2670  -38.4350  -55.7450 C.ar  264  PHE264     -0.0200
     42  CD1       17.9220  -38.7470  -55.6560 C.ar  264  PHE264     -0.0042
     43  CD2       19.7050  -37.6930  -56.8280 C.ar  264  PHE264     -0.0042
     44  CE1       17.0290  -38.3240  -56.6220 C.ar  264  PHE264     -0.0003
     45  CE2       18.8180  -37.2680  -57.7990 C.ar  264  PHE264     -0.0003
     46  CZ        17.4780  -37.5840  -57.6950 C.ar  264  PHE264     -0.0000
     47  N          5.8730  -31.3950  -49.8460 N.3   298  LEU298     -0.1245
     48  CA         6.8770  -32.4490  -49.9680 C.3   298  LEU298      0.1561
     49  C          6.9980  -33.2420  -48.6720 C.2   298  LEU298      0.2260
     50  O          7.0660  -34.4810  -48.6910 O.2   298  LEU298     -0.2867
     51  CB         8.2200  -31.8360  -50.3610 C.3   298  LEU298      0.0270
     52  CG         9.4110  -32.7730  -50.5520 C.3   298  LEU298      0.0019
     53  CD1        9.0740  -33.8920  -51.5230 C.3   298  LEU298      0.0001
     54  CD2       10.6160  -31.9870  -51.0420 C.3   298  LEU298      0.0001
     55  N          6.1110  -37.2720  -48.2330 N.3   302  VAL302     -0.1245
     56  CA         6.9870  -38.2910  -47.6590 C.3   302  VAL302      0.1561
     57  C          6.3050  -38.9640  -46.4740 C.2   302  VAL302      0.2260
     58  O          6.3060  -40.1990  -46.3530 O.2   302  VAL302     -0.2867
     59  CB         8.3420  -37.6750  -47.2640 C.3   302  VAL302      0.0252
     60  CG1        9.1810  -38.6800  -46.4910 C.3   302  VAL302      0.0019
     61  CG2        9.0880  -37.2020  -48.5020 C.3   302  VAL302      0.0019
     62  N          3.3920  -41.3070  -47.6950 N.3   305  ILE305     -0.1231
     63  CA         3.8890  -42.5010  -48.3700 C.3   305  ILE305      0.1692
     64  C          4.4870  -43.4670  -47.3560 C.2   305  ILE305      0.2591
     65  O          4.2960  -44.6840  -47.4520 O.2   305  ILE305     -0.2718
     66  CB         4.8990  -42.1290  -49.4700 C.3   305  ILE305      0.0266
     67  CG1        4.2510  -41.2090  -50.5030 C.3   305  ILE305      0.0019
     68  CG2        5.3940  -43.3780  -50.1680 C.3   305  ILE305      0.0020
     69  CD1        5.2280  -40.6570  -51.5130 C.3   305  ILE305      0.0001
     70  N          5.1960  -42.9420  -46.3520 N.am  306  ILE306     -0.1980
     71  CA         5.7180  -43.8110  -45.3000 C.3   306  ILE306      0.1595
     72  C          4.5780  -44.4270  -44.4950 C.2   306  ILE306      0.2287
     73  O          4.6240  -45.6080  -44.1310 O.2   306  ILE306     -0.2864
     74  CB         6.6950  -43.0320  -44.4020 C.3   306  ILE306      0.0276
     75  CG1        7.9330  -42.6190  -45.1970 C.3   306  ILE306      0.0022
     76  CG2        7.0970  -43.8660  -43.1970 C.3   306  ILE306      0.0022
     77  CD1        8.8550  -41.6970  -44.4390 C.3   306  ILE306      0.0001
     78  N          2.6630  -47.8700  -45.3850 N.3   309  HIS309     -0.1241
     79  CA         3.4410  -49.1070  -45.3310 C.3   309  HIS309      0.1621
     80  C          3.4400  -49.6840  -43.9220 C.2   309  HIS309      0.2264
     81  O          4.4580  -50.1920  -43.4400 O.2   309  HIS309     -0.2867
     82  CB         4.8740  -48.8800  -45.8120 C.3   309  HIS309      0.0745
     83  CG         4.9680  -48.4090  -47.2290 C.ar  309  HIS309      0.0817
     84  ND1        5.2610  -47.1040  -47.5630 N.ar  309  HIS309     -0.2268
     85  CD2        4.8010  -49.0680  -48.4000 C.ar  309  HIS309      0.1154
     86  CE1        5.2750  -46.9810  -48.8780 C.ar  309  HIS309      0.1986
     87  NE2        4.9960  -48.1570  -49.4090 N.ar  309  HIS309     -0.2212
     88  N          4.6980  -59.0120  -44.4440 N.3   317  ILE317     -0.1245
     89  CA         5.0050  -57.8880  -43.5670 C.3   317  ILE317      0.1561
     90  C          3.7850  -56.9820  -43.4270 C.2   317  ILE317      0.2260
     91  O          2.8720  -56.9730  -44.2620 O.2   317  ILE317     -0.2867
     92  CB         6.2210  -57.1060  -44.0900 C.3   317  ILE317      0.0252
     93  CG1        5.9490  -56.5810  -45.5010 C.3   317  ILE317      0.0019
     94  CG2        7.4610  -57.9830  -44.0770 C.3   317  ILE317      0.0019
     95  CD1        7.0840  -55.7670  -46.0810 C.3   317  ILE317      0.0001
@<TRIPOS>BOND
     1    23    22    1
     2    24    22    1
     3    22    21    1
     4    21    18    1
     5    17    18    1
     6    18    19    1
     7    45    46   ar
     8    45    43   ar
     9    46    44   ar
    10    19    20    2
    11    43    41   ar
    12    44    42   ar
    13     7     6    1
    14    41    42   ar
    15    41    40    1
    16    12    11    2
    17     4     3    2
    18    11    10    1
    19     5     6    1
    20     5     2    1
    21     8     6    1
    22    40    37    1
    23     3     2    1
    24    15    14    1
    25    16    14    1
    26     2     1    1
    27    32    34   ar
    28    32    30   ar
    29    13    10    1
    30    13    14    1
    31    10     9    1
    32    34    35   ar
    33    29    30    1
    34    29    26    1
    35    36    37    1
    36    36    27   am
    37    25    26    1
    38    37    38    1
    39    30    31   ar
    40    26    27    1
    41    35    33   ar
    42    27    28    2
    43    38    39    2
    44    31    33   ar
    45    53    52    1
    46    69    67    1
    47    54    52    1
    48    52    51    1
    49    67    66    1
    50    51    48    1
    51    68    66    1
    52    48    47    1
    53    48    49    1
    54    66    63    1
    55    87    86   ar
    56    87    85   ar
    57    86    84   ar
    58    50    49    2
    59    61    59    1
    60    85    83   ar
    61    63    62    1
    62    63    64    1
    63    55    56    1
    64    56    59    1
    65    56    57    1
    66    84    83   ar
    67    65    64    2
    68    64    70   am
    69    59    60    1
    70    83    82    1
    71    57    58    2
    72    70    71    1
    73    95    93    1
    74    82    79    1
    75    93    92    1
    76    78    79    1
    77    79    80    1
    78    71    72    1
    79    71    74    1
    80    75    77    1
    81    75    74    1
    82    72    73    2
    83    88    89    1
    84    74    76    1
    85    91    90    2
    86    92    94    1
    87    92    89    1
    88    80    81    2
    89    89    90    1
