@<TRIPOS>MOLECULE
tmp/6hqbB52.pdb
 164 160 0 0 0
SMALL
GASTEIGER

@<TRIPOS>ATOM
      1  N        -54.0970  -14.8100  -50.3700 N.3   428  GLY428     -0.1225
      2  CA       -52.6840  -15.0130  -50.1270 C.3   428  GLY428      0.1811
      3  C        -51.8220  -15.0190  -51.3690 C.2   428  GLY428      0.2280
      4  O        -50.8360  -14.2750  -51.4350 O.2   428  GLY428     -0.2866
      5  N        -49.3330  -11.7570  -51.6710 N.3   432  LEU432     -0.1245
      6  CA       -47.9080  -12.0500  -51.5810 C.3   432  LEU432      0.1561
      7  C        -47.2110  -11.8250  -52.9170 C.2   432  LEU432      0.2260
      8  O        -46.0940  -11.2960  -52.9590 O.2   432  LEU432     -0.2867
      9  CB       -47.7020  -13.4870  -51.1030 C.3   432  LEU432      0.0270
     10  CG       -46.2500  -13.9600  -51.0320 C.3   432  LEU432      0.0019
     11  CD1      -45.4600  -13.1390  -50.0200 C.3   432  LEU432      0.0001
     12  CD2      -46.1860  -15.4410  -50.7010 C.3   432  LEU432      0.0001
     13  N        -44.1480   -9.1950  -53.4170 N.3   436  VAL436     -0.1245
     14  CA       -42.8660   -9.6520  -53.9430 C.3   436  VAL436      0.1561
     15  C        -42.5600   -8.9730  -55.2740 C.2   436  VAL436      0.2260
     16  O        -41.4050   -8.6430  -55.5640 O.2   436  VAL436     -0.2867
     17  CB       -42.8620  -11.1870  -54.0680 C.3   436  VAL436      0.0252
     18  CG1      -41.6100  -11.6650  -54.7840 C.3   436  VAL436      0.0019
     19  CG2      -42.9580  -11.8250  -52.6920 C.3   436  VAL436      0.0019
     20  N        -41.3280   -5.4790  -54.4890 N.3   439  ASP439     -0.1225
     21  CA       -39.9550   -5.5330  -53.9920 C.3   439  ASP439      0.1805
     22  C        -38.9660   -5.7860  -55.1270 C.2   439  ASP439      0.2597
     23  O        -37.9340   -5.1120  -55.2290 O.2   439  ASP439     -0.2718
     24  CB       -39.8320   -6.6040  -52.9080 C.3   439  ASP439      0.1424
     25  CG       -40.3560   -6.1350  -51.5650 C.2   439  ASP439      0.3668
     26  OD1      -39.9350   -5.0490  -51.1100 O.co2 439  ASP439     -0.2456
     27  OD2      -41.1910   -6.8470  -50.9680 O.co2 439  ASP439     -0.2456
     28  N        -39.2750   -6.7500  -55.9980 N.am  440  VAL440     -0.1980
     29  CA       -38.3920   -7.0770  -57.1160 C.3   440  VAL440      0.1595
     30  C        -38.2660   -5.8920  -58.0650 C.2   440  VAL440      0.2287
     31  O        -37.1900   -5.6260  -58.6150 O.2   440  VAL440     -0.2864
     32  CB       -38.9110   -8.3360  -57.8400 C.3   440  VAL440      0.0276
     33  CG1      -38.2160   -8.5250  -59.1770 C.3   440  VAL440      0.0022
     34  CG2      -38.7290   -9.5680  -56.9630 C.3   440  VAL440      0.0022
     35  N        -56.8700  -11.5390  -45.7280 N.3   522  LEU522     -0.1245
     36  CA       -56.3110  -12.8850  -45.6430 C.3   522  LEU522      0.1561
     37  C        -56.2220  -13.3440  -44.1930 C.2   522  LEU522      0.2260
     38  O        -56.6060  -14.4730  -43.8570 O.2   522  LEU522     -0.2867
     39  CB       -54.9340  -12.9250  -46.3080 C.3   522  LEU522      0.0270
     40  CG       -54.1790  -14.2540  -46.2060 C.3   522  LEU522      0.0019
     41  CD1      -54.9060  -15.3460  -46.9700 C.3   522  LEU522      0.0001
     42  CD2      -52.7410  -14.1250  -46.6890 C.3   522  LEU522      0.0001
     43  N        -52.0490  -18.6490  -33.4300 N.3   578  PHE578     -0.1227
     44  CA       -50.9250  -18.0740  -34.1640 C.3   578  PHE578      0.1736
     45  C        -51.4080  -17.1210  -35.2470 C.2   578  PHE578      0.2595
     46  O        -50.8250  -16.0490  -35.4510 O.2   578  PHE578     -0.2718
     47  CB       -50.0730  -19.1840  -34.7790 C.3   578  PHE578      0.0547
     48  CG       -49.4860  -20.1280  -33.7720 C.ar  578  PHE578     -0.0202
     49  CD1      -48.2980  -19.8220  -33.1220 C.ar  578  PHE578     -0.0042
     50  CD2      -50.1160  -21.3270  -33.4760 C.ar  578  PHE578     -0.0042
     51  CE1      -47.7510  -20.6950  -32.1920 C.ar  578  PHE578     -0.0003
     52  CE2      -49.5770  -22.2050  -32.5500 C.ar  578  PHE578     -0.0003
     53  CZ       -48.3930  -21.8880  -31.9050 C.ar  578  PHE578     -0.0000
     54  N        -52.4790  -17.4930  -35.9500 N.am  579  TRP579     -0.1976
     55  CA       -52.9870  -16.6410  -37.0180 C.3   579  TRP579      0.1640
     56  C        -53.6080  -15.3660  -36.4650 C.2   579  TRP579      0.2290
     57  O        -53.4600  -14.2920  -37.0590 O.2   579  TRP579     -0.2864
     58  CB       -53.9880  -17.4160  -37.8720 C.3   579  TRP579      0.0576
     59  CG       -53.3710  -17.9230  -39.1310 C.ar  579  TRP579      0.0006
     60  CD1      -52.7550  -19.1250  -39.3200 C.ar  579  TRP579      0.0946
     61  CD2      -53.2820  -17.2260  -40.3790 C.ar  579  TRP579      0.0152
     62  NE1      -52.2990  -19.2250  -40.6120 N.ar  579  TRP579     -0.2442
     63  CE2      -52.6090  -18.0710  -41.2830 C.ar  579  TRP579      0.0810
     64  CE3      -53.7120  -15.9710  -40.8220 C.ar  579  TRP579      0.0012
     65  CZ2      -52.3560  -17.7020  -42.6030 C.ar  579  TRP579      0.0191
     66  CZ3      -53.4600  -15.6070  -42.1320 C.ar  579  TRP579      0.0001
     67  CH2      -52.7930  -16.4700  -43.0070 C.ar  579  TRP579      0.0015
     68  N        -50.6930  -13.1540  -35.6600 N.3   582  ASN582     -0.1240
     69  CA       -50.0940  -12.5950  -36.8700 C.3   582  ASN582      0.1653
     70  C        -50.9580  -11.4820  -37.4560 C.2   582  ASN582      0.2266
     71  O        -50.4380  -10.4440  -37.8910 O.2   582  ASN582     -0.2867
     72  CB       -49.8660  -13.7020  -37.8980 C.3   582  ASN582      0.1155
     73  CG       -49.3240  -13.1760  -39.2100 C.2   582  ASN582      0.2627
     74  OD1      -48.1270  -12.9220  -39.3470 O.2   582  ASN582     -0.2716
     75  ND2      -50.2070  -13.0130  -40.1870 N.am  582  ASN582     -0.0877
     76  N        -49.9130   -7.5490  -37.9700 N.3   586  TRP586     -0.1241
     77  CA       -50.0490   -6.7990  -39.2180 C.3   586  TRP586      0.1605
     78  C        -50.8780   -5.5360  -39.0150 C.2   586  TRP586      0.2264
     79  O        -50.4860   -4.4410  -39.4430 O.2   586  TRP586     -0.2867
     80  CB       -50.6810   -7.6860  -40.2920 C.3   586  TRP586      0.0550
     81  CG       -49.7990   -8.8060  -40.7580 C.ar  586  TRP586      0.0003
     82  CD1      -48.5640   -9.1270  -40.2790 C.ar  586  TRP586      0.0946
     83  CD2      -50.0830   -9.7490  -41.8000 C.ar  586  TRP586      0.0152
     84  NE1      -48.0600  -10.2120  -40.9560 N.ar  586  TRP586     -0.2442
     85  CE2      -48.9730  -10.6130  -41.8950 C.ar  586  TRP586      0.0810
     86  CE3      -51.1660   -9.9460  -42.6630 C.ar  586  TRP586      0.0012
     87  CZ2      -48.9150  -11.6570  -42.8180 C.ar  586  TRP586      0.0191
     88  CZ3      -51.1070  -10.9840  -43.5780 C.ar  586  TRP586      0.0001
     89  CH2      -49.9890  -11.8260  -43.6470 C.ar  586  TRP586      0.0015
     90  N        -48.8850   -2.9460  -36.9650 N.3   589  PHE589     -0.1241
     91  CA       -47.8660   -2.3190  -37.8030 C.3   589  PHE589      0.1605
     92  C        -48.4890   -1.2590  -38.7030 C.2   589  PHE589      0.2264
     93  O        -47.9920   -0.1280  -38.7930 O.2   589  PHE589     -0.2867
     94  CB       -47.1460   -3.3740  -38.6480 C.3   589  PHE589      0.0534
     95  CG       -46.2190   -4.2660  -37.8670 C.ar  589  PHE589     -0.0203
     96  CD1      -45.9450   -4.0210  -36.5310 C.ar  589  PHE589     -0.0042
     97  CD2      -45.6100   -5.3500  -38.4810 C.ar  589  PHE589     -0.0042
     98  CE1      -45.0860   -4.8480  -35.8230 C.ar  589  PHE589     -0.0003
     99  CE2      -44.7510   -6.1770  -37.7800 C.ar  589  PHE589     -0.0003
    100  CZ       -44.4890   -5.9270  -36.4500 C.ar  589  PHE589     -0.0000
    101  N        -42.6640   -4.7010  -49.1590 N.3   613  LEU613     -0.1245
    102  CA       -42.4130   -5.1760  -47.8010 C.3   613  LEU613      0.1561
    103  C        -41.1180   -4.6240  -47.2200 C.2   613  LEU613      0.2260
    104  O        -41.0250   -4.4290  -46.0010 O.2   613  LEU613     -0.2867
    105  CB       -42.3850   -6.7030  -47.7830 C.3   613  LEU613      0.0270
    106  CG       -43.6610   -7.3820  -48.2710 C.3   613  LEU613      0.0019
    107  CD1      -43.3560   -8.7920  -48.7330 C.3   613  LEU613      0.0001
    108  CD2      -44.7180   -7.3870  -47.1780 C.3   613  LEU613      0.0001
    109  N        -40.0000   -3.5030  -43.4370 N.3   617  PHE617     -0.1241
    110  CA       -38.8770   -4.0950  -42.7210 C.3   617  PHE617      0.1605
    111  C        -37.8220   -3.0560  -42.3650 C.2   617  PHE617      0.2264
    112  O        -37.0940   -3.2240  -41.3800 O.2   617  PHE617     -0.2867
    113  CB       -38.2640   -5.2150  -43.5630 C.3   617  PHE617      0.0534
    114  CG       -37.5010   -6.2330  -42.7630 C.ar  617  PHE617     -0.0203
    115  CD1      -38.0910   -7.4320  -42.3990 C.ar  617  PHE617     -0.0042
    116  CD2      -36.1910   -5.9950  -42.3800 C.ar  617  PHE617     -0.0042
    117  CE1      -37.3900   -8.3750  -41.6680 C.ar  617  PHE617     -0.0003
    118  CE2      -35.4860   -6.9320  -41.6450 C.ar  617  PHE617     -0.0003
    119  CZ       -36.0870   -8.1240  -41.2900 C.ar  617  PHE617     -0.0000
    120  N        -39.6070   -1.0990  -38.9800 N.3   621  LEU621     -0.1245
    121  CA       -38.9660   -1.8980  -37.9400 C.3   621  LEU621      0.1561
    122  C        -37.5680   -1.3740  -37.6290 C.2   621  LEU621      0.2260
    123  O        -37.2780   -0.9750  -36.4950 O.2   621  LEU621     -0.2867
    124  CB       -38.9110   -3.3680  -38.3630 C.3   621  LEU621      0.0270
    125  CG       -40.2190   -4.1580  -38.4010 C.3   621  LEU621      0.0019
    126  CD1      -39.9310   -5.6310  -38.6260 C.3   621  LEU621      0.0001
    127  CD2      -41.0070   -3.9590  -37.1210 C.3   621  LEU621      0.0001
    128  N        -40.4950  -15.4800  -26.1030 N.3   654  TRP654     -0.1241
    129  CA       -41.0010  -15.9330  -27.3910 C.3   654  TRP654      0.1605
    130  C        -40.1460  -17.0580  -27.9570 C.2   654  TRP654      0.2264
    131  O        -40.6720  -18.0200  -28.5280 O.2   654  TRP654     -0.2867
    132  CB       -41.0410  -14.7450  -28.3450 C.3   654  TRP654      0.0550
    133  CG       -41.6430  -15.0010  -29.6760 C.ar  654  TRP654      0.0003
    134  CD1      -42.9290  -14.7520  -30.0540 C.ar  654  TRP654      0.0946
    135  CD2      -40.9770  -15.5220  -30.8300 C.ar  654  TRP654      0.0152
    136  NE1      -43.1070  -15.0920  -31.3710 N.ar  654  TRP654     -0.2442
    137  CE2      -41.9220  -15.5660  -31.8720 C.ar  654  TRP654      0.0810
    138  CE3      -39.6700  -15.9540  -31.0840 C.ar  654  TRP654      0.0012
    139  CZ2      -41.6060  -16.0290  -33.1470 C.ar  654  TRP654      0.0191
    140  CZ3      -39.3580  -16.4070  -32.3510 C.ar  654  TRP654      0.0001
    141  CH2      -40.3200  -16.4390  -33.3670 C.ar  654  TRP654      0.0015
    142  N        -45.0550  -18.1170  -26.6390 N.3   710  PHE710     -0.1241
    143  CA       -45.1290  -17.3890  -27.9020 C.3   710  PHE710      0.1605
    144  C        -45.9710  -16.1270  -27.7560 C.2   710  PHE710      0.2264
    145  O        -45.5790  -15.0500  -28.2130 O.2   710  PHE710     -0.2867
    146  CB       -45.7040  -18.3050  -28.9870 C.3   710  PHE710      0.0534
    147  CG       -45.6890  -17.7110  -30.3700 C.ar  710  PHE710     -0.0203
    148  CD1      -44.6810  -18.0330  -31.2630 C.ar  710  PHE710     -0.0042
    149  CD2      -46.6940  -16.8480  -30.7850 C.ar  710  PHE710     -0.0042
    150  CE1      -44.6690  -17.4990  -32.5380 C.ar  710  PHE710     -0.0003
    151  CE2      -46.6850  -16.3060  -32.0560 C.ar  710  PHE710     -0.0003
    152  CZ       -45.6710  -16.6310  -32.9340 C.ar  710  PHE710     -0.0000
    153  N        -44.8260  -12.3200  -27.8810 N.3   714  TYR714     -0.1241
    154  CA       -45.4000  -11.5840  -28.9990 C.3   714  TYR714      0.1605
    155  C        -46.0140  -10.2700  -28.5350 C.2   714  TYR714      0.2264
    156  O        -45.9010   -9.2490  -29.2220 O.2   714  TYR714     -0.2867
    157  CB       -46.4520  -12.4520  -29.6910 C.3   714  TYR714      0.0534
    158  CG       -46.8090  -12.0260  -31.0940 C.ar  714  TYR714     -0.0201
    159  CD1      -46.3510  -12.7430  -32.1910 C.ar  714  TYR714     -0.0009
    160  CD2      -47.6100  -10.9160  -31.3250 C.ar  714  TYR714     -0.0009
    161  CE1      -46.6770  -12.3660  -33.4760 C.ar  714  TYR714      0.0417
    162  CE2      -47.9380  -10.5280  -32.6090 C.ar  714  TYR714      0.0417
    163  CZ       -47.4670  -11.2570  -33.6810 C.ar  714  TYR714      0.1957
    164  OH       -47.7910  -10.8810  -34.9640 O.3   714  TYR714     -0.2866
@<TRIPOS>BOND
     1    33    32    1
     2    31    30    2
     3    30    29    1
     4    32    29    1
     5    32    34    1
     6    29    28    1
     7    28    22   am
     8    16    15    2
     9    15    14    1
    10    23    22    2
    11    22    21    1
    12    18    17    1
    13    20    21    1
    14    17    14    1
    15    17    19    1
    16    21    24    1
    17    14    13    1
    18     8     7    2
    19     7     6    1
    20    24    25    1
    21     5     6    1
    22     6     9    1
    23    25    26   ar
    24    25    27   ar
    25     4     3    2
    26     3     2    1
    27     9    10    1
    28    10    12    1
    29    10    11    1
    30     1     2    1
    31   101   102    1
    32   107   106    1
    33   106   105    1
    34   106   108    1
    35   102   105    1
    36   102   103    1
    37   103   104    2
    38    41    40    1
    39    42    40    1
    40    39    40    1
    41    39    36    1
    42    35    36    1
    43    36    37    1
    44    37    38    2
    45    89    88   ar
    46    89    87   ar
    47    88    86   ar
    48   113   114    1
    49   113   110    1
    50   109   110    1
    51    67    65   ar
    52    67    66   ar
    53    87    85   ar
    54   114   115   ar
    55   114   116   ar
    56   110   111    1
    57    86    83   ar
    58    65    63   ar
    59   115   117   ar
    60   116   118   ar
    61   111   112    2
    62    66    64   ar
    63    85    83   ar
    64    85    84   ar
    65    83    81   ar
    66   117   119   ar
    67   118   119   ar
    68    63    62   ar
    69    63    61   ar
    70    84    82   ar
    71    64    61   ar
    72    81    80    1
    73    81    82   ar
    74    62    60   ar
    75    61    59   ar
    76    80    77    1
    77    75    73   am
    78    79    78    2
    79    74    73    2
    80    60    59   ar
    81    77    78    1
    82    77    76    1
    83    73    72    1
    84    59    58    1
    85   120   121    1
    86    93    92    2
    87    92    91    1
    88    94    95    1
    89    94    91    1
    90   126   125    1
    91    97    95   ar
    92    97    99   ar
    93   125   124    1
    94   125   127    1
    95   124   121    1
    96   121   122    1
    97    72    69    1
    98    71    70    2
    99    58    55    1
   100    95    96   ar
   101    91    90    1
   102    99   100   ar
   103   122   123    2
   104    70    69    1
   105    57    56    2
   106    55    56    1
   107    55    54    1
   108    69    68    1
   109    96    98   ar
   110   100    98   ar
   111    54    45   am
   112    46    45    2
   113    45    44    1
   114   164   163    1
   115    47    44    1
   116    47    48    1
   117    44    43    1
   118    48    50   ar
   119    48    49   ar
   120   163   161   ar
   121   163   162   ar
   122   161   159   ar
   123    50    52   ar
   124   141   139   ar
   125   141   140   ar
   126   139   137   ar
   127    49    51   ar
   128   152   150   ar
   129   152   151   ar
   130   162   160   ar
   131    52    53   ar
   132   150   148   ar
   133   140   138   ar
   134    51    53   ar
   135   159   158   ar
   136   151   149   ar
   137   137   136   ar
   138   137   135   ar
   139   136   134   ar
   140   160   158   ar
   141   148   147   ar
   142   158   157    1
   143   138   135   ar
   144   135   133   ar
   145   149   147   ar
   146   147   146    1
   147   134   133   ar
   148   157   154    1
   149   133   132    1
   150   156   155    2
   151   154   155    1
   152   154   153    1
   153   146   143    1
   154   131   130    2
   155   132   129    1
   156   145   144    2
   157   130   129    1
   158   143   144    1
   159   143   142    1
   160   129   128    1
