@<TRIPOS>MOLECULE
tmp/6hqbA10.pdb
 108 101 0 0 0
SMALL
GASTEIGER

@<TRIPOS>ATOM
      1  N         -6.1160  -49.1000  -46.6070 N.3   197  MET197     -0.1245
      2  CA        -5.4490  -48.0180  -45.8920 C.3   197  MET197      0.1570
      3  C         -4.0470  -47.7870  -46.4370 C.2   197  MET197      0.2261
      4  O         -3.6240  -46.6360  -46.6060 O.2   197  MET197     -0.2867
      5  CB        -5.4040  -48.3190  -44.3960 C.3   197  MET197      0.0387
      6  CG        -4.9630  -47.1330  -43.5590 C.3   197  MET197      0.0595
      7  SD        -6.0190  -45.6960  -43.8110 S.3   197  MET197     -0.1393
      8  CE        -7.5830  -46.3330  -43.2240 C.3   197  MET197      0.0692
      9  N         -3.1360  -44.1840  -48.1270 N.3   201  LEU201     -0.1245
     10  CA        -2.1100  -43.3440  -47.5220 C.3   201  LEU201      0.1561
     11  C         -0.9140  -43.1470  -48.4480 C.2   201  LEU201      0.2260
     12  O         -0.4850  -42.0110  -48.6770 O.2   201  LEU201     -0.2867
     13  CB        -1.6550  -43.9460  -46.1890 C.3   201  LEU201      0.0270
     14  CG        -2.6690  -43.9260  -45.0440 C.3   201  LEU201      0.0019
     15  CD1       -2.0910  -44.5920  -43.8050 C.3   201  LEU201      0.0001
     16  CD2       -3.0980  -42.5010  -44.7400 C.3   201  LEU201      0.0001
     17  N         -2.9370  -39.6790  -50.6790 N.3   205  LEU205     -0.1245
     18  CA        -2.5440  -38.4870  -49.9400 C.3   205  LEU205      0.1561
     19  C         -1.0450  -38.2220  -49.9840 C.2   205  LEU205      0.2260
     20  O         -0.6220  -37.0930  -49.7140 O.2   205  LEU205     -0.2867
     21  CB        -3.0090  -38.5970  -48.4860 C.3   205  LEU205      0.0270
     22  CG        -4.5210  -38.5510  -48.2630 C.3   205  LEU205      0.0019
     23  CD1       -4.8500  -38.5990  -46.7790 C.3   205  LEU205      0.0001
     24  CD2       -5.1160  -37.3090  -48.9090 C.3   205  LEU205      0.0001
     25  N          5.6830  -38.1660  -45.6000 N.3   303  LEU303     -0.1231
     26  CA         5.0480  -38.7160  -44.4060 C.3   303  LEU303      0.1693
     27  C          3.9260  -39.6810  -44.7650 C.2   303  LEU303      0.2592
     28  O          3.8240  -40.7680  -44.1860 O.2   303  LEU303     -0.2718
     29  CB         4.5210  -37.5790  -43.5320 C.3   303  LEU303      0.0284
     30  CG         4.8980  -37.6160  -42.0500 C.3   303  LEU303      0.0019
     31  CD1        4.4500  -36.3400  -41.3540 C.3   303  LEU303      0.0001
     32  CD2        4.3010  -38.8380  -41.3710 C.3   303  LEU303      0.0001
     33  N          3.0840  -39.3130  -45.7330 N.am  304  PHE304     -0.1976
     34  CA         1.9480  -40.1580  -46.0850 C.3   304  PHE304      0.1639
     35  C          2.3930  -41.4190  -46.8160 C.2   304  PHE304      0.2290
     36  O          1.8340  -42.5020  -46.5930 O.2   304  PHE304     -0.2864
     37  CB         0.9500  -39.3690  -46.9300 C.3   304  PHE304      0.0560
     38  CG        -0.1150  -38.6870  -46.1250 C.ar  304  PHE304     -0.0200
     39  CD1       -0.7090  -39.3330  -45.0550 C.ar  304  PHE304     -0.0042
     40  CD2       -0.5180  -37.4010  -46.4340 C.ar  304  PHE304     -0.0042
     41  CE1       -1.6900  -38.7100  -44.3110 C.ar  304  PHE304     -0.0003
     42  CE2       -1.4990  -36.7730  -45.6940 C.ar  304  PHE304     -0.0003
     43  CZ        -2.0860  -37.4280  -44.6310 C.ar  304  PHE304     -0.0000
     44  N          5.1960  -42.9420  -46.3520 N.3   306  ILE306     -0.1231
     45  CA         5.7180  -43.8110  -45.3000 C.3   306  ILE306      0.1692
     46  C          4.5780  -44.4270  -44.4950 C.2   306  ILE306      0.2591
     47  O          4.6240  -45.6080  -44.1310 O.2   306  ILE306     -0.2718
     48  CB         6.6950  -43.0320  -44.4020 C.3   306  ILE306      0.0266
     49  CG1        7.9330  -42.6190  -45.1970 C.3   306  ILE306      0.0019
     50  CG2        7.0970  -43.8660  -43.1970 C.3   306  ILE306      0.0020
     51  CD1        8.8550  -41.6970  -44.4390 C.3   306  ILE306      0.0001
     52  N          3.5330  -43.6420  -44.2130 N.am  307  ALA307     -0.1980
     53  CA         2.3900  -44.1570  -43.4650 C.3   307  ALA307      0.1597
     54  C          1.6740  -45.2680  -44.2200 C.2   307  ALA307      0.2287
     55  O          1.0610  -46.1460  -43.6010 O.2   307  ALA307     -0.2864
     56  CB         1.4140  -43.0240  -43.1510 C.3   307  ALA307      0.0319
     57  N          2.2960  -49.6210  -43.2430 N.3   310  MET310     -0.1230
     58  CA         2.1670  -50.1430  -41.8890 C.3   310  MET310      0.1702
     59  C          1.3460  -51.4180  -41.8020 C.2   310  MET310      0.2592
     60  O          1.6200  -52.2570  -40.9420 O.2   310  MET310     -0.2718
     61  CB         1.5410  -49.0830  -40.9710 C.3   310  MET310      0.0401
     62  CG         1.3800  -49.5130  -39.5190 C.3   310  MET310      0.0596
     63  SD         1.0000  -48.1370  -38.4170 S.3   310  MET310     -0.1393
     64  CE        -0.3780  -47.3810  -39.2730 C.3   310  MET310      0.0692
     65  N          0.3700  -51.5940  -42.6820 N.am  311  TYR311     -0.1976
     66  CA        -0.5770  -52.6930  -42.5980 C.3   311  TYR311      0.1639
     67  C         -0.1740  -53.8380  -43.5240 C.2   311  TYR311      0.2290
     68  O          0.5820  -53.6620  -44.4820 O.2   311  TYR311     -0.2864
     69  CB        -1.9860  -52.2010  -42.9350 C.3   311  TYR311      0.0560
     70  CG        -2.4410  -51.0350  -42.0840 C.ar  311  TYR311     -0.0198
     71  CD1       -3.1440  -51.2420  -40.9050 C.ar  311  TYR311     -0.0009
     72  CD2       -2.1630  -49.7270  -42.4570 C.ar  311  TYR311     -0.0009
     73  CE1       -3.5580  -50.1780  -40.1240 C.ar  311  TYR311      0.0417
     74  CE2       -2.5720  -48.6610  -41.6830 C.ar  311  TYR311      0.0417
     75  CZ        -3.2710  -48.8910  -40.5190 C.ar  311  TYR311      0.1957
     76  OH        -3.6820  -47.8290  -39.7460 O.3   311  TYR311     -0.2866
     77  N         -5.1420  -54.7460  -38.4680 N.3   321  MET321     -0.1245
     78  CA        -5.8920  -53.9650  -37.4900 C.3   321  MET321      0.1570
     79  C         -6.6800  -54.8610  -36.5470 C.2   321  MET321      0.2261
     80  O         -6.9300  -54.4850  -35.3960 O.2   321  MET321     -0.2867
     81  CB        -6.8210  -52.9890  -38.2090 C.3   321  MET321      0.0387
     82  CG        -6.1580  -52.2870  -39.3800 C.3   321  MET321      0.0595
     83  SD        -7.1390  -50.9540  -40.0880 S.3   321  MET321     -0.1393
     84  CE        -7.2850  -49.8560  -38.6800 C.3   321  MET321      0.0692
     85  N         -4.3450  -55.5070  -33.7000 N.3   324  ILE324     -0.1231
     86  CA        -4.1650  -54.3370  -32.8460 C.3   324  ILE324      0.1692
     87  C         -5.3880  -54.1290  -31.9640 C.2   324  ILE324      0.2591
     88  O         -5.2690  -53.7860  -30.7820 O.2   324  ILE324     -0.2718
     89  CB        -3.8670  -53.0940  -33.7040 C.3   324  ILE324      0.0266
     90  CG1       -2.8250  -53.4250  -34.7740 C.3   324  ILE324      0.0019
     91  CG2       -3.3780  -51.9540  -32.8330 C.3   324  ILE324      0.0020
     92  CD1       -2.4700  -52.2530  -35.6630 C.3   324  ILE324      0.0001
     93  N         -6.5810  -54.3420  -32.5200 N.am  325  LEU325     -0.1980
     94  CA        -7.7970  -54.1570  -31.7360 C.3   325  LEU325      0.1596
     95  C         -7.9570  -55.2560  -30.6930 C.2   325  LEU325      0.2287
     96  O         -8.3110  -54.9750  -29.5410 O.2   325  LEU325     -0.2864
     97  CB        -9.0130  -54.1030  -32.6590 C.3   325  LEU325      0.0297
     98  CG        -9.0420  -52.9270  -33.6390 C.3   325  LEU325      0.0022
     99  CD1      -10.3110  -52.9530  -34.4740 C.3   325  LEU325      0.0001
    100  CD2       -8.8970  -51.6000  -32.9060 C.3   325  LEU325      0.0001
    101  N        -12.7000  -31.9410  -39.7450 N.3   362  LEU362     -0.1245
    102  CA       -11.5810  -31.4640  -40.5460 C.3   362  LEU362      0.1561
    103  C        -11.9750  -30.2830  -41.4230 C.2   362  LEU362      0.2260
    104  O        -11.1410  -29.4190  -41.6940 O.2   362  LEU362     -0.2867
    105  CB       -11.0190  -32.6050  -41.3950 C.3   362  LEU362      0.0270
    106  CG        -9.6240  -32.4060  -41.9930 C.3   362  LEU362      0.0019
    107  CD1       -8.8680  -33.7250  -42.0140 C.3   362  LEU362      0.0001
    108  CD2       -9.7040  -31.8150  -43.3950 C.3   362  LEU362      0.0001
@<TRIPOS>BOND
     1    17    18    1
     2    19    18    1
     3    19    20    2
     4    18    21    1
     5    24    22    1
     6    12    11    2
     7    21    22    1
     8    11    10    1
     9    22    23    1
    10     9    10    1
    11    10    13    1
    12    37    38    1
    13    37    34    1
    14    35    36    2
    15    35    34    1
    16     1     2    1
    17     4     3    2
    18     3     2    1
    19    40    38   ar
    20    40    42   ar
    21    44    45    1
    22    13    14    1
    23    38    39   ar
    24    34    33    1
    25     2     5    1
    26    33    27   am
    27    42    43   ar
    28    25    26    1
    29    45    46    1
    30    45    48    1
    31    49    51    1
    32    49    48    1
    33    39    41   ar
    34    14    16    1
    35    14    15    1
    36    27    26    1
    37    27    28    2
    38    43    41   ar
    39    46    52   am
    40    46    47    2
    41    68    67    2
    42    26    29    1
    43    48    50    1
    44     5     6    1
    45    54    55    2
    46    54    53    1
    47    52    53    1
    48     7     6    1
    49     7     8    1
    50    29    30    1
    51    67    66    1
    52    53    56    1
    53   108   106    1
    54    57    58    1
    55    69    66    1
    56    69    70    1
    57    65    66    1
    58    65    59   am
    59    72    70   ar
    60    72    74   ar
    61    70    71   ar
    62    30    32    1
    63    30    31    1
    64   107   106    1
    65   106   105    1
    66    58    59    1
    67    58    61    1
    68    59    60    2
    69   104   103    2
    70    74    75   ar
    71   103   102    1
    72   105   102    1
    73    61    62    1
    74    71    73   ar
    75   102   101    1
    76    75    73   ar
    77    75    76    1
    78    83    82    1
    79    83    84    1
    80    62    63    1
    81    82    81    1
    82    64    63    1
    83    77    78    1
    84    81    78    1
    85    78    79    1
    86    79    80    2
    87    92    90    1
    88    90    89    1
    89    99    98    1
    90    89    86    1
    91    89    91    1
    92    85    86    1
    93    98   100    1
    94    98    97    1
    95    86    87    1
    96    97    94    1
    97    93    87   am
    98    93    94    1
    99    87    88    2
   100    94    95    1
   101    95    96    2
