@<TRIPOS>MOLECULE
tmp/6hqbB11.pdb
 177 175 0 0 0
SMALL
GASTEIGER

@<TRIPOS>ATOM
      1  N        -81.3460    2.4410  -18.0210 N.3   185  VAL185     -0.1245
      2  CA       -81.2420    3.2610  -16.8190 C.3   185  VAL185      0.1561
      3  C        -79.7970    3.6840  -16.5810 C.2   185  VAL185      0.2260
      4  O        -79.5320    4.8100  -16.1480 O.2   185  VAL185     -0.2867
      5  CB       -81.8270    2.5080  -15.6090 C.3   185  VAL185      0.0252
      6  CG1      -81.4340    3.1910  -14.3070 C.3   185  VAL185      0.0019
      7  CG2      -83.3410    2.4230  -15.7240 C.3   185  VAL185      0.0019
      8  N        -79.0430    6.4740  -18.9850 N.3   188  LEU188     -0.1231
      9  CA       -79.7640    7.6800  -18.5890 C.3   188  LEU188      0.1693
     10  C        -79.1110    8.3480  -17.3830 C.2   188  LEU188      0.2591
     11  O        -78.9500    9.5750  -17.3570 O.2   188  LEU188     -0.2718
     12  CB       -81.2240    7.3360  -18.2940 C.3   188  LEU188      0.0284
     13  CG       -82.1330    8.4920  -17.8850 C.3   188  LEU188      0.0019
     14  CD1      -82.1010    9.5870  -18.9310 C.3   188  LEU188      0.0001
     15  CD2      -83.5490    7.9920  -17.6750 C.3   188  LEU188      0.0001
     16  N        -78.7230    7.5590  -16.3780 N.am  189  ALA189     -0.1980
     17  CA       -78.0590    8.1200  -15.2060 C.3   189  ALA189      0.1597
     18  C        -76.6940    8.6890  -15.5670 C.2   189  ALA189      0.2287
     19  O        -76.2790    9.7180  -15.0190 O.2   189  ALA189     -0.2864
     20  CB       -77.9280    7.0570  -14.1160 C.3   189  ALA189      0.0319
     21  N        -75.9310    9.9780  -18.5220 N.3   191  ALA191     -0.1231
     22  CA       -76.2320   11.2380  -19.1930 C.3   191  ALA191      0.1694
     23  C        -76.5540   12.3290  -18.1800 C.2   191  ALA191      0.2592
     24  O        -76.1100   13.4760  -18.3240 O.2   191  ALA191     -0.2718
     25  CB       -77.3920   11.0470  -20.1700 C.3   191  ALA191      0.0304
     26  N        -77.3260   11.9870  -17.1460 N.am  192  GLY192     -0.1957
     27  CA       -77.6050   12.9480  -16.0920 C.3   192  GLY192      0.1869
     28  C        -76.3470   13.4190  -15.3890 C.2   192  GLY192      0.2309
     29  O        -76.2020   14.6050  -15.0810 O.2   192  GLY192     -0.2863
     30  N        -74.4730   15.8230  -17.6600 N.3   195  VAL195     -0.1231
     31  CA       -75.0860   17.1450  -17.7270 C.3   195  VAL195      0.1692
     32  C        -74.8860   17.9080  -16.4230 C.2   195  VAL195      0.2592
     33  O        -74.6620   19.1240  -16.4310 O.2   195  VAL195     -0.2718
     34  CB       -76.5760   17.0160  -18.0930 C.3   195  VAL195      0.0266
     35  CG1      -77.2590   18.3720  -18.0480 C.3   195  VAL195      0.0020
     36  CG2      -76.7190   16.4040  -19.4730 C.3   195  VAL195      0.0020
     37  N        -74.9360   17.2160  -15.2860 N.am  196  HIS196     -0.1976
     38  CA       -74.9140   17.8920  -13.9950 C.3   196  HIS196      0.1656
     39  C        -73.5140   18.2030  -13.4790 C.2   196  HIS196      0.2291
     40  O        -73.3750   19.0740  -12.6140 O.2   196  HIS196     -0.2864
     41  CB       -75.6610   17.0560  -12.9500 C.3   196  HIS196      0.0771
     42  CG       -77.1500   17.1300  -13.0750 C.ar  196  HIS196      0.0820
     43  ND1      -77.9890   17.1120  -11.9810 N.ar  196  HIS196     -0.2267
     44  CD2      -77.9510   17.2250  -14.1630 C.ar  196  HIS196      0.1154
     45  CE1      -79.2430   17.1930  -12.3910 C.ar  196  HIS196      0.1986
     46  NE2      -79.2470   17.2620  -13.7100 N.ar  196  HIS196     -0.2212
     47  N        -75.1050   20.0030   -5.7000 N.3   212  PHE212     -0.1227
     48  CA       -75.7860   19.5810   -6.9180 C.3   212  PHE212      0.1736
     49  C        -77.2990   19.5370   -6.7530 C.2   212  PHE212      0.2595
     50  O        -78.0190   19.5200   -7.7580 O.2   212  PHE212     -0.2718
     51  CB       -75.2660   18.2140   -7.3690 C.3   212  PHE212      0.0547
     52  CG       -75.8530   17.0560   -6.6150 C.ar  212  PHE212     -0.0202
     53  CD1      -76.8340   16.2650   -7.1920 C.ar  212  PHE212     -0.0042
     54  CD2      -75.4220   16.7540   -5.3350 C.ar  212  PHE212     -0.0042
     55  CE1      -77.3770   15.1950   -6.5050 C.ar  212  PHE212     -0.0003
     56  CE2      -75.9600   15.6860   -4.6420 C.ar  212  PHE212     -0.0003
     57  CZ       -76.9390   14.9050   -5.2280 C.ar  212  PHE212     -0.0000
     58  N        -77.7990   19.5210   -5.5150 N.am  213  LEU213     -0.1966
     59  CA       -79.2400   19.5250   -5.2940 C.3   213  LEU213      0.1728
     60  C        -79.8580   20.8940   -5.5350 C.2   213  LEU213      0.2617
     61  O        -81.0770   20.9870   -5.7220 O.2   213  LEU213     -0.2715
     62  CB       -79.5550   19.0610   -3.8730 C.3   213  LEU213      0.0311
     63  CG       -79.2280   17.6050   -3.5430 C.3   213  LEU213      0.0022
     64  CD1      -79.5600   17.2950   -2.0910 C.3   213  LEU213      0.0001
     65  CD2      -79.9880   16.6820   -4.4760 C.3   213  LEU213      0.0001
     66  N        -79.0530   21.9530   -5.5400 N.am  214  SER214     -0.1936
     67  CA       -79.5480   23.3160   -5.6830 C.3   214  SER214      0.2055
     68  C        -79.1470   23.9740   -6.9920 C.2   214  SER214      0.2644
     69  O        -79.9370   24.7320   -7.5560 O.2   214  SER214     -0.2714
     70  CB       -79.0520   24.1770   -4.5160 C.3   214  SER214      0.2130
     71  OG       -77.6370   24.1690   -4.4430 O.3   214  SER214     -0.2179
     72  N        -77.9450   23.7060   -7.4890 N.am  215  THR215     -0.1937
     73  CA       -77.4650   24.3580   -8.7020 C.3   215  THR215      0.2013
     74  C        -77.9930   23.6300   -9.9330 C.2   215  THR215      0.2484
     75  O        -77.6440   22.4640  -10.1460 O.2   215  THR215     -0.2729
     76  CB       -75.9420   24.3840   -8.7290 C.3   215  THR215      0.1807
     77  OG1      -75.4410   23.0420   -8.7780 O.3   215  THR215     -0.2208
     78  CG2      -75.4000   25.0750   -7.4860 C.3   215  THR215      0.0379
     79  N        -78.8210   24.2650  -10.7570 N.am  216  PRO216     -0.2715
     80  CA       -79.3270   23.6020  -11.9610 C.3   216  PRO216      0.1521
     81  C        -78.2740   23.5920  -13.0530 C.2   216  PRO216      0.2440
     82  O        -77.4480   24.5130  -13.1400 O.2   216  PRO216     -0.2731
     83  CB       -80.5360   24.4650  -12.3630 C.3   216  PRO216      0.0310
     84  CG       -80.7750   25.4010  -11.2030 C.3   216  PRO216      0.0237
     85  CD       -79.4420   25.5830  -10.5610 C.3   216  PRO216      0.0939
     86  N        -78.2680   22.5670  -13.9090 N.am  217  PRO217     -0.2716
     87  CA       -77.3200   22.5320  -15.0290 C.3   217  PRO217      0.1536
     88  C        -77.6940   23.4470  -16.1820 C.2   217  PRO217      0.2598
     89  O        -76.9800   23.4700  -17.1900 O.2   217  PRO217     -0.2715
     90  CB       -77.3680   21.0620  -15.4620 C.3   217  PRO217      0.0310
     91  CG       -78.7630   20.6480  -15.1500 C.3   217  PRO217      0.0237
     92  CD       -79.1390   21.3780  -13.8850 C.3   217  PRO217      0.0939
     93  N        -78.7870   24.1930  -16.0560 N.am  218  HIS218     -0.1974
     94  CA       -79.2920   25.0800  -17.0910 C.3   218  HIS218      0.1656
     95  C        -79.9850   26.2420  -16.3990 C.2   218  HIS218      0.2291
     96  O        -80.5810   26.0530  -15.3320 O.2   218  HIS218     -0.2864
     97  CB       -80.2670   24.3430  -18.0230 C.3   218  HIS218      0.0771
     98  CG       -80.6530   25.1190  -19.2440 C.ar  218  HIS218      0.0820
     99  ND1      -79.7740   25.3760  -20.2730 N.ar  218  HIS218     -0.2267
    100  CD2      -81.8300   25.6840  -19.6050 C.ar  218  HIS218      0.1154
    101  CE1      -80.3900   26.0710  -21.2130 C.ar  218  HIS218      0.1986
    102  NE2      -81.6380   26.2710  -20.8310 N.ar  218  HIS218     -0.2212
    103  N        -82.6940   27.4660  -17.0030 N.3   220  ALA220     -0.1231
    104  CA       -84.1050   27.1210  -16.9280 C.3   220  ALA220      0.1694
    105  C        -84.2360   25.6790  -16.4550 C.2   220  ALA220      0.2593
    106  O        -83.5890   24.7810  -17.0040 O.2   220  ALA220     -0.2718
    107  CB       -84.7740   27.3160  -18.2880 C.3   220  ALA220      0.0304
    108  N        -85.0710   25.4630  -15.4390 N.am  221  GLY221     -0.1942
    109  CA       -85.1260   24.1890  -14.7430 C.3   221  GLY221      0.2014
    110  C        -85.8170   23.0510  -15.4680 C.2   221  GLY221      0.2638
    111  O        -85.6210   22.8540  -16.6720 O.2   221  GLY221     -0.2714
    112  N        -86.6220   22.2800  -14.7320 N.am  222  LEU222     -0.1977
    113  CA       -87.2930   21.1170  -15.3010 C.3   222  LEU222      0.1596
    114  C        -88.5980   21.4660  -16.0010 C.2   222  LEU222      0.2287
    115  O        -89.0960   20.6530  -16.7870 O.2   222  LEU222     -0.2864
    116  CB       -87.5650   20.0750  -14.2140 C.3   222  LEU222      0.0297
    117  CG       -86.4670   19.0390  -13.9660 C.3   222  LEU222      0.0022
    118  CD1      -86.8670   18.0840  -12.8520 C.3   222  LEU222      0.0001
    119  CD2      -86.1620   18.2740  -15.2440 C.3   222  LEU222      0.0001
    120  N        -88.2840   21.3090  -19.6330 N.3   225  PHE225     -0.1227
    121  CA       -88.3500   19.9340  -20.1150 C.3   225  PHE225      0.1736
    122  C        -89.7910   19.5270  -20.3840 C.2   225  PHE225      0.2595
    123  O        -90.0750   18.8290  -21.3650 O.2   225  PHE225     -0.2718
    124  CB       -87.7020   18.9820  -19.1090 C.3   225  PHE225      0.0547
    125  CG       -88.1060   17.5450  -19.2880 C.ar  225  PHE225     -0.0202
    126  CD1      -87.5640   16.7800  -20.3080 C.ar  225  PHE225     -0.0042
    127  CD2      -89.0270   16.9580  -18.4340 C.ar  225  PHE225     -0.0042
    128  CE1      -87.9350   15.4580  -20.4750 C.ar  225  PHE225     -0.0003
    129  CE2      -89.4020   15.6370  -18.5970 C.ar  225  PHE225     -0.0003
    130  CZ       -88.8550   14.8860  -19.6180 C.ar  225  PHE225     -0.0000
    131  N        -90.7170   19.9640  -19.5270 N.am  226  PHE226     -0.1976
    132  CA       -92.1260   19.6500  -19.7320 C.3   226  PHE226      0.1639
    133  C        -92.7220   20.4450  -20.8850 C.2   226  PHE226      0.2290
    134  O        -93.6580   19.9710  -21.5400 O.2   226  PHE226     -0.2864
    135  CB       -92.9140   19.9060  -18.4490 C.3   226  PHE226      0.0560
    136  CG       -92.8240   18.7880  -17.4540 C.ar  226  PHE226     -0.0200
    137  CD1      -93.8490   17.8660  -17.3380 C.ar  226  PHE226     -0.0042
    138  CD2      -91.7120   18.6540  -16.6390 C.ar  226  PHE226     -0.0042
    139  CE1      -93.7710   16.8340  -16.4250 C.ar  226  PHE226     -0.0003
    140  CE2      -91.6280   17.6230  -15.7240 C.ar  226  PHE226     -0.0003
    141  CZ       -92.6590   16.7120  -15.6170 C.ar  226  PHE226     -0.0000
    142  N        -82.9100   24.1280  -24.8110 N.3   233  TYR233     -0.1241
    143  CA       -81.7210   23.4090  -24.3780 C.3   233  TYR233      0.1605
    144  C        -80.6520   23.3470  -25.4570 C.2   233  TYR233      0.2264
    145  O        -79.4710   23.1750  -25.1320 O.2   233  TYR233     -0.2867
    146  CB       -82.0970   22.0000  -23.9140 C.3   233  TYR233      0.0534
    147  CG       -82.9520   22.0150  -22.6670 C.ar  233  TYR233     -0.0201
    148  CD1      -82.3840   22.2370  -21.4180 C.ar  233  TYR233     -0.0009
    149  CD2      -84.3270   21.8280  -22.7380 C.ar  233  TYR233     -0.0009
    150  CE1      -83.1600   22.2620  -20.2730 C.ar  233  TYR233      0.0417
    151  CE2      -85.1120   21.8500  -21.5980 C.ar  233  TYR233      0.0417
    152  CZ       -84.5230   22.0680  -20.3690 C.ar  233  TYR233      0.1957
    153  OH       -85.2980   22.0910  -19.2320 O.3   233  TYR233     -0.2866
    154  N        -76.9320   22.2260  -23.0730 N.3   254  ILE254     -0.1231
    155  CA       -76.5370   20.9820  -22.4220 C.3   254  ILE254      0.1692
    156  C        -76.8210   19.8000  -23.3410 C.2   254  ILE254      0.2591
    157  O        -76.1490   18.7650  -23.2640 O.2   254  ILE254     -0.2718
    158  CB       -77.2480   20.8070  -21.0670 C.3   254  ILE254      0.0266
    159  CG1      -78.7660   20.9010  -21.2370 C.3   254  ILE254      0.0019
    160  CG2      -76.7510   21.8370  -20.0620 C.3   254  ILE254      0.0020
    161  CD1      -79.5370   20.6330  -19.9640 C.3   254  ILE254      0.0001
    162  N        -77.8140   19.9440  -24.2180 N.am  255  LEU255     -0.1980
    163  CA       -78.2220   18.8830  -25.1410 C.3   255  LEU255      0.1596
    164  C        -78.2400   19.4620  -26.5510 C.2   255  LEU255      0.2287
    165  O        -79.2410   20.0420  -26.9810 O.2   255  LEU255     -0.2864
    166  CB       -79.5800   18.3110  -24.7510 C.3   255  LEU255      0.0297
    167  CG       -79.6620   17.6440  -23.3790 C.3   255  LEU255      0.0022
    168  CD1      -81.0640   17.1110  -23.1260 C.3   255  LEU255      0.0001
    169  CD2      -78.6320   16.5320  -23.2670 C.3   255  LEU255      0.0001
    170  N        -78.6350   10.0290  -23.7290 N.3   278  LEU278     -0.1245
    171  CA       -80.0640   10.1630  -23.4550 C.3   278  LEU278      0.1561
    172  C        -80.9000    9.4450  -24.5120 C.2   278  LEU278      0.2260
    173  O        -81.8280    8.6880  -24.1870 O.2   278  LEU278     -0.2867
    174  CB       -80.4330   11.6450  -23.3800 C.3   278  LEU278      0.0270
    175  CG       -81.9110   12.0110  -23.2530 C.3   278  LEU278      0.0019
    176  CD1      -82.5360   11.3100  -22.0640 C.3   278  LEU278      0.0001
    177  CD2      -82.0610   13.5170  -23.1280 C.3   278  LEU278      0.0001
@<TRIPOS>BOND
     1   165   164    2
     2   164   163    1
     3   144   145    2
     4   144   143    1
     5   163   166    1
     6   163   162    1
     7   142   143    1
     8   166   167    1
     9   172   173    2
    10   172   171    1
    11   143   146    1
    12   162   156   am
    13   146   147    1
    14   170   171    1
    15   171   174    1
    16   174   175    1
    17   167   169    1
    18   167   168    1
    19   156   157    2
    20   156   155    1
    21   175   177    1
    22   175   176    1
    23   154   155    1
    24   149   147   ar
    25   149   151   ar
    26   147   148   ar
    27   155   158    1
    28   151   152   ar
    29   134   133    2
    30   148   150   ar
    31   123   122    2
    32   159   158    1
    33   159   161    1
    34   101   102   ar
    35   101    99   ar
    36   158   160    1
    37   133   132    1
    38   102   100   ar
    39   128   126   ar
    40   128   130   ar
    41   122   121    1
    42   122   131   am
    43   152   150   ar
    44   152   153    1
    45   126   125   ar
    46    99    98   ar
    47    25    22    1
    48   121   120    1
    49   121   124    1
    50   132   131    1
    51   132   135    1
    52   130   129   ar
    53   100    98   ar
    54    36    34    1
    55   125   124    1
    56   125   127   ar
    57    98    97    1
    58    22    21    1
    59    22    23    1
    60     8     9    1
    61    14    13    1
    62   129   127   ar
    63     9    12    1
    64     9    10    1
    65   135   136    1
    66    24    23    2
    67    12    13    1
    68   107   104    1
    69    23    26   am
    70    34    35    1
    71    34    31    1
    72    97    94    1
    73     1     2    1
    74    13    15    1
    75    31    30    1
    76    31    32    1
    77   136   137   ar
    78   136   138   ar
    79    10    11    2
    80    10    16   am
    81   137   139   ar
    82    89    88    2
    83    26    27    1
    84    94    95    1
    85    94    93    1
    86   106   105    2
    87   103   104    1
    88   104   105    1
    89     2     3    1
    90     2     5    1
    91   115   114    2
    92   111   110    2
    93   138   140   ar
    94     3     4    2
    95   105   108   am
    96    33    32    2
    97   139   141   ar
    98    32    37   am
    99    95    96    2
   100    16    17    1
   101    88    93   am
   102    88    87    1
   103    27    28    1
   104   114   113    1
   105     7     5    1
   106   140   141   ar
   107     5     6    1
   108    18    17    1
   109    18    19    2
   110   110   109    1
   111   110   112   am
   112    90    91    1
   113    90    87    1
   114   108   109    1
   115    28    29    2
   116   113   112    1
   117   113   116    1
   118    37    38    1
   119   119   117    1
   120    17    20    1
   121    91    92    1
   122    87    86    1
   123   116   117    1
   124    44    46   ar
   125    44    42   ar
   126    38    39    1
   127    38    41    1
   128   117   118    1
   129    86    92    1
   130    86    81   am
   131    46    45   ar
   132    39    40    2
   133    82    81    2
   134    42    41    1
   135    42    43   ar
   136    81    80    1
   137    45    43   ar
   138    83    80    1
   139    83    84    1
   140    80    79    1
   141    84    85    1
   142    79    85    1
   143    79    74   am
   144    75    74    2
   145    74    73    1
   146    77    76    1
   147    76    73    1
   148    76    78    1
   149    73    72    1
   150    50    49    2
   151    69    68    2
   152    72    68   am
   153    51    48    1
   154    51    52    1
   155    53    52   ar
   156    53    55   ar
   157    68    67    1
   158    48    49    1
   159    48    47    1
   160    49    58   am
   161    52    54   ar
   162    55    57   ar
   163    61    60    2
   164    67    66    1
   165    67    70    1
   166    66    60   am
   167    60    59    1
   168    58    59    1
   169    54    56   ar
   170    59    62    1
   171    57    56   ar
   172    70    71    1
   173    65    63    1
   174    62    63    1
   175    63    64    1
