@<TRIPOS>MOLECULE
tmp/6hqbA16.pdb
 111 107 0 0 0
SMALL
GASTEIGER

@<TRIPOS>ATOM
      1  N        -15.2940  -37.2380  -38.7400 N.3   358  LEU358     -0.1245
      2  CA       -13.9330  -36.7590  -38.9550 C.3   358  LEU358      0.1561
      3  C        -13.8670  -35.7620  -40.1050 C.2   358  LEU358      0.2260
      4  O        -13.1270  -34.7750  -40.0310 O.2   358  LEU358     -0.2867
      5  CB       -12.9900  -37.9380  -39.1960 C.3   358  LEU358      0.0270
      6  CG       -12.3720  -38.5520  -37.9350 C.3   358  LEU358      0.0019
      7  CD1      -11.5580  -37.5120  -37.1790 C.3   358  LEU358      0.0001
      8  CD2      -13.4360  -39.1550  -37.0280 C.3   358  LEU358      0.0001
      9  N        -15.2900  -32.4130  -38.7900 N.3   361  SER361     -0.1202
     10  CA       -14.3080  -31.7900  -37.9100 C.3   361  SER361      0.2020
     11  C        -13.1410  -31.2220  -38.7090 C.2   361  SER361      0.2618
     12  O        -12.6550  -30.1220  -38.4210 O.2   361  SER361     -0.2717
     13  CB       -13.8180  -32.8020  -36.8740 C.3   361  SER361      0.2103
     14  OG       -14.8910  -33.2780  -36.0780 O.3   361  SER361     -0.2182
     15  N        -12.7000  -31.9410  -39.7450 N.am  362  LEU362     -0.1979
     16  CA       -11.5810  -31.4640  -40.5460 C.3   362  LEU362      0.1596
     17  C        -11.9750  -30.2830  -41.4230 C.2   362  LEU362      0.2287
     18  O        -11.1410  -29.4190  -41.6940 O.2   362  LEU362     -0.2864
     19  CB       -11.0190  -32.6050  -41.3950 C.3   362  LEU362      0.0297
     20  CG        -9.6240  -32.4060  -41.9930 C.3   362  LEU362      0.0022
     21  CD1       -8.8680  -33.7250  -42.0140 C.3   362  LEU362      0.0001
     22  CD2       -9.7040  -31.8150  -43.3950 C.3   362  LEU362      0.0001
     23  N        -11.7250  -27.4500  -39.1270 N.3   365  ILE365     -0.1245
     24  CA       -10.3070  -27.1400  -38.9650 C.3   365  ILE365      0.1561
     25  C         -9.7850  -26.3820  -40.1800 C.2   365  ILE365      0.2260
     26  O         -8.9650  -25.4670  -40.0530 O.2   365  ILE365     -0.2867
     27  CB        -9.5070  -28.4320  -38.7120 C.3   365  ILE365      0.0252
     28  CG1       -9.8850  -29.0400  -37.3600 C.3   365  ILE365      0.0019
     29  CG2       -8.0150  -28.1660  -38.7730 C.3   365  ILE365      0.0019
     30  CD1       -9.2480  -30.3890  -37.1000 C.3   365  ILE365      0.0001
     31  N        -10.8910  -22.7750  -39.7450 N.3   368  GLN368     -0.1231
     32  CA       -10.1550  -22.1250  -38.6660 C.3   368  GLN368      0.1698
     33  C         -8.6780  -21.9260  -38.9880 C.2   368  GLN368      0.2592
     34  O         -8.0410  -21.0460  -38.3990 O.2   368  GLN368     -0.2718
     35  CB       -10.2930  -22.9350  -37.3760 C.3   368  GLN368      0.0381
     36  CG       -11.6050  -22.7290  -36.6340 C.3   368  GLN368      0.0905
     37  CD       -11.5920  -21.4990  -35.7390 C.2   368  GLN368      0.2608
     38  OE1      -10.8080  -20.5710  -35.9430 O.2   368  GLN368     -0.2717
     39  NE2      -12.4600  -21.4920  -34.7330 N.am  368  GLN368     -0.0878
     40  N         -8.1140  -22.7270  -39.8890 N.am  369  HIS369     -0.1976
     41  CA        -6.7190  -22.5620  -40.2720 C.3   369  HIS369      0.1656
     42  C         -6.5440  -21.6250  -41.4550 C.2   369  HIS369      0.2291
     43  O         -5.5410  -20.9060  -41.5230 O.2   369  HIS369     -0.2864
     44  CB        -6.0970  -23.9190  -40.6030 C.3   369  HIS369      0.0771
     45  CG        -5.8730  -24.7890  -39.4060 C.ar  369  HIS369      0.0820
     46  ND1       -5.1470  -25.9590  -39.4620 N.ar  369  HIS369     -0.2267
     47  CD2       -6.2790  -24.6590  -38.1210 C.ar  369  HIS369      0.1154
     48  CE1       -5.1150  -26.5120  -38.2630 C.ar  369  HIS369      0.1986
     49  NE2       -5.7980  -25.7460  -37.4320 N.ar  369  HIS369     -0.2212
     50  N         -8.5280  -19.0360  -42.1270 N.3   371  TYR371     -0.1227
     51  CA        -8.8510  -17.6550  -41.7770 C.3   371  TYR371      0.1736
     52  C         -7.6640  -16.9440  -41.1380 C.2   371  TYR371      0.2595
     53  O         -7.4480  -15.7530  -41.3810 O.2   371  TYR371     -0.2718
     54  CB       -10.0720  -17.6080  -40.8560 C.3   371  TYR371      0.0548
     55  CG        -9.7520  -17.3380  -39.4010 C.ar  371  TYR371     -0.0200
     56  CD1       -9.7490  -16.0420  -38.8940 C.ar  371  TYR371     -0.0009
     57  CD2       -9.4610  -18.3800  -38.5340 C.ar  371  TYR371     -0.0009
     58  CE1       -9.4580  -15.7970  -37.5670 C.ar  371  TYR371      0.0417
     59  CE2       -9.1690  -18.1450  -37.2070 C.ar  371  TYR371      0.0417
     60  CZ        -9.1700  -16.8530  -36.7290 C.ar  371  TYR371      0.1957
     61  OH        -8.8800  -16.6180  -35.4060 O.3   371  TYR371     -0.2866
     62  N         -6.8820  -17.6500  -40.3220 N.am  372  ALA372     -0.1966
     63  CA        -5.8010  -17.0270  -39.5630 C.3   372  ALA372      0.1728
     64  C         -4.4470  -17.1020  -40.2520 C.2   372  ALA372      0.2616
     65  O         -3.6030  -16.2300  -40.0260 O.2   372  ALA372     -0.2715
     66  CB        -5.6900  -17.6630  -38.1710 C.3   372  ALA372      0.0334
     67  N         -4.2150  -18.1250  -41.0730 N.am  373  MET373     -0.1977
     68  CA        -2.9970  -18.2630  -41.8660 C.3   373  MET373      0.1605
     69  C         -3.4110  -18.2540  -43.3330 C.2   373  MET373      0.2287
     70  O         -3.4720  -19.3130  -43.9760 O.2   373  MET373     -0.2864
     71  CB        -2.2350  -19.5370  -41.5080 C.3   373  MET373      0.0413
     72  CG        -1.8320  -19.6230  -40.0440 C.3   373  MET373      0.0598
     73  SD        -1.4590  -21.3040  -39.5120 S.3   373  MET373     -0.1393
     74  CE        -3.0430  -22.0850  -39.7960 C.3   373  MET373      0.0692
     75  N          3.2290  -18.9070  -29.0490 N.3   490  HIS490     -0.1241
     76  CA         3.3810  -18.8970  -30.4990 C.3   490  HIS490      0.1621
     77  C          4.0960  -17.6480  -30.9930 C.2   490  HIS490      0.2264
     78  O          4.6940  -17.6770  -32.0740 O.2   490  HIS490     -0.2867
     79  CB         2.0150  -19.0140  -31.1750 C.3   490  HIS490      0.0745
     80  CG         1.2840  -20.2760  -30.8420 C.ar  490  HIS490      0.0817
     81  ND1       -0.0200  -20.5020  -31.2240 N.ar  490  HIS490     -0.2268
     82  CD2        1.6750  -21.3810  -30.1660 C.ar  490  HIS490      0.1154
     83  CE1       -0.4020  -21.6920  -30.7950 C.ar  490  HIS490      0.1986
     84  NE2        0.6080  -22.2450  -30.1500 N.ar  490  HIS490     -0.2212
     85  N          3.6580  -18.7950  -36.8090 N.3   505  ALA505     -0.1231
     86  CA         2.6970  -19.4880  -37.6620 C.3   505  ALA505      0.1694
     87  C          1.6090  -18.5360  -38.1400 C.2   505  ALA505      0.2592
     88  O          1.2950  -18.4800  -39.3350 O.2   505  ALA505     -0.2718
     89  CB         2.0890  -20.6730  -36.9110 C.3   505  ALA505      0.0304
     90  N          1.0270  -17.7720  -37.2190 N.am  506  SER506     -0.1952
     91  CA         0.0140  -16.7830  -37.5500 C.3   506  SER506      0.1924
     92  C          0.2300  -15.5400  -36.7040 C.2   506  SER506      0.2314
     93  O          0.6440  -15.6220  -35.5440 O.2   506  SER506     -0.2863
     94  CB        -1.4050  -17.3210  -37.3250 C.3   506  SER506      0.2116
     95  OG        -2.3760  -16.3150  -37.5560 O.3   506  SER506     -0.2180
     96  N         -2.1140  -13.7750  -35.6160 N.3   508  ALA508     -0.1231
     97  CA        -3.2320  -13.6070  -34.6980 C.3   508  ALA508      0.1694
     98  C         -2.8050  -13.8200  -33.2520 C.2   508  ALA508      0.2592
     99  O         -3.3500  -13.1790  -32.3460 O.2   508  ALA508     -0.2718
    100  CB        -4.3620  -14.5680  -35.0660 C.3   508  ALA508      0.0304
    101  N         -1.8370  -14.7090  -33.0170 N.am  509  PHE509     -0.1976
    102  CA        -1.3580  -14.9380  -31.6580 C.3   509  PHE509      0.1639
    103  C         -0.6460  -13.7070  -31.1130 C.2   509  PHE509      0.2290
    104  O         -0.7880  -13.3720  -29.9310 O.2   509  PHE509     -0.2864
    105  CB        -0.4280  -16.1490  -31.6240 C.3   509  PHE509      0.0560
    106  CG        -0.9760  -17.3570  -32.3280 C.ar  509  PHE509     -0.0200
    107  CD1       -2.0630  -18.0430  -31.8120 C.ar  509  PHE509     -0.0042
    108  CD2       -0.3980  -17.8120  -33.5020 C.ar  509  PHE509     -0.0042
    109  CE1       -2.5690  -19.1570  -32.4570 C.ar  509  PHE509     -0.0003
    110  CE2       -0.8970  -18.9260  -34.1520 C.ar  509  PHE509     -0.0003
    111  CZ        -1.9840  -19.6000  -33.6290 C.ar  509  PHE509     -0.0000
@<TRIPOS>BOND
     1    70    69    2
     2    22    20    1
     3    69    68    1
     4    50    51    1
     5    21    20    1
     6    20    19    1
     7    68    71    1
     8    68    67    1
     9    51    52    1
    10    51    54    1
    11    18    17    2
    12    43    42    2
    13    71    72    1
    14    42    41    1
    15    17    16    1
    16    19    16    1
    17    53    52    2
    18    52    62   am
    19    67    64   am
    20    54    55    1
    21    44    41    1
    22    44    45    1
    23    16    15    1
    24    62    63    1
    25    41    40    1
    26    64    65    2
    27    64    63    1
    28    25    26    2
    29    25    24    1
    30     3     4    2
    31     3     2    1
    32    72    73    1
    33    40    33   am
    34    74    73    1
    35    31    32    1
    36    15    11   am
    37    63    66    1
    38    46    45   ar
    39    46    48   ar
    40    45    47   ar
    41    55    56   ar
    42    55    57   ar
    43    88    87    2
    44     5     2    1
    45     5     6    1
    46    23    24    1
    47    33    32    1
    48    33    34    2
    49    24    27    1
    50     2     1    1
    51    56    58   ar
    52     9    10    1
    53    29    27    1
    54    27    28    1
    55    11    12    2
    56    11    10    1
    57    32    35    1
    58    57    59   ar
    59    48    49   ar
    60    87    86    1
    61    87    90   am
    62    47    49   ar
    63     6     7    1
    64     6     8    1
    65    10    13    1
    66    86    89    1
    67    86    85    1
    68    58    60   ar
    69    95    94    1
    70    91    94    1
    71    91    90    1
    72    91    92    1
    73    35    36    1
    74    28    30    1
    75    59    60   ar
    76    13    14    1
    77    60    61    1
    78    92    93    2
    79    36    37    1
    80    38    37    2
    81    37    39   am
    82    96    97    1
    83   100    97    1
    84    97    98    1
    85   110   111   ar
    86   110   108   ar
    87   111   109   ar
    88   108   106   ar
    89    98   101   am
    90    98    99    2
    91   101   102    1
    92   109   107   ar
    93   106   107   ar
    94   106   105    1
    95    78    77    2
    96   102   105    1
    97   102   103    1
    98    81    80   ar
    99    81    83   ar
   100    79    80    1
   101    79    76    1
   102   103   104    2
   103    77    76    1
   104    80    82   ar
   105    83    84   ar
   106    76    75    1
   107    82    84   ar
