@<TRIPOS>MOLECULE
tmp/6hqbJ05.pdb
 179 175 0 0 0
SMALL
GASTEIGER

@<TRIPOS>ATOM
      1  N        -16.9970  -43.3760    3.3510 N.3    12  PHE12      -0.1227
      2  CA       -17.4020  -41.9720    3.3610 C.3    12  PHE12       0.1736
      3  C        -18.8390  -41.7940    2.8800 C.2    12  PHE12       0.2595
      4  O        -19.5680  -40.9430    3.4030 O.2    12  PHE12      -0.2718
      5  CB       -16.4470  -41.1310    2.5180 C.3    12  PHE12       0.0547
      6  CG       -16.6770  -39.6540    2.6540 C.ar   12  PHE12      -0.0202
      7  CD1      -16.6170  -39.0460    3.8970 C.ar   12  PHE12      -0.0042
      8  CD2      -16.9580  -38.8750    1.5450 C.ar   12  PHE12      -0.0042
      9  CE1      -16.8320  -37.6890    4.0330 C.ar   12  PHE12      -0.0003
     10  CE2      -17.1720  -37.5160    1.6750 C.ar   12  PHE12      -0.0003
     11  CZ       -17.1100  -36.9230    2.9200 C.ar   12  PHE12      -0.0000
     12  N        -19.2590  -42.5640    1.8720 N.am   13  ILE13      -0.1980
     13  CA       -20.6720  -42.6130    1.5140 C.3    13  ILE13       0.1595
     14  C        -21.5030  -43.0020    2.7270 C.2    13  ILE13       0.2287
     15  O        -22.6110  -42.4930    2.9290 O.2    13  ILE13      -0.2864
     16  CB       -20.8910  -43.5860    0.3390 C.3    13  ILE13       0.0276
     17  CG1      -20.2540  -43.0390   -0.9390 C.3    13  ILE13       0.0022
     18  CG2      -22.3740  -43.8640    0.1250 C.3    13  ILE13       0.0022
     19  CD1      -20.3450  -43.9880   -2.1070 C.3    13  ILE13       0.0001
     20  N        -22.0170  -39.8930    6.3820 N.3    16  LEU16      -0.1231
     21  CA       -22.7970  -38.7000    6.6500 C.3    16  LEU16       0.1678
     22  C        -24.2440  -39.0740    6.9720 C.2    16  LEU16       0.2434
     23  O        -24.7910  -40.0060    6.3730 O.2    16  LEU16      -0.2733
     24  CB       -22.7370  -37.7310    5.4610 C.3    16  LEU16       0.0284
     25  CG       -21.3420  -37.1100    5.3040 C.3    16  LEU16       0.0019
     26  CD1      -21.2840  -36.1120    4.1630 C.3    16  LEU16       0.0001
     27  CD2      -20.8990  -36.4550    6.6060 C.3    16  LEU16       0.0001
     28  N        -24.8970  -38.3190    7.8900 N.am   17  PRO17      -0.2718
     29  CA       -26.0710  -38.8110    8.6380 C.3    17  PRO17       0.1535
     30  C        -26.8500  -39.9890    8.0700 C.2    17  PRO17       0.2598
     31  O        -26.7990  -41.0900    8.6290 O.2    17  PRO17      -0.2715
     32  CB       -26.9700  -37.5660    8.7060 C.3    17  PRO17       0.0310
     33  CG       -26.1200  -36.4000    8.1710 C.3    17  PRO17       0.0237
     34  CD       -24.7130  -36.8790    8.1100 C.3    17  PRO17       0.0939
     35  N        -27.5750  -39.7730    6.9690 N.am   18  ALA18      -0.1978
     36  CA       -28.4880  -40.7880    6.4510 C.3    18  ALA18       0.1597
     37  C        -27.7900  -42.0880    6.0790 C.2    18  ALA18       0.2287
     38  O        -28.4710  -43.0810    5.7970 O.2    18  ALA18      -0.2864
     39  CB       -29.2470  -40.2460    5.2470 C.3    18  ALA18       0.0319
     40  N        -23.0890  -31.5420    9.2090 N.3    31  GLU31      -0.1231
     41  CA       -22.3710  -31.1800    7.9920 C.3    31  GLU31       0.1699
     42  C        -23.2830  -30.4680    7.0000 C.2    31  GLU31       0.2592
     43  O        -22.8970  -29.4520    6.4060 O.2    31  GLU31      -0.2718
     44  CB       -21.7620  -32.4340    7.3630 C.3    31  GLU31       0.0402
     45  CG       -20.3780  -32.8130    7.8770 C.3    31  GLU31       0.1161
     46  CD       -20.3910  -33.3450    9.2980 C.2    31  GLU31       0.3649
     47  OE1      -20.6050  -32.5490   10.2370 O.co2  31  GLU31      -0.2457
     48  OE2      -20.1880  -34.5640    9.4760 O.co2  31  GLU31      -0.2457
     49  N        -24.5040  -30.9770    6.8250 N.am   32  VAL32      -0.1980
     50  CA       -25.5120  -30.3570    5.9700 C.3    32  VAL32       0.1595
     51  C        -25.9340  -29.0300    6.5880 C.2    32  VAL32       0.2287
     52  O        -27.0760  -28.8700    7.0330 O.2    32  VAL32      -0.2864
     53  CB       -26.7250  -31.2870    5.7740 C.3    32  VAL32       0.0276
     54  CG1      -27.5660  -30.8310    4.5890 C.3    32  VAL32       0.0022
     55  CG2      -26.2700  -32.7280    5.5980 C.3    32  VAL32       0.0022
     56  N        -21.3370  -26.9650    6.1670 N.3    35  ALA35      -0.1231
     57  CA       -20.7130  -26.7700    4.8690 C.3    35  ALA35       0.1694
     58  C        -21.4970  -25.8250    3.9670 C.2    35  ALA35       0.2592
     59  O        -21.0290  -25.5100    2.8700 O.2    35  ALA35      -0.2718
     60  CB       -20.5210  -28.1210    4.1730 C.3    35  ALA35       0.0304
     61  N        -22.6670  -25.3560    4.4040 N.am   36  HIS36      -0.1976
     62  CA       -23.4790  -24.4460    3.6020 C.3    36  HIS36       0.1656
     63  C        -22.9740  -23.0110    3.6960 C.2    36  HIS36       0.2291
     64  O        -22.2600  -22.5370    2.8050 O.2    36  HIS36      -0.2864
     65  CB       -24.9450  -24.5070    4.0370 C.3    36  HIS36       0.0771
     66  CG       -25.6780  -25.7070    3.5270 C.ar   36  HIS36       0.0820
     67  ND1      -25.3100  -26.9970    3.8450 N.ar   36  HIS36      -0.2267
     68  CD2      -26.7610  -25.8140    2.7220 C.ar   36  HIS36       0.1154
     69  CE1      -26.1340  -27.8460    3.2580 C.ar   36  HIS36       0.1986
     70  NE2      -27.0250  -27.1530    2.5710 N.ar   36  HIS36      -0.2212
     71  N        -19.2520  -21.9690    2.6970 N.3    39  PHE39      -0.1227
     72  CA       -18.8550  -21.8060    1.3050 C.3    39  PHE39       0.1736
     73  C        -19.7680  -20.8640    0.5340 C.2    39  PHE39       0.2595
     74  O        -19.3790  -20.3930   -0.5410 O.2    39  PHE39      -0.2718
     75  CB       -18.8000  -23.1690    0.6000 C.3    39  PHE39       0.0547
     76  CG       -20.0010  -23.4690   -0.2510 C.ar   39  PHE39      -0.0202
     77  CD1      -21.1860  -23.8920    0.3240 C.ar   39  PHE39      -0.0042
     78  CD2      -19.9370  -23.3510   -1.6280 C.ar   39  PHE39      -0.0042
     79  CE1      -22.2880  -24.1750   -0.4540 C.ar   39  PHE39      -0.0003
     80  CE2      -21.0350  -23.6340   -2.4100 C.ar   39  PHE39      -0.0003
     81  CZ       -22.2120  -24.0460   -1.8240 C.ar   39  PHE39      -0.0000
     82  N        -20.9680  -20.5800    1.0500 N.am   40  LEU40      -0.1980
     83  CA       -21.7720  -19.5060    0.4790 C.3    40  LEU40       0.1596
     84  C        -21.1120  -18.1480    0.6700 C.2    40  LEU40       0.2287
     85  O        -21.4200  -17.2100   -0.0730 O.2    40  LEU40      -0.2864
     86  CB       -23.1700  -19.4960    1.1000 C.3    40  LEU40       0.0297
     87  CG       -24.0420  -20.7280    0.8560 C.3    40  LEU40       0.0022
     88  CD1      -25.3770  -20.5900    1.5710 C.3    40  LEU40       0.0001
     89  CD2      -24.2430  -20.9610   -0.6340 C.3    40  LEU40       0.0001
     90  N        -30.3030  -17.3750    2.3810 N.3    67  LEU67      -0.1231
     91  CA       -30.2920  -18.5330    1.4920 C.3    67  LEU67       0.1693
     92  C        -30.4090  -19.8350    2.2750 C.2    67  LEU67       0.2591
     93  O        -31.0480  -20.7910    1.8120 O.2    67  LEU67      -0.2718
     94  CB       -29.0200  -18.5190    0.6470 C.3    67  LEU67       0.0284
     95  CG       -28.8090  -19.6670   -0.3360 C.3    67  LEU67       0.0019
     96  CD1      -29.9850  -19.7830   -1.2910 C.3    67  LEU67       0.0001
     97  CD2      -27.5160  -19.4450   -1.0940 C.3    67  LEU67       0.0001
     98  N        -29.7970  -19.8950    3.4600 N.am   68  ILE68      -0.1980
     99  CA       -29.9750  -21.0550    4.3270 C.3    68  ILE68       0.1595
    100  C        -31.4330  -21.1730    4.7530 C.2    68  ILE68       0.2287
    101  O        -31.9830  -22.2770    4.8380 O.2    68  ILE68      -0.2864
    102  CB       -29.0250  -20.9610    5.5360 C.3    68  ILE68       0.0276
    103  CG1      -27.5780  -21.1950    5.0920 C.3    68  ILE68       0.0022
    104  CG2      -29.4220  -21.9450    6.6190 C.3    68  ILE68       0.0022
    105  CD1      -26.5800  -21.1860    6.2290 C.3    68  ILE68       0.0001
    106  N        -33.2290  -22.7580    1.7520 N.3    71  ALA71      -0.1245
    107  CA       -32.9280  -24.1830    1.6470 C.3    71  ALA71       0.1562
    108  C        -33.4860  -24.9810    2.8190 C.2    71  ALA71       0.2260
    109  O        -33.6160  -26.2060    2.7140 O.2    71  ALA71      -0.2867
    110  CB       -31.4180  -24.3960    1.5390 C.3    71  ALA71       0.0290
    111  N        -37.2390  -25.4820    1.6440 N.3    74  ALA74      -0.1231
    112  CA       -37.1720  -26.4770    0.5760 C.3    74  ALA74       0.1694
    113  C        -36.8090  -27.8660    1.0890 C.2    74  ALA74       0.2591
    114  O        -36.8970  -28.8360    0.3290 O.2    74  ALA74      -0.2718
    115  CB       -36.1660  -26.0410   -0.4900 C.3    74  ALA74       0.0304
    116  N        -36.4060  -27.9740    2.3540 N.am   75  LEU75      -0.1980
    117  CA       -36.1120  -29.2390    3.0150 C.3    75  LEU75       0.1596
    118  C        -37.3160  -29.7470    3.8030 C.2    75  LEU75       0.2287
    119  O        -37.8580  -30.8180    3.5080 O.2    75  LEU75      -0.2864
    120  CB       -34.8860  -29.0340    3.9240 C.3    75  LEU75       0.0297
    121  CG       -34.3430  -30.0330    4.9480 C.3    75  LEU75       0.0022
    122  CD1      -32.8700  -29.7490    5.1650 C.3    75  LEU75       0.0001
    123  CD2      -35.0690  -29.9410    6.2730 C.3    75  LEU75       0.0001
    124  N        -40.9990  -30.0750    2.1000 N.3    78  TYR78      -0.1241
    125  CA       -41.0850  -31.2830    1.2890 C.3    78  TYR78       0.1605
    126  C        -41.0610  -32.5340    2.1600 C.2    78  TYR78       0.2264
    127  O        -41.8160  -33.4840    1.9040 O.2    78  TYR78      -0.2867
    128  CB       -39.9530  -31.3060    0.2530 C.3    78  TYR78       0.0534
    129  CG       -39.0190  -32.5030    0.3320 C.ar   78  TYR78      -0.0201
    130  CD1      -39.4700  -33.7860    0.0510 C.ar   78  TYR78      -0.0009
    131  CD2      -37.6830  -32.3450    0.6610 C.ar   78  TYR78      -0.0009
    132  CE1      -38.6440  -34.8660    0.1190 C.ar   78  TYR78       0.0417
    133  CE2      -36.8390  -33.4350    0.7210 C.ar   78  TYR78       0.0417
    134  CZ       -37.3330  -34.6960    0.4490 C.ar   78  TYR78       0.1957
    135  OH       -36.5360  -35.8110    0.5010 O.3    78  TYR78      -0.2866
    136  N        -33.4400  -39.9980    8.6600 N.3    93  LEU93      -0.1245
    137  CA       -33.6710  -38.9000    7.7310 C.3    93  LEU93       0.1561
    138  C        -35.0350  -39.0420    7.0710 C.2    93  LEU93       0.2260
    139  O        -35.8070  -38.0820    7.0160 O.2    93  LEU93      -0.2867
    140  CB       -32.5540  -38.8360    6.6850 C.3    93  LEU93       0.0270
    141  CG       -32.5220  -37.5540    5.8480 C.3    93  LEU93       0.0019
    142  CD1      -32.9450  -36.3760    6.6980 C.3    93  LEU93       0.0001
    143  CD2      -31.1460  -37.2960    5.2600 C.3    93  LEU93       0.0001
    144  N        -37.1890  -35.3240    9.4300 N.3    99  TRP99      -0.1241
    145  CA       -36.7870  -34.4260    8.3510 C.3    99  TRP99       0.1605
    146  C        -37.0480  -32.9710    8.7150 C.2    99  TRP99       0.2264
    147  O        -36.3090  -32.0830    8.2760 O.2    99  TRP99      -0.2867
    148  CB       -37.4970  -34.7730    7.0420 C.3    99  TRP99       0.0550
    149  CG       -36.7540  -34.2560    5.8400 C.ar   99  TRP99       0.0003
    150  CD1      -36.6110  -32.9530    5.4630 C.ar   99  TRP99       0.0946
    151  CD2      -36.0390  -35.0320    4.8700 C.ar   99  TRP99       0.0152
    152  NE1      -35.8530  -32.8700    4.3210 N.ar   99  TRP99      -0.2442
    153  CE2      -35.4920  -34.1340    3.9360 C.ar   99  TRP99       0.0810
    154  CE3      -35.8140  -36.3980    4.6970 C.ar   99  TRP99       0.0012
    155  CZ2      -34.7280  -34.5600    2.8530 C.ar   99  TRP99       0.0191
    156  CZ3      -35.0620  -36.8170    3.6220 C.ar   99  TRP99       0.0001
    157  CH2      -34.5270  -35.9030    2.7140 C.ar   99  TRP99       0.0015
    158  N        -34.0250  -32.2890   10.2790 N.3   102  PHE102     -0.1241
    159  CA       -32.8940  -32.2660    9.3550 C.3   102  PHE102      0.1605
    160  C        -32.4010  -30.8460    9.1220 C.2   102  PHE102      0.2264
    161  O        -31.2360  -30.6480    8.7590 O.2   102  PHE102     -0.2867
    162  CB       -33.2930  -32.9140    8.0220 C.3   102  PHE102      0.0534
    163  CG       -32.1430  -33.1390    7.0730 C.ar  102  PHE102     -0.0203
    164  CD1      -30.8640  -33.3830    7.5430 C.ar  102  PHE102     -0.0042
    165  CD2      -32.3510  -33.1190    5.7030 C.ar  102  PHE102     -0.0042
    166  CE1      -29.8150  -33.5920    6.6640 C.ar  102  PHE102     -0.0003
    167  CE2      -31.3050  -33.3290    4.8220 C.ar  102  PHE102     -0.0003
    168  CZ       -30.0370  -33.5660    5.3040 C.ar  102  PHE102     -0.0000
    169  N        -28.7710  -26.4110    9.3430 N.3   106  PHE106     -0.1241
    170  CA       -29.0600  -25.1040    8.7770 C.3   106  PHE106      0.1605
    171  C        -29.3140  -24.1570    9.9410 C.2   106  PHE106      0.2264
    172  O        -28.4750  -23.3120   10.2560 O.2   106  PHE106     -0.2867
    173  CB       -30.2730  -25.1650    7.8470 C.3   106  PHE106      0.0534
    174  CG       -30.0540  -25.9780    6.6020 C.ar  106  PHE106     -0.0203
    175  CD1      -30.0090  -27.3610    6.6560 C.ar  106  PHE106     -0.0042
    176  CD2      -29.9170  -25.3570    5.3710 C.ar  106  PHE106     -0.0042
    177  CE1      -29.8120  -28.1080    5.5120 C.ar  106  PHE106     -0.0003
    178  CE2      -29.7240  -26.1000    4.2230 C.ar  106  PHE106     -0.0003
    179  CZ       -29.6730  -27.4770    4.2940 C.ar  106  PHE106     -0.0000
@<TRIPOS>BOND
     1    80    81   ar
     2    80    78   ar
     3    19    17    1
     4    81    79   ar
     5    78    76   ar
     6    96    95    1
     7    97    95    1
     8    17    16    1
     9    89    87    1
    10    74    73    2
    11   115   112    1
    12    79    77   ar
    13    95    94    1
    14    76    77   ar
    15    76    75    1
    16    85    84    2
    17   130   132   ar
    18   130   129   ar
    19   132   134   ar
    20    18    16    1
    21   128   129    1
    22   128   125    1
    23   114   113    2
    24   129   131   ar
    25    16    13    1
    26   134   135    1
    27   134   133   ar
    28    83    84    1
    29    83    82    1
    30    83    86    1
    31    73    82   am
    32    73    72    1
    33   112   113    1
    34   112   111    1
    35    75    72    1
    36    94    91    1
    37   131   133   ar
    38    87    86    1
    39    87    88    1
    40   113   116   am
    41   125   124    1
    42   125   126    1
    43    72    71    1
    44    91    92    1
    45    91    90    1
    46    13    12    1
    47    13    14    1
    48   110   107    1
    49     8    10   ar
    50     8     6   ar
    51   107   106    1
    52   107   108    1
    53    10    11   ar
    54    93    92    2
    55    12     3   am
    56   127   126    2
    57    92    98   am
    58   116   117    1
    59     5     6    1
    60     5     2    1
    61    70    68   ar
    62    70    69   ar
    63     6     7   ar
    64   109   108    2
    65   157   155   ar
    66   157   156   ar
    67    68    66   ar
    68    14    15    2
    69    64    63    2
    70   155   153   ar
    71    59    58    2
    72     3     2    1
    73     3     4    2
    74    11     9   ar
    75   117   118    1
    76   117   120    1
    77    69    67   ar
    78     1     2    1
    79    98    99    1
    80   119   118    2
    81    66    67   ar
    82    66    65    1
    83    62    63    1
    84    62    65    1
    85    62    61    1
    86   156   154   ar
    87     7     9   ar
    88   120   121    1
    89   153   152   ar
    90   153   151   ar
    91    58    61   am
    92    58    57    1
    93    26    25    1
    94    60    57    1
    95   178   179   ar
    96   178   176   ar
    97   179   177   ar
    98   152   150   ar
    99    99   100    1
   100    99   102    1
   101    54    53    1
   102   154   151   ar
   103   100   101    2
   104   167   168   ar
   105   167   165   ar
   106    57    56    1
   107   151   149   ar
   108   121   122    1
   109   121   123    1
   110   103   102    1
   111   103   105    1
   112    39    36    1
   113   143   141    1
   114   168   166   ar
   115    25    24    1
   116    25    27    1
   117   176   174   ar
   118    24    21    1
   119   150   149   ar
   120   177   175   ar
   121   102   104    1
   122    55    53    1
   123   165   163   ar
   124    53    50    1
   125    38    37    2
   126   149   148    1
   127   141   140    1
   128   141   142    1
   129    50    51    1
   130    50    49    1
   131    37    36    1
   132    23    22    2
   133    20    21    1
   134    43    42    2
   135    36    35    1
   136    51    52    2
   137   174   175   ar
   138   174   173    1
   139    21    22    1
   140   166   164   ar
   141   140   137    1
   142    49    42   am
   143    35    30   am
   144    22    28   am
   145    42    41    1
   146   139   138    2
   147   148   145    1
   148   138   137    1
   149   163   164   ar
   150   163   162    1
   151    44    45    1
   152    44    41    1
   153   137   136    1
   154   173   170    1
   155    45    46    1
   156    28    34    1
   157    28    29    1
   158    41    40    1
   159   162   159    1
   160    30    31    2
   161    30    29    1
   162    34    33    1
   163    33    32    1
   164   147   146    2
   165   145   146    1
   166   145   144    1
   167    29    32    1
   168   161   160    2
   169   170   169    1
   170   170   171    1
   171   160   159    1
   172    46    48   ar
   173    46    47   ar
   174   159   158    1
   175   171   172    2
