@<TRIPOS>MOLECULE
tmp/6hqbA35.pdb
 89 79 0 0 0
SMALL
GASTEIGER

@<TRIPOS>ATOM
      1  N        -20.4610  -43.3150  -39.8360 N.3   353  ALA353     -0.1231
      2  CA       -20.5620  -42.5490  -38.5990 C.3   353  ALA353      0.1694
      3  C        -19.2010  -42.0890  -38.0890 C.2   353  ALA353      0.2591
      4  O        -19.1420  -41.1970  -37.2370 O.2   353  ALA353     -0.2718
      5  CB       -21.2740  -43.3750  -37.5280 C.3   353  ALA353      0.0304
      6  N        -18.1150  -42.6790  -38.5770 N.am  354  ILE354     -0.1980
      7  CA       -16.7740  -42.1970  -38.2610 C.3   354  ILE354      0.1595
      8  C        -16.2830  -41.2250  -39.3220 C.2   354  ILE354      0.2287
      9  O        -15.7330  -40.1620  -39.0100 O.2   354  ILE354     -0.2864
     10  CB       -15.8070  -43.3900  -38.1120 C.3   354  ILE354      0.0276
     11  CG1      -16.3950  -44.4470  -37.1770 C.3   354  ILE354      0.0022
     12  CG2      -14.4530  -42.9210  -37.6040 C.3   354  ILE354      0.0022
     13  CD1      -15.5470  -45.6910  -37.0650 C.3   354  ILE354      0.0001
     14  N        -18.0860  -37.7670  -39.1180 N.3   357  ALA357     -0.1231
     15  CA       -17.5960  -37.0060  -37.9750 C.3   357  ALA357      0.1694
     16  C        -16.2260  -36.4080  -38.2640 C.2   357  ALA357      0.2591
     17  O        -16.0050  -35.2020  -38.0780 O.2   357  ALA357     -0.2718
     18  CB       -17.5390  -37.9030  -36.7390 C.3   357  ALA357      0.0304
     19  N        -15.2940  -37.2380  -38.7400 N.am  358  LEU358     -0.1980
     20  CA       -13.9330  -36.7590  -38.9550 C.3   358  LEU358      0.1596
     21  C        -13.8670  -35.7620  -40.1050 C.2   358  LEU358      0.2287
     22  O        -13.1270  -34.7750  -40.0310 O.2   358  LEU358     -0.2864
     23  CB       -12.9900  -37.9380  -39.1960 C.3   358  LEU358      0.0297
     24  CG       -12.3720  -38.5520  -37.9350 C.3   358  LEU358      0.0022
     25  CD1      -11.5580  -37.5120  -37.1790 C.3   358  LEU358      0.0001
     26  CD2      -13.4360  -39.1550  -37.0280 C.3   358  LEU358      0.0001
     27  N        -15.2900  -32.4130  -38.7900 N.3   361  SER361     -0.1217
     28  CA       -14.3080  -31.7900  -37.9100 C.3   361  SER361      0.1889
     29  C        -13.1410  -31.2220  -38.7090 C.2   361  SER361      0.2288
     30  O        -12.6550  -30.1220  -38.4210 O.2   361  SER361     -0.2866
     31  CB       -13.8180  -32.8020  -36.8740 C.3   361  SER361      0.2089
     32  OG       -14.8910  -33.2780  -36.0780 O.3   361  SER361     -0.2183
     33  N        -11.7250  -27.4500  -39.1270 N.3   365  ILE365     -0.1245
     34  CA       -10.3070  -27.1400  -38.9650 C.3   365  ILE365      0.1561
     35  C         -9.7850  -26.3820  -40.1800 C.2   365  ILE365      0.2260
     36  O         -8.9650  -25.4670  -40.0530 O.2   365  ILE365     -0.2867
     37  CB        -9.5070  -28.4320  -38.7120 C.3   365  ILE365      0.0252
     38  CG1       -9.8850  -29.0400  -37.3600 C.3   365  ILE365      0.0019
     39  CG2       -8.0150  -28.1660  -38.7730 C.3   365  ILE365      0.0019
     40  CD1       -9.2480  -30.3890  -37.1000 C.3   365  ILE365      0.0001
     41  N        -20.9870  -33.3210  -39.5710 N.3   401  ILE401     -0.1245
     42  CA       -20.8260  -33.8530  -38.2210 C.3   401  ILE401      0.1561
     43  C        -22.1190  -34.5080  -37.7430 C.2   401  ILE401      0.2260
     44  O        -22.1050  -35.6170  -37.1940 O.2   401  ILE401     -0.2867
     45  CB       -20.3590  -32.7430  -37.2630 C.3   401  ILE401      0.0252
     46  CG1      -18.8550  -32.5090  -37.4200 C.3   401  ILE401      0.0019
     47  CG2      -20.7080  -33.0890  -35.8270 C.3   401  ILE401      0.0019
     48  CD1      -18.2890  -31.4910  -36.4570 C.3   401  ILE401      0.0001
     49  N        -22.8530  -37.9820  -38.8360 N.3   404  ALA404     -0.1231
     50  CA       -22.2620  -39.0780  -38.0770 C.3   404  ALA404      0.1694
     51  C        -23.2040  -39.5620  -36.9830 C.2   404  ALA404      0.2592
     52  O        -23.3910  -40.7710  -36.8010 O.2   404  ALA404     -0.2718
     53  CB       -20.9290  -38.6350  -37.4810 C.3   404  ALA404      0.0304
     54  N        -23.7890  -38.6300  -36.2280 N.am  405  GLY405     -0.1957
     55  CA       -24.7660  -38.9940  -35.2180 C.3   405  GLY405      0.1869
     56  C        -26.0190  -39.6220  -35.7870 C.2   405  GLY405      0.2309
     57  O        -26.7200  -40.3490  -35.0740 O.2   405  GLY405     -0.2863
     58  N        -24.7110  -43.3620  -36.9640 N.3   408  GLY408     -0.1225
     59  CA       -24.4420  -44.2070  -35.8090 C.3   408  GLY408      0.1811
     60  C        -25.6940  -44.8890  -35.2890 C.2   408  GLY408      0.2280
     61  O        -25.6990  -46.0940  -35.0200 O.2   408  GLY408     -0.2866
     62  N        -23.9700  -32.1790  -28.7170 N.3   546  ALA546     -0.1245
     63  CA       -23.3960  -33.5030  -28.5050 C.3   546  ALA546      0.1562
     64  C        -24.2910  -34.3580  -27.6190 C.2   546  ALA546      0.2260
     65  O        -24.4470  -35.5580  -27.8640 O.2   546  ALA546     -0.2867
     66  CB       -22.0000  -33.3800  -27.8960 C.3   546  ALA546      0.0290
     67  N        -27.2990  -35.4930  -29.9380 N.3   549  LEU549     -0.1231
     68  CA       -26.8910  -36.4740  -30.9360 C.3   549  LEU549      0.1693
     69  C        -26.3090  -37.7370  -30.3140 C.2   549  LEU549      0.2591
     70  O        -26.1930  -38.7540  -31.0080 O.2   549  LEU549     -0.2718
     71  CB       -25.8860  -35.8460  -31.8990 C.3   549  LEU549      0.0284
     72  CG       -26.4320  -34.6270  -32.6400 C.3   549  LEU549      0.0019
     73  CD1      -25.3650  -34.0100  -33.5300 C.3   549  LEU549      0.0001
     74  CD2      -27.6670  -35.0120  -33.4440 C.3   549  LEU549      0.0001
     75  N        -25.9440  -37.7030  -29.0310 N.am  550  LEU550     -0.1980
     76  CA       -25.4630  -38.8930  -28.3450 C.3   550  LEU550      0.1596
     77  C        -26.6010  -39.7080  -27.7520 C.2   550  LEU550      0.2287
     78  O        -26.6040  -40.9380  -27.8730 O.2   550  LEU550     -0.2864
     79  CB       -24.4740  -38.5010  -27.2460 C.3   550  LEU550      0.0297
     80  CG       -23.7930  -39.6730  -26.5390 C.3   550  LEU550      0.0022
     81  CD1      -22.9480  -40.4660  -27.5240 C.3   550  LEU550      0.0001
     82  CD2      -22.9530  -39.1830  -25.3710 C.3   550  LEU550      0.0001
     83  N        -28.1680  -42.0050  -30.1720 N.3   553  VAL553     -0.1245
     84  CA       -27.5310  -43.2710  -30.4980 C.3   553  VAL553      0.1561
     85  C        -27.5600  -44.2360  -29.3190 C.2   553  VAL553      0.2260
     86  O        -27.8100  -45.4290  -29.4970 O.2   553  VAL553     -0.2867
     87  CB       -26.0860  -43.0240  -30.9840 C.3   553  VAL553      0.0252
     88  CG1      -25.4680  -44.3130  -31.4990 C.3   553  VAL553      0.0019
     89  CG2      -26.0690  -41.9500  -32.0590 C.3   553  VAL553      0.0019
@<TRIPOS>BOND
     1    35    36    2
     2    35    34    1
     3    21    22    2
     4    21    20    1
     5     1     2    1
     6    41    42    1
     7     8     9    2
     8     8     7    1
     9    23    20    1
    10    23    24    1
    11    33    34    1
    12    14    15    1
    13    34    37    1
    14    20    19    1
    15    49    50    1
    16    27    28    1
    17    39    37    1
    18    19    16   am
    19    37    38    1
    20    29    30    2
    21    29    28    1
    22     2     3    1
    23     2     5    1
    24     6     7    1
    25     6     3   am
    26    16    17    2
    27    16    15    1
    28     7    10    1
    29    42    43    1
    30    42    45    1
    31    10    12    1
    32    10    11    1
    33     3     4    2
    34    50    53    1
    35    50    51    1
    36    15    18    1
    37    24    25    1
    38    24    26    1
    39    28    31    1
    40    43    44    2
    41    46    45    1
    42    46    48    1
    43    38    40    1
    44    45    47    1
    45    11    13    1
    46    51    52    2
    47    51    54   am
    48    58    59    1
    49    31    32    1
    50    54    55    1
    51    59    60    1
    52    56    55    1
    53    56    57    2
    54    60    61    2
    55    73    72    1
    56    74    72    1
    57    72    71    1
    58    89    87    1
    59    71    68    1
    60    88    87    1
    61    70    69    2
    62    87    84    1
    63    68    69    1
    64    68    67    1
    65    84    83    1
    66    84    85    1
    67    69    75   am
    68    86    85    2
    69    75    76    1
    70    62    63    1
    71    63    66    1
    72    63    64    1
    73    76    77    1
    74    76    79    1
    75    78    77    2
    76    65    64    2
    77    81    80    1
    78    79    80    1
    79    80    82    1
