@<TRIPOS>MOLECULE
tmp/6hqbB22.pdb
 107 105 0 0 0
SMALL
GASTEIGER

@<TRIPOS>ATOM
      1  N        -69.8460  -11.1650  -29.8010 N.3   338  SER338     -0.1217
      2  CA       -70.3820   -9.8060  -29.8330 C.3   338  SER338      0.1889
      3  C        -69.4680   -8.8350  -29.0930 C.2   338  SER338      0.2288
      4  O        -69.2290   -7.7110  -29.5600 O.2   338  SER338     -0.2866
      5  CB       -71.7910   -9.7820  -29.2420 C.3   338  SER338      0.2089
      6  OG       -72.6870  -10.5470  -30.0310 O.3   338  SER338     -0.2183
      7  N        -66.3750   -8.0720  -31.1970 N.3   341  VAL341     -0.1231
      8  CA       -66.6810   -7.1800  -32.3110 C.3   341  VAL341      0.1692
      9  C        -66.8370   -5.7460  -31.8170 C.2   341  VAL341      0.2591
     10  O        -66.3030   -4.8050  -32.4190 O.2   341  VAL341     -0.2718
     11  CB       -67.9320   -7.6630  -33.0700 C.3   341  VAL341      0.0266
     12  CG1      -68.3290   -6.6490  -34.1320 C.3   341  VAL341      0.0020
     13  CG2      -67.6730   -9.0210  -33.7090 C.3   341  VAL341      0.0020
     14  N        -67.5410   -5.5520  -30.6960 N.am  342  ILE342     -0.1980
     15  CA       -67.7010   -4.1910  -30.1940 C.3   342  ILE342      0.1595
     16  C        -66.4170   -3.6620  -29.5620 C.2   342  ILE342      0.2287
     17  O        -66.2220   -2.4470  -29.5100 O.2   342  ILE342     -0.2864
     18  CB       -68.8730   -4.0820  -29.2000 C.3   342  ILE342      0.0276
     19  CG1      -68.5580   -4.8250  -27.9020 C.3   342  ILE342      0.0022
     20  CG2      -70.1590   -4.5890  -29.8380 C.3   342  ILE342      0.0022
     21  CD1      -69.5660   -4.5780  -26.8020 C.3   342  ILE342      0.0001
     22  N        -64.6350   -2.4360  -32.4540 N.3   345  LEU345     -0.1245
     23  CA       -65.3190   -1.2100  -32.8610 C.3   345  LEU345      0.1561
     24  C        -64.9280   -0.0280  -31.9740 C.2   345  LEU345      0.2260
     25  O        -64.7260    1.0870  -32.4670 O.2   345  LEU345     -0.2867
     26  CB       -66.8320   -1.4260  -32.8320 C.3   345  LEU345      0.0270
     27  CG       -67.6720   -0.3910  -33.5820 C.3   345  LEU345      0.0019
     28  CD1      -67.3800   -0.4720  -35.0660 C.3   345  LEU345      0.0001
     29  CD2      -69.1540   -0.5850  -33.3200 C.3   345  LEU345      0.0001
     30  N        -61.5270    0.9610  -33.2260 N.3   348  GLN348     -0.1231
     31  CA       -61.6560    1.6320  -34.5160 C.3   348  GLN348      0.1698
     32  C        -62.4870    2.9090  -34.4590 C.2   348  GLN348      0.2592
     33  O        -62.6620    3.5540  -35.4980 O.2   348  GLN348     -0.2718
     34  CB       -62.2700    0.6730  -35.5400 C.3   348  GLN348      0.0381
     35  CG       -61.3020   -0.3730  -36.0810 C.3   348  GLN348      0.0905
     36  CD       -60.4500    0.1520  -37.2240 C.2   348  GLN348      0.2608
     37  OE1      -59.4220   -0.4320  -37.5700 O.2   348  GLN348     -0.2717
     38  NE2      -60.8800    1.2570  -37.8220 N.am  348  GLN348     -0.0878
     39  N        -63.0400    3.2690  -33.3070 N.am  349  HIS349     -0.1976
     40  CA       -63.7490    4.5350  -33.1710 C.3   349  HIS349      0.1656
     41  C        -63.0170    5.5590  -32.3220 C.2   349  HIS349      0.2291
     42  O        -63.0630    6.7510  -32.6360 O.2   349  HIS349     -0.2864
     43  CB       -65.1440    4.3000  -32.5840 C.3   349  HIS349      0.0771
     44  CG       -66.1070    3.6900  -33.5530 C.ar  349  HIS349      0.0820
     45  ND1      -67.4380    3.4890  -33.2540 N.ar  349  HIS349     -0.2267
     46  CD2      -65.9320    3.2380  -34.8170 C.ar  349  HIS349      0.1154
     47  CE1      -68.0420    2.9400  -34.2930 C.ar  349  HIS349      0.1986
     48  NE2      -67.1500    2.7760  -35.2530 N.ar  349  HIS349     -0.2212
     49  N        -59.8640    6.1600  -31.9820 N.3   351  TYR351     -0.1227
     50  CA       -58.6830    6.7560  -32.5950 C.3   351  TYR351      0.1736
     51  C        -59.0290    7.8680  -33.5750 C.2   351  TYR351      0.2596
     52  O        -58.1760    8.7190  -33.8500 O.2   351  TYR351     -0.2718
     53  CB       -57.8570    5.6870  -33.3140 C.3   351  TYR351      0.0548
     54  CG       -58.3410    5.3910  -34.7140 C.ar  351  TYR351     -0.0200
     55  CD1      -57.6980    5.9290  -35.8230 C.ar  351  TYR351     -0.0009
     56  CD2      -59.4480    4.5830  -34.9290 C.ar  351  TYR351     -0.0009
     57  CE1      -58.1440    5.6650  -37.1080 C.ar  351  TYR351      0.0417
     58  CE2      -59.8970    4.3130  -36.2090 C.ar  351  TYR351      0.0417
     59  CZ       -59.2450    4.8550  -37.2950 C.ar  351  TYR351      0.1957
     60  OH       -59.6980    4.5840  -38.5690 O.3   351  TYR351     -0.2866
     61  N        -60.2520    7.8780  -34.1090 N.am  352  SER352     -0.1938
     62  CA       -60.6680    8.8870  -35.0720 C.3   352  SER352      0.2055
     63  C        -61.7670    9.8060  -34.5620 C.2   352  SER352      0.2642
     64  O        -61.9760   10.8710  -35.1500 O.2   352  SER352     -0.2714
     65  CB       -61.1470    8.2200  -36.3700 C.3   352  SER352      0.2130
     66  OG       -62.2420    7.3590  -36.1180 O.3   352  SER352     -0.2179
     67  N        -62.4740    9.4220  -33.5020 N.am  353  LEU353     -0.1977
     68  CA       -63.4890   10.2620  -32.8660 C.3   353  LEU353      0.1596
     69  C        -63.2510   10.2650  -31.3610 C.2   353  LEU353      0.2287
     70  O        -64.0590    9.7310  -30.5910 O.2   353  LEU353     -0.2864
     71  CB       -64.9000    9.7680  -33.1900 C.3   353  LEU353      0.0297
     72  CG       -65.4180    9.8910  -34.6240 C.3   353  LEU353      0.0022
     73  CD1      -66.7340    9.1450  -34.7760 C.3   353  LEU353      0.0001
     74  CD2      -65.5900   11.3500  -35.0050 C.3   353  LEU353      0.0001
     75  N        -69.7890   18.0630  -38.8370 N.3   494  TRP494     -0.1241
     76  CA       -69.2270   16.8710  -39.4640 C.3   494  TRP494      0.1605
     77  C        -68.4290   17.2250  -40.7130 C.2   494  TRP494      0.2264
     78  O        -67.3240   16.7040  -40.9230 O.2   494  TRP494     -0.2867
     79  CB       -70.3500   15.8900  -39.8020 C.3   494  TRP494      0.0550
     80  CG       -69.8980   14.6600  -40.5220 C.ar  494  TRP494      0.0003
     81  CD1      -70.1140   14.3520  -41.8330 C.ar  494  TRP494      0.0946
     82  CD2      -69.1530   13.5680  -39.9710 C.ar  494  TRP494      0.0152
     83  NE1      -69.5510   13.1360  -42.1320 N.ar  494  TRP494     -0.2442
     84  CE2      -68.9550   12.6340  -41.0050 C.ar  494  TRP494      0.0810
     85  CE3      -68.6360   13.2890  -38.7020 C.ar  494  TRP494      0.0012
     86  CZ2      -68.2610   11.4420  -40.8110 C.ar  494  TRP494      0.0191
     87  CZ3      -67.9490   12.1050  -38.5100 C.ar  494  TRP494      0.0001
     88  CH2      -67.7670   11.1970  -39.5590 C.ar  494  TRP494      0.0015
     89  N        -59.8010   11.5390  -38.5820 N.3   505  LEU505     -0.1231
     90  CA       -61.1420   11.2060  -39.0520 C.3   505  LEU505      0.1693
     91  C        -61.1010   10.9070  -40.5460 C.2   505  LEU505      0.2592
     92  O        -60.9650   11.8240  -41.3640 O.2   505  LEU505     -0.2718
     93  CB       -62.0930   12.3590  -38.7460 C.3   505  LEU505      0.0284
     94  CG       -63.5580   12.1850  -39.1440 C.3   505  LEU505      0.0019
     95  CD1      -64.1300   10.9340  -38.5040 C.3   505  LEU505      0.0001
     96  CD2      -64.3650   13.4130  -38.7500 C.3   505  LEU505      0.0001
     97  N        -61.2250    9.6240  -40.9010 N.am  506  PHE506     -0.1976
     98  CA       -61.1620    9.1650  -42.2870 C.3   506  PHE506      0.1639
     99  C        -59.8720    9.6110  -42.9650 C.2   506  PHE506      0.2290
    100  O        -59.8810   10.5540  -43.7620 O.2   506  PHE506     -0.2864
    101  CB       -62.3710    9.6640  -43.0840 C.3   506  PHE506      0.0560
    102  CG       -63.6480    8.9370  -42.7710 C.ar  506  PHE506     -0.0200
    103  CD1      -64.0590    7.8670  -43.5480 C.ar  506  PHE506     -0.0042
    104  CD2      -64.4400    9.3240  -41.7010 C.ar  506  PHE506     -0.0042
    105  CE1      -65.2350    7.1950  -43.2650 C.ar  506  PHE506     -0.0003
    106  CE2      -65.6180    8.6550  -41.4120 C.ar  506  PHE506     -0.0003
    107  CZ       -66.0150    7.5890  -42.1950 C.ar  506  PHE506     -0.0000
@<TRIPOS>BOND
     1   100    99    2
     2   103   105   ar
     3   103   102   ar
     4   105   107   ar
     5   101   102    1
     6   101    98    1
     7    99    98    1
     8   102   104   ar
     9    98    97    1
    10   107   106   ar
    11    83    81   ar
    12    83    84   ar
    13    81    80   ar
    14   104   106   ar
    15    92    91    2
    16    84    86   ar
    17    84    82   ar
    18    78    77    2
    19    97    91   am
    20    86    88   ar
    21    77    76    1
    22    91    90    1
    23    80    82   ar
    24    80    79    1
    25    82    85   ar
    26    79    76    1
    27    88    87   ar
    28    76    75    1
    29    94    96    1
    30    94    93    1
    31    94    95    1
    32    90    93    1
    33    90    89    1
    34    85    87   ar
    35    60    59    1
    36    38    36   am
    37    37    36    2
    38    59    57   ar
    39    59    58   ar
    40    36    35    1
    41    57    55   ar
    42    65    66    1
    43    65    62    1
    44    58    56   ar
    45    35    34    1
    46    55    54   ar
    47    34    31    1
    48    33    32    2
    49    48    46   ar
    50    48    47   ar
    51    64    63    2
    52    62    63    1
    53    62    61    1
    54    28    27    1
    55    74    72    1
    56    56    54   ar
    57    46    44   ar
    58    73    72    1
    59    54    53    1
    60    72    71    1
    61    63    67   am
    62    31    32    1
    63    31    30    1
    64    32    39   am
    65    47    45   ar
    66    12    11    1
    67    61    51   am
    68    52    51    2
    69    13    11    1
    70    27    29    1
    71    27    26    1
    72    51    50    1
    73    44    45   ar
    74    44    43    1
    75    67    68    1
    76    53    50    1
    77    39    40    1
    78    71    68    1
    79    40    43    1
    80    40    41    1
    81    11     8    1
    82    68    69    1
    83    23    26    1
    84    23    22    1
    85    23    24    1
    86    42    41    2
    87    50    49    1
    88    25    24    2
    89    10     9    2
    90     8     9    1
    91     8     7    1
    92     9    14   am
    93    69    70    2
    94    14    15    1
    95    15    16    1
    96    15    18    1
    97     6     5    1
    98    20    18    1
    99     2     1    1
   100     2     5    1
   101     2     3    1
   102    16    17    2
   103     4     3    2
   104    18    19    1
   105    19    21    1
