@<TRIPOS>MOLECULE
tmp/6hqbA44.pdb
 131 128 0 0 0
SMALL
GASTEIGER

@<TRIPOS>ATOM
      1  N        -25.9680  -34.2220  -19.3200 N.3   441  ASN441     -0.1240
      2  CA       -27.0750  -33.3370  -18.9730 C.3   441  ASN441      0.1653
      3  C        -26.6360  -32.2970  -17.9480 C.2   441  ASN441      0.2266
      4  O        -26.8640  -31.0910  -18.1210 O.2   441  ASN441     -0.2867
      5  CB       -28.2380  -34.1810  -18.4400 C.3   441  ASN441      0.1155
      6  CG       -29.4580  -33.3570  -18.0860 C.2   441  ASN441      0.2627
      7  OD1      -30.3870  -33.2300  -18.8840 O.2   441  ASN441     -0.2716
      8  ND2      -29.4750  -32.8130  -16.8760 N.am  441  ASN441     -0.0877
      9  N        -24.1880  -29.8060  -19.5130 N.3   444  CYS444     -0.1221
     10  CA       -24.8640  -28.8390  -20.3690 C.3   444  CYS444      0.1808
     11  C        -25.5930  -27.7900  -19.5430 C.2   444  CYS444      0.2601
     12  O        -25.5640  -26.6000  -19.8800 O.2   444  CYS444     -0.2717
     13  CB       -25.8330  -29.5560  -21.3090 C.3   444  CYS444      0.0970
     14  SG       -25.0280  -30.6320  -22.5110 S.3   444  CYS444     -0.0800
     15  N        -26.2440  -28.2050  -18.4530 N.am  445  ILE445     -0.1979
     16  CA       -26.8970  -27.2310  -17.5800 C.3   445  ILE445      0.1595
     17  C        -25.8690  -26.2680  -16.9990 C.2   445  ILE445      0.2287
     18  O        -26.0810  -25.0450  -16.9660 O.2   445  ILE445     -0.2864
     19  CB       -27.6900  -27.9500  -16.4750 C.3   445  ILE445      0.0276
     20  CG1      -28.7850  -28.8180  -17.0900 C.3   445  ILE445      0.0022
     21  CG2      -28.2980  -26.9420  -15.5190 C.3   445  ILE445      0.0022
     22  CD1      -29.5430  -29.6350  -16.0810 C.3   445  ILE445      0.0001
     23  N        -24.7140  -23.8610  -19.5430 N.3   448  GLY448     -0.1210
     24  CA       -25.7560  -22.9020  -19.8650 C.3   448  GLY448      0.1956
     25  C        -25.8600  -21.7960  -18.8370 C.2   448  GLY448      0.2611
     26  O        -26.0160  -20.6230  -19.1880 O.2   448  GLY448     -0.2717
     27  N        -25.7720  -22.1490  -17.5530 N.am  449  PHE449     -0.1976
     28  CA       -25.8160  -21.1250  -16.5160 C.3   449  PHE449      0.1639
     29  C        -24.5660  -20.2530  -16.5480 C.2   449  PHE449      0.2290
     30  O        -24.6560  -19.0210  -16.5200 O.2   449  PHE449     -0.2864
     31  CB       -25.9940  -21.7730  -15.1430 C.3   449  PHE449      0.0560
     32  CG       -27.4220  -22.0940  -14.8080 C.ar  449  PHE449     -0.0200
     33  CD1      -28.4540  -21.3180  -15.3080 C.ar  449  PHE449     -0.0042
     34  CD2      -27.7350  -23.1710  -13.9960 C.ar  449  PHE449     -0.0042
     35  CE1      -29.7710  -21.6090  -15.0050 C.ar  449  PHE449     -0.0003
     36  CE2      -29.0510  -23.4670  -13.6890 C.ar  449  PHE449     -0.0003
     37  CZ       -30.0700  -22.6850  -14.1950 C.ar  449  PHE449     -0.0000
     38  N        -24.2180  -18.0850  -20.5140 N.3   452  PHE452     -0.1227
     39  CA       -25.3210  -17.2420  -20.9620 C.3   452  PHE452      0.1736
     40  C        -25.8890  -16.3900  -19.8310 C.2   452  PHE452      0.2596
     41  O        -26.2180  -15.2110  -20.0380 O.2   452  PHE452     -0.2718
     42  CB       -26.4130  -18.1220  -21.5730 C.3   452  PHE452      0.0547
     43  CG       -27.7280  -17.4270  -21.7500 C.ar  452  PHE452     -0.0202
     44  CD1      -27.8970  -16.4760  -22.7420 C.ar  452  PHE452     -0.0042
     45  CD2      -28.8050  -17.7430  -20.9350 C.ar  452  PHE452     -0.0042
     46  CE1      -29.1120  -15.8420  -22.9100 C.ar  452  PHE452     -0.0003
     47  CE2      -30.0240  -17.1130  -21.0980 C.ar  452  PHE452     -0.0003
     48  CZ       -30.1790  -16.1620  -22.0890 C.ar  452  PHE452     -0.0000
     49  N        -26.0110  -16.9740  -18.6370 N.am  453  GLY453     -0.1957
     50  CA       -26.3940  -16.1930  -17.4780 C.3   453  GLY453      0.1869
     51  C        -25.4850  -15.0050  -17.2500 C.2   453  GLY453      0.2309
     52  O        -25.9160  -13.9820  -16.7190 O.2   453  GLY453     -0.2863
     53  N        -20.8590  -24.3570  -24.6280 N.3   540  PHE540     -0.1241
     54  CA       -22.1590  -24.7990  -24.1340 C.3   540  PHE540      0.1605
     55  C        -23.0390  -25.3120  -25.2650 C.2   540  PHE540      0.2264
     56  O        -23.6740  -26.3710  -25.1480 O.2   540  PHE540     -0.2867
     57  CB       -22.8570  -23.6540  -23.4040 C.3   540  PHE540      0.0534
     58  CG       -24.3510  -23.7630  -23.4100 C.ar  540  PHE540     -0.0203
     59  CD1      -24.9910  -24.7080  -22.6260 C.ar  540  PHE540     -0.0042
     60  CD2      -25.1180  -22.9260  -24.2080 C.ar  540  PHE540     -0.0042
     61  CE1      -26.3670  -24.8100  -22.6290 C.ar  540  PHE540     -0.0003
     62  CE2      -26.4950  -23.0250  -24.2170 C.ar  540  PHE540     -0.0003
     63  CZ       -27.1200  -23.9690  -23.4270 C.ar  540  PHE540     -0.0000
     64  N        -24.5130  -29.1570  -25.7430 N.3   544  VAL544     -0.1245
     65  CA       -25.9140  -29.5610  -25.8480 C.3   544  VAL544      0.1561
     66  C        -26.1550  -30.3290  -27.1430 C.2   544  VAL544      0.2260
     67  O        -26.8860  -31.3320  -27.1610 O.2   544  VAL544     -0.2867
     68  CB       -26.8440  -28.3420  -25.7290 C.3   544  VAL544      0.0252
     69  CG1      -28.2920  -28.7680  -25.9010 C.3   544  VAL544      0.0019
     70  CG2      -26.6560  -27.6850  -24.3840 C.3   544  VAL544      0.0019
     71  N        -24.8940  -33.7570  -26.5910 N.3   547  LEU547     -0.1231
     72  CA       -25.8190  -34.4930  -25.7350 C.3   547  LEU547      0.1693
     73  C        -26.9920  -35.0390  -26.5380 C.2   547  LEU547      0.2591
     74  O        -27.3580  -36.2150  -26.4100 O.2   547  LEU547     -0.2718
     75  CB       -26.3140  -33.5890  -24.6060 C.3   547  LEU547      0.0284
     76  CG       -27.4240  -34.1630  -23.7210 C.3   547  LEU547      0.0019
     77  CD1      -26.9600  -35.4190  -22.9940 C.3   547  LEU547      0.0001
     78  CD2      -27.9140  -33.1180  -22.7360 C.3   547  LEU547      0.0001
     79  N        -27.5930  -34.1920  -27.3750 N.am  548  ILE548     -0.1980
     80  CA       -28.7390  -34.6230  -28.1730 C.3   548  ILE548      0.1595
     81  C        -28.3330  -35.7380  -29.1300 C.2   548  ILE548      0.2287
     82  O        -28.9390  -36.8200  -29.1480 O.2   548  ILE548     -0.2864
     83  CB       -29.3430  -33.4270  -28.9280 C.3   548  ILE548      0.0276
     84  CG1      -29.7550  -32.3390  -27.9400 C.3   548  ILE548      0.0022
     85  CG2      -30.5350  -33.8680  -29.7630 C.3   548  ILE548      0.0022
     86  CD1      -29.8840  -30.9840  -28.5690 C.3   548  ILE548      0.0001
     87  N        -33.7240  -32.9920  -34.0660 N.3   593  LEU593     -0.1245
     88  CA       -33.5100  -31.9870  -33.0270 C.3   593  LEU593      0.1561
     89  C        -32.0840  -31.4430  -33.0470 C.2   593  LEU593      0.2260
     90  O        -31.8730  -30.2410  -32.8470 O.2   593  LEU593     -0.2867
     91  CB       -33.8310  -32.5720  -31.6520 C.3   593  LEU593      0.0270
     92  CG       -35.3080  -32.8240  -31.3500 C.3   593  LEU593      0.0019
     93  CD1      -35.4900  -33.2550  -29.9050 C.3   593  LEU593      0.0001
     94  CD2      -36.1350  -31.5850  -31.6490 C.3   593  LEU593      0.0001
     95  N        -31.1920  -28.4180  -35.3720 N.3   596  PHE596     -0.1227
     96  CA       -31.4640  -27.0860  -34.8430 C.3   596  PHE596      0.1736
     97  C        -30.3410  -26.6030  -33.9370 C.2   596  PHE596      0.2595
     98  O        -29.9680  -25.4270  -33.9760 O.2   596  PHE596     -0.2718
     99  CB       -32.7840  -27.0760  -34.0730 C.3   596  PHE596      0.0547
    100  CG       -33.9970  -27.2920  -34.9270 C.ar  596  PHE596     -0.0202
    101  CD1      -34.5140  -26.2600  -35.6940 C.ar  596  PHE596     -0.0042
    102  CD2      -34.6370  -28.5190  -34.9400 C.ar  596  PHE596     -0.0042
    103  CE1      -35.6370  -26.4550  -36.4740 C.ar  596  PHE596     -0.0003
    104  CE2      -35.7600  -28.7220  -35.7170 C.ar  596  PHE596     -0.0003
    105  CZ       -36.2610  -27.6880  -36.4850 C.ar  596  PHE596     -0.0000
    106  N        -29.7940  -27.4900  -33.1060 N.am  597  TRP597     -0.1976
    107  CA       -28.7590  -27.0560  -32.1760 C.3   597  TRP597      0.1640
    108  C        -27.4160  -26.8520  -32.8630 C.2   597  TRP597      0.2290
    109  O        -26.6600  -25.9580  -32.4710 O.2   597  TRP597     -0.2864
    110  CB       -28.6380  -28.0470  -31.0210 C.3   597  TRP597      0.0576
    111  CG       -29.4790  -27.6380  -29.8540 C.ar  597  TRP597      0.0006
    112  CD1      -30.7820  -27.9720  -29.6250 C.ar  597  TRP597      0.0946
    113  CD2      -29.0860  -26.7840  -28.7710 C.ar  597  TRP597      0.0152
    114  NE1      -31.2180  -27.3950  -28.4570 N.ar  597  TRP597     -0.2442
    115  CE2      -30.1980  -26.6580  -27.9140 C.ar  597  TRP597      0.0810
    116  CE3      -27.9010  -26.1190  -28.4400 C.ar  597  TRP597      0.0012
    117  CZ2      -30.1600  -25.8960  -26.7480 C.ar  597  TRP597      0.0191
    118  CZ3      -27.8660  -25.3620  -27.2810 C.ar  597  TRP597      0.0001
    119  CH2      -28.9860  -25.2600  -26.4480 C.ar  597  TRP597      0.0015
    120  N        -36.6610  -24.4330  -42.0790 N.3   731  TYR731     -0.1241
    121  CA       -36.0520  -23.6280  -41.0270 C.3   731  TYR731      0.1605
    122  C        -34.5940  -23.3300  -41.3550 C.2   731  TYR731      0.2264
    123  O        -34.1720  -22.1640  -41.4100 O.2   731  TYR731     -0.2867
    124  CB       -36.1730  -24.3650  -39.6910 C.3   731  TYR731      0.0534
    125  CG       -35.9180  -23.5230  -38.4630 C.ar  731  TYR731     -0.0201
    126  CD1      -36.9540  -22.8410  -37.8400 C.ar  731  TYR731     -0.0009
    127  CD2      -34.6470  -23.4280  -37.9130 C.ar  731  TYR731     -0.0009
    128  CE1      -36.7310  -22.0770  -36.7080 C.ar  731  TYR731      0.0417
    129  CE2      -34.4120  -22.6650  -36.7800 C.ar  731  TYR731      0.0417
    130  CZ       -35.4580  -21.9910  -36.1820 C.ar  731  TYR731      0.1957
    131  OH       -35.2320  -21.2290  -35.0560 O.3   731  TYR731     -0.2866
@<TRIPOS>BOND
     1   120   121    1
     2   123   122    2
     3   122   121    1
     4   121   124    1
     5   124   125    1
     6   125   127   ar
     7   125   126   ar
     8   127   129   ar
     9   126   128   ar
    10   129   130   ar
    11   128   130   ar
    12   105   103   ar
    13   105   104   ar
    14   103   101   ar
    15   130   131    1
    16   104   102   ar
    17   101   100   ar
    18    95    96    1
    19   102   100   ar
    20   100    99    1
    21    96    99    1
    22    96    97    1
    23    87    88    1
    24    98    97    2
    25    97   106   am
    26   106   107    1
    27    89    88    1
    28    89    90    2
    29    88    91    1
    30   108   109    2
    31   108   107    1
    32   107   110    1
    33    91    92    1
    34    94    92    1
    35    92    93    1
    36   110   111    1
    37   111   112   ar
    38   111   113   ar
    39    85    83    1
    40   112   114   ar
    41    82    81    2
    42    81    80    1
    43    83    80    1
    44    83    84    1
    45   113   116   ar
    46   113   115   ar
    47    86    84    1
    48   114   115   ar
    49   116   118   ar
    50    80    79    1
    51   115   117   ar
    52    79    73   am
    53   118   119   ar
    54    67    66    2
    55    66    65    1
    56   117   119   ar
    57    71    72    1
    58    73    74    2
    59    73    72    1
    60    69    68    1
    61    65    64    1
    62    65    68    1
    63    72    75    1
    64    68    70    1
    65    55    56    2
    66    55    54    1
    67    53    54    1
    68    75    76    1
    69    62    60   ar
    70    62    63   ar
    71    60    58   ar
    72    54    57    1
    73    76    77    1
    74    76    78    1
    75    63    61   ar
    76    58    57    1
    77    58    59   ar
    78    46    44   ar
    79    46    48   ar
    80    44    43   ar
    81    61    59   ar
    82    14    13    1
    83    48    47   ar
    84    43    42    1
    85    43    45   ar
    86    42    39    1
    87    13    10    1
    88    47    45   ar
    89    39    38    1
    90    39    40    1
    91    10    11    1
    92    10     9    1
    93    41    40    2
    94    12    11    2
    95    24    23    1
    96    24    25    1
    97    40    49   am
    98    11    15   am
    99     1     2    1
   100    26    25    2
   101     2     5    1
   102     2     3    1
   103     7     6    2
   104    25    27   am
   105    49    50    1
   106    15    16    1
   107     5     6    1
   108     4     3    2
   109     6     8   am
   110    16    17    1
   111    16    19    1
   112    27    28    1
   113    50    51    1
   114    51    52    2
   115    20    19    1
   116    20    22    1
   117    17    18    2
   118    29    30    2
   119    29    28    1
   120    28    31    1
   121    19    21    1
   122    33    35   ar
   123    33    32   ar
   124    31    32    1
   125    35    37   ar
   126    32    34   ar
   127    37    36   ar
   128    34    36   ar
