@<TRIPOS>MOLECULE
tmp/6hqbA53.pdb
 90 86 0 0 0
SMALL
GASTEIGER

@<TRIPOS>ATOM
      1  N        -32.1560  -43.6950  -51.7440 N.3    56  HIS56      -0.1241
      2  CA       -30.7770  -44.1180  -51.5470 C.3    56  HIS56       0.1621
      3  C        -30.6050  -45.0960  -50.3910 C.2    56  HIS56       0.2264
      4  O        -29.4960  -45.6010  -50.1920 O.2    56  HIS56      -0.2867
      5  CB       -29.8730  -42.9020  -51.3160 C.3    56  HIS56       0.0745
      6  CG       -29.6540  -42.0700  -52.5430 C.ar   56  HIS56       0.0817
      7  ND1      -29.0070  -40.8530  -52.5120 N.ar   56  HIS56      -0.2268
      8  CD2      -29.9900  -42.2840  -53.8380 C.ar   56  HIS56       0.1154
      9  CE1      -28.9580  -40.3510  -53.7340 C.ar   56  HIS56       0.1986
     10  NE2      -29.5460  -41.2000  -54.5570 N.ar   56  HIS56      -0.2212
     11  N        -21.0500  -39.3910  -58.0800 N.3    79  HIS79      -0.1241
     12  CA       -20.8310  -38.1520  -57.3420 C.3    79  HIS79       0.1621
     13  C        -19.5790  -37.4370  -57.8320 C.2    79  HIS79       0.2264
     14  O        -19.5590  -36.2060  -57.9450 O.2    79  HIS79      -0.2867
     15  CB       -20.7290  -38.4290  -55.8430 C.3    79  HIS79       0.0745
     16  CG       -20.3720  -37.2180  -55.0360 C.ar   79  HIS79       0.0817
     17  ND1      -19.0680  -36.8280  -54.8170 N.ar   79  HIS79      -0.2268
     18  CD2      -21.1490  -36.3020  -54.4130 C.ar   79  HIS79       0.1154
     19  CE1      -19.0570  -35.7260  -54.0890 C.ar   79  HIS79       0.1986
     20  NE2      -20.3070  -35.3870  -53.8280 N.ar   79  HIS79      -0.2212
     21  N        -20.3860  -35.6910  -60.9960 N.3    82  VAL82      -0.1231
     22  CA       -21.1010  -34.4540  -60.6730 C.3    82  VAL82       0.1692
     23  C        -20.1200  -33.3610  -60.2600 C.2    82  VAL82       0.2591
     24  O        -20.2020  -32.2100  -60.7160 O.2    82  VAL82      -0.2718
     25  CB       -22.1390  -34.7140  -59.5660 C.3    82  VAL82       0.0266
     26  CG1      -22.7860  -33.4140  -59.1260 C.3    82  VAL82       0.0020
     27  CG2      -23.1880  -35.7060  -60.0330 C.3    82  VAL82       0.0020
     28  N        -19.1810  -33.7110  -59.3800 N.am   83  VAL83      -0.1980
     29  CA       -18.2290  -32.7350  -58.8580 C.3    83  VAL83       0.1595
     30  C        -17.3450  -32.1930  -59.9730 C.2    83  VAL83       0.2287
     31  O        -17.0700  -30.9870  -60.0380 O.2    83  VAL83      -0.2864
     32  CB       -17.3940  -33.3650  -57.7300 C.3    83  VAL83       0.0276
     33  CG1      -16.1830  -32.5110  -57.4310 C.3    83  VAL83       0.0022
     34  CG2      -18.2410  -33.5310  -56.4880 C.3    83  VAL83       0.0022
     35  N        -19.2270  -29.7080  -61.9850 N.3    86  TRP86      -0.1241
     36  CA       -19.3170  -28.4280  -61.2860 C.3    86  TRP86       0.1605
     37  C        -18.0050  -27.6510  -61.3590 C.2    86  TRP86       0.2264
     38  O        -18.0110  -26.4240  -61.5120 O.2    86  TRP86      -0.2867
     39  CB       -19.7190  -28.6430  -59.8280 C.3    86  TRP86       0.0550
     40  CG       -19.4730  -27.4310  -58.9790 C.ar   86  TRP86       0.0003
     41  CD1      -20.1810  -26.2650  -58.9900 C.ar   86  TRP86       0.0946
     42  CD2      -18.4390  -27.2640  -58.0010 C.ar   86  TRP86       0.0152
     43  NE1      -19.6540  -25.3830  -58.0770 N.ar   86  TRP86      -0.2442
     44  CE2      -18.5850  -25.9730  -57.4560 C.ar   86  TRP86       0.0810
     45  CE3      -17.4070  -28.0810  -57.5300 C.ar   86  TRP86       0.0012
     46  CZ2      -17.7380  -25.4810  -56.4660 C.ar   86  TRP86       0.0191
     47  CZ3      -16.5670  -27.5900  -56.5460 C.ar   86  TRP86       0.0001
     48  CH2      -16.7380  -26.3020  -56.0250 C.ar   86  TRP86       0.0015
     49  N        -17.9630  -39.3530  -41.4740 N.3   356  LEU356     -0.1245
     50  CA       -18.6720  -38.0770  -41.4660 C.3   356  LEU356      0.1561
     51  C        -18.2050  -37.1930  -40.3180 C.2   356  LEU356      0.2260
     52  O        -17.9610  -35.9950  -40.5040 O.2   356  LEU356     -0.2867
     53  CB       -20.1780  -38.3210  -41.3810 C.3   356  LEU356      0.0270
     54  CG       -20.8860  -38.6060  -42.7040 C.3   356  LEU356      0.0019
     55  CD1      -22.3050  -39.0570  -42.4540 C.3   356  LEU356      0.0001
     56  CD2      -20.8800  -37.3670  -43.5790 C.3   356  LEU356      0.0001
     57  N        -14.6540  -35.9780  -41.1620 N.3   359  LEU359     -0.1245
     58  CA       -14.6370  -35.0610  -42.2950 C.3   359  LEU359      0.1561
     59  C        -15.2210  -33.7050  -41.9200 C.2   359  LEU359      0.2260
     60  O        -14.6970  -32.6650  -42.3320 O.2   359  LEU359     -0.2867
     61  CB       -15.3970  -35.6760  -43.4700 C.3   359  LEU359      0.0270
     62  CG       -15.3770  -34.9030  -44.7870 C.3   359  LEU359      0.0019
     63  CD1      -13.9570  -34.5190  -45.1540 C.3   359  LEU359      0.0001
     64  CD2      -16.0030  -35.7350  -45.8920 C.3   359  LEU359      0.0001
     65  N        -20.4640  -26.6000  -43.9600 N.3   396  ILE396     -0.1245
     66  CA       -20.2850  -27.9360  -44.5280 C.3   396  ILE396      0.1561
     67  C        -19.9050  -28.9290  -43.4340 C.2   396  ILE396      0.2260
     68  O        -20.5030  -30.0080  -43.3090 O.2   396  ILE396     -0.2867
     69  CB       -19.2380  -27.9090  -45.6550 C.3   396  ILE396      0.0252
     70  CG1      -19.7500  -27.0870  -46.8380 C.3   396  ILE396      0.0019
     71  CG2      -18.8960  -29.3220  -46.0960 C.3   396  ILE396      0.0019
     72  CD1      -21.0030  -27.6460  -47.4740 C.3   396  ILE396      0.0001
     73  N        -21.9120  -32.2360  -41.9310 N.3   400  LEU400     -0.1245
     74  CA       -21.2700  -33.5440  -41.9970 C.3   400  LEU400      0.1561
     75  C        -21.0360  -34.1450  -40.6180 C.2   400  LEU400      0.2260
     76  O        -20.9080  -35.3680  -40.5020 O.2   400  LEU400     -0.2867
     77  CB       -19.9480  -33.4440  -42.7610 C.3   400  LEU400      0.0270
     78  CG       -20.0650  -33.0330  -44.2320 C.3   400  LEU400      0.0019
     79  CD1      -18.7330  -33.1800  -44.9460 C.3   400  LEU400      0.0001
     80  CD2      -21.1470  -33.8310  -44.9420 C.3   400  LEU400      0.0001
     81  N        -25.9520  -41.6660  -38.7680 N.3   407  HIS407     -0.1241
     82  CA       -25.5960  -43.0000  -39.2330 C.3   407  HIS407      0.1621
     83  C        -25.1350  -43.9140  -38.1030 C.2   407  HIS407      0.2264
     84  O        -25.2080  -45.1380  -38.2510 O.2   407  HIS407     -0.2867
     85  CB       -24.5410  -42.9010  -40.3330 C.3   407  HIS407      0.0745
     86  CG       -25.0670  -42.3060  -41.6030 C.ar  407  HIS407      0.0817
     87  ND1      -25.6860  -43.0590  -42.5770 N.ar  407  HIS407     -0.2268
     88  CD2      -25.0920  -41.0270  -42.0460 C.ar  407  HIS407      0.1154
     89  CE1      -26.0570  -42.2710  -43.5710 C.ar  407  HIS407      0.1986
     90  NE2      -25.7060  -41.0340  -43.2740 N.ar  407  HIS407     -0.2212
@<TRIPOS>BOND
     1    35    36    1
     2    38    37    2
     3    37    36    1
     4    36    39    1
     5    21    22    1
     6    24    23    2
     7    22    23    1
     8    22    25    1
     9    23    28   am
    10    31    30    2
    11    27    25    1
    12    30    29    1
    13    39    40    1
    14    25    26    1
    15    28    29    1
    16    41    40   ar
    17    41    43   ar
    18    40    42   ar
    19    29    32    1
    20    11    12    1
    21    43    44   ar
    22    42    45   ar
    23    42    44   ar
    24    14    13    2
    25    13    12    1
    26    32    33    1
    27    32    34    1
    28    45    47   ar
    29    44    46   ar
    30    12    15    1
    31    47    48   ar
    32    46    48   ar
    33    15    16    1
    34    16    17   ar
    35    16    18   ar
    36    17    19   ar
    37    10     8   ar
    38    10     9   ar
    39    18    20   ar
    40    19    20   ar
    41     8     6   ar
    42     9     7   ar
    43     6     7   ar
    44     6     5    1
    45     1     2    1
    46     2     5    1
    47     2     3    1
    48     3     4    2
    49    72    70    1
    50    70    69    1
    51    71    69    1
    52    64    62    1
    53    69    66    1
    54    63    62    1
    55    79    78    1
    56    80    78    1
    57    62    61    1
    58    66    65    1
    59    66    67    1
    60    78    77    1
    61    56    54    1
    62    89    90   ar
    63    89    87   ar
    64    61    58    1
    65    67    68    2
    66    90    88   ar
    67    77    74    1
    68    54    55    1
    69    54    53    1
    70    87    86   ar
    71    60    59    2
    72    58    59    1
    73    58    57    1
    74    88    86   ar
    75    74    73    1
    76    74    75    1
    77    86    85    1
    78    49    50    1
    79    50    53    1
    80    50    51    1
    81    75    76    2
    82    52    51    2
    83    85    82    1
    84    82    81    1
    85    82    83    1
    86    84    83    2
