@<TRIPOS>MOLECULE
tmp/6hqbF02.pdb
 84 77 0 0 0
SMALL
GASTEIGER

@<TRIPOS>ATOM
      1  N        -56.9660  -30.2150  -67.9630 N.3    83  GLY83      -0.1225
      2  CA       -56.5980  -31.0890  -66.8610 C.3    83  GLY83       0.1811
      3  C        -57.7430  -31.9700  -66.4010 C.2    83  GLY83       0.2280
      4  O        -57.5650  -33.1720  -66.1950 O.2    83  GLY83      -0.2866
      5  N        -58.5530  -34.6150  -69.1390 N.3    86  TYR86      -0.1227
      6  CA       -57.5410  -35.6680  -69.1640 C.3    86  TYR86       0.1736
      7  C        -57.6410  -36.5620  -67.9310 C.2    86  TYR86       0.2595
      8  O        -57.4440  -37.7830  -68.0200 O.2    86  TYR86      -0.2718
      9  CB       -56.1550  -35.0340  -69.2760 C.3    86  TYR86       0.0548
     10  CG       -55.0010  -35.9990  -69.1590 C.ar   86  TYR86      -0.0200
     11  CD1      -54.6750  -36.8570  -70.2000 C.ar   86  TYR86      -0.0009
     12  CD2      -54.2210  -36.0370  -68.0110 C.ar   86  TYR86      -0.0009
     13  CE1      -53.6090  -37.7380  -70.0950 C.ar   86  TYR86       0.0417
     14  CE2      -53.1540  -36.9070  -67.8990 C.ar   86  TYR86       0.0417
     15  CZ       -52.8520  -37.7580  -68.9390 C.ar   86  TYR86       0.1957
     16  OH       -51.7900  -38.6270  -68.8190 O.3    86  TYR86      -0.2866
     17  N        -57.9610  -35.9750  -66.7750 N.am   87  LEU87      -0.1980
     18  CA       -58.1690  -36.7660  -65.5690 C.3    87  LEU87       0.1596
     19  C        -59.3430  -37.7230  -65.7330 C.2    87  LEU87       0.2287
     20  O        -59.3070  -38.8520  -65.2320 O.2    87  LEU87      -0.2864
     21  CB       -58.3940  -35.8380  -64.3750 C.3    87  LEU87       0.0297
     22  CG       -58.5690  -36.4990  -63.0090 C.3    87  LEU87       0.0022
     23  CD1      -57.3300  -37.3010  -62.6570 C.3    87  LEU87       0.0001
     24  CD2      -58.8640  -35.4540  -61.9410 C.3    87  LEU87       0.0001
     25  N        -58.3010  -40.6170  -68.1290 N.3    90  ILE90      -0.1245
     26  CA       -57.4710  -41.6530  -67.5160 C.3    90  ILE90       0.1561
     27  C        -58.3270  -42.7100  -66.8210 C.2    90  ILE90       0.2260
     28  O        -57.9410  -43.8840  -66.7520 O.2    90  ILE90      -0.2867
     29  CB       -56.4570  -41.0200  -66.5430 C.3    90  ILE90       0.0252
     30  CG1      -55.4330  -40.1850  -67.3080 C.3    90  ILE90       0.0019
     31  CG2      -55.7390  -42.0860  -65.7290 C.3    90  ILE90       0.0019
     32  CD1      -54.2280  -39.8150  -66.4820 C.3    90  ILE90       0.0001
     33  N        -51.5330  -41.3770  -64.1040 N.3   100  GLU100     -0.1231
     34  CA       -51.4450  -40.0690  -63.4640 C.3   100  GLU100      0.1699
     35  C        -50.0200  -39.7510  -63.0360 C.2   100  GLU100      0.2592
     36  O        -49.6600  -38.5730  -62.9270 O.2   100  GLU100     -0.2718
     37  CB       -52.3800  -39.9970  -62.2540 C.3   100  GLU100      0.0402
     38  CG       -53.8390  -39.7910  -62.6150 C.3   100  GLU100      0.1161
     39  CD       -54.7240  -39.6560  -61.3960 C.2   100  GLU100      0.3649
     40  OE1      -55.9470  -39.8750  -61.5230 O.co2 100  GLU100     -0.2457
     41  OE2      -54.1940  -39.3340  -60.3120 O.co2 100  GLU100     -0.2457
     42  N        -49.2080  -40.7750  -62.7890 N.am  101  VAL101     -0.1980
     43  CA       -47.7910  -40.5770  -62.4860 C.3   101  VAL101      0.1595
     44  C        -46.9520  -40.5020  -63.7590 C.2   101  VAL101      0.2287
     45  O        -46.0990  -39.6220  -63.9020 O.2   101  VAL101     -0.2864
     46  CB       -47.2910  -41.6900  -61.5410 C.3   101  VAL101      0.0276
     47  CG1      -45.7860  -41.8340  -61.6410 C.3   101  VAL101      0.0022
     48  CG2      -47.6940  -41.3760  -60.1120 C.3   101  VAL101      0.0022
     49  N        -47.1220  -39.7450  -67.6630 N.3   103  ILE103     -0.1245
     50  CA       -48.0570  -39.0100  -68.5080 C.3   103  ILE103      0.1561
     51  C        -48.1720  -39.6890  -69.8660 C.2   103  ILE103      0.2260
     52  O        -47.1650  -40.0700  -70.4760 O.2   103  ILE103     -0.2867
     53  CB       -47.6200  -37.5440  -68.6530 C.3   103  ILE103      0.0252
     54  CG1      -47.7210  -36.8370  -67.3030 C.3   103  ILE103      0.0019
     55  CG2      -48.4630  -36.8260  -69.6990 C.3   103  ILE103      0.0019
     56  CD1      -49.0790  -36.9790  -66.6430 C.3   103  ILE103      0.0001
     57  N        -48.3770  -38.8440  -73.0960 N.3   105  VAL105     -0.1245
     58  CA       -48.1350  -37.6620  -73.9260 C.3   105  VAL105      0.1561
     59  C        -49.0140  -37.6370  -75.1720 C.2   105  VAL105      0.2260
     60  O        -49.6090  -36.5850  -75.4580 O.2   105  VAL105     -0.2867
     61  CB       -46.6350  -37.5450  -74.2490 C.3   105  VAL105      0.0252
     62  CG1      -46.3920  -36.4530  -75.2720 C.3   105  VAL105      0.0019
     63  CG2      -45.8460  -37.2670  -72.9830 C.3   105  VAL105      0.0019
     64  N        -52.3390  -36.5710  -73.5280 N.3   108  ALA108     -0.1231
     65  CA       -52.3170  -35.2590  -72.8930 C.3   108  ALA108      0.1694
     66  C        -52.2120  -34.1450  -73.9280 C.2   108  ALA108      0.2591
     67  O        -52.8890  -33.1180  -73.8120 O.2   108  ALA108     -0.2718
     68  CB       -51.1620  -35.1760  -71.8930 C.3   108  ALA108      0.0304
     69  N        -51.3820  -34.3330  -74.9570 N.am  109  ILE109     -0.1980
     70  CA       -51.2620  -33.3180  -76.0000 C.3   109  ILE109      0.1595
     71  C        -52.5530  -33.2200  -76.8040 C.2   109  ILE109      0.2287
     72  O        -53.0070  -32.1200  -77.1460 O.2   109  ILE109     -0.2864
     73  CB       -50.0510  -33.6170  -76.9020 C.3   109  ILE109      0.0276
     74  CG1      -48.7520  -33.4890  -76.1070 C.3   109  ILE109      0.0022
     75  CG2      -50.0350  -32.6840  -78.1040 C.3   109  ILE109      0.0022
     76  CD1      -47.5070  -33.5220  -76.9630 C.3   109  ILE109      0.0001
     77  N        -54.8100  -31.1920  -74.7450 N.3   112  MET112     -0.1245
     78  CA       -54.3990  -29.7950  -74.6380 C.3   112  MET112      0.1570
     79  C        -54.7450  -29.0190  -75.9020 C.2   112  MET112      0.2261
     80  O        -55.2070  -27.8750  -75.8280 O.2   112  MET112     -0.2867
     81  CB       -52.8980  -29.6950  -74.3630 C.3   112  MET112      0.0387
     82  CG       -52.4610  -30.1580  -72.9880 C.3   112  MET112      0.0595
     83  SD       -50.7140  -29.8100  -72.6960 S.3   112  MET112     -0.1393
     84  CE       -49.9840  -30.3960  -74.2230 C.3   112  MET112      0.0692
@<TRIPOS>BOND
     1    75    73    1
     2    72    71    2
     3    76    74    1
     4    73    74    1
     5    73    70    1
     6    71    70    1
     7    70    69    1
     8    79    80    2
     9    79    78    1
    10    60    59    2
    11    62    61    1
    12    59    58    1
    13    69    66   am
    14    77    78    1
    15    78    81    1
    16    81    82    1
    17    61    58    1
    18    61    63    1
    19    84    83    1
    20    66    67    2
    21    66    65    1
    22    58    57    1
    23    64    65    1
    24    82    83    1
    25    65    68    1
    26    52    51    2
    27    11    13   ar
    28    11    10   ar
    29    13    15   ar
    30    51    50    1
    31    55    53    1
    32     9     6    1
    33     9    10    1
    34     6     5    1
    35     6     7    1
    36    10    12   ar
    37    15    16    1
    38    15    14   ar
    39    53    50    1
    40    53    54    1
    41    50    49    1
    42    25    26    1
    43     8     7    2
    44    12    14   ar
    45     1     2    1
    46     7    17   am
    47    26    27    1
    48    26    29    1
    49    30    29    1
    50    30    32    1
    51    54    56    1
    52     2     3    1
    53    27    28    2
    54    17    18    1
    55    29    31    1
    56     3     4    2
    57    19    18    1
    58    19    20    2
    59    18    21    1
    60    21    22    1
    61    33    34    1
    62    45    44    2
    63    44    43    1
    64    34    35    1
    65    34    37    1
    66    35    36    2
    67    35    42   am
    68    22    23    1
    69    22    24    1
    70    42    43    1
    71    38    37    1
    72    38    39    1
    73    43    46    1
    74    47    46    1
    75    46    48    1
    76    40    39   ar
    77    39    41   ar
