@<TRIPOS>MOLECULE
tmp/6hqbB25.pdb
 207 202 0 0 0
SMALL
GASTEIGER

@<TRIPOS>ATOM
      1  N        -54.7980  -27.7280  -11.9580 N.3    25  ILE25      -0.1231
      2  CA       -54.9240  -26.2870  -12.1430 C.3    25  ILE25       0.1692
      3  C        -55.7100  -25.9600  -13.4050 C.2    25  ILE25       0.2591
      4  O        -56.6080  -25.1140  -13.3900 O.2    25  ILE25      -0.2718
      5  CB       -53.5230  -25.6430  -12.1750 C.3    25  ILE25       0.0266
      6  CG1      -52.7290  -26.0290  -10.9270 C.3    25  ILE25       0.0019
      7  CG2      -53.6350  -24.1370  -12.2990 C.3    25  ILE25       0.0020
      8  CD1      -51.2860  -25.5800  -10.9630 C.3    25  ILE25       0.0001
      9  N        -55.3850  -26.6340  -14.5130 N.am   26  ALA26      -0.1980
     10  CA       -56.0210  -26.3690  -15.7990 C.3    26  ALA26       0.1597
     11  C        -57.4710  -26.8280  -15.8570 C.2    26  ALA26       0.2287
     12  O        -58.1400  -26.5790  -16.8650 O.2    26  ALA26      -0.2864
     13  CB       -55.2270  -27.0360  -16.9240 C.3    26  ALA26       0.0319
     14  N        -59.5030  -26.0850  -13.0600 N.3    28  ALA28      -0.1231
     15  CA       -60.0660  -25.4160  -11.8940 C.3    28  ALA28       0.1694
     16  C        -61.4590  -24.8720  -12.1880 C.2    28  ALA28       0.2592
     17  O        -62.3950  -25.0690  -11.4050 O.2    28  ALA28      -0.2718
     18  CB       -59.1320  -24.2960  -11.4350 C.3    28  ALA28       0.0304
     19  N        -61.6180  -24.1920  -13.3210 N.am   29  HIS29      -0.1962
     20  CA       -62.8680  -23.5260  -13.6550 C.3    29  HIS29       0.1787
     21  C        -63.7550  -24.3450  -14.5800 C.2    29  HIS29       0.2620
     22  O        -64.8300  -23.8710  -14.9590 O.2    29  HIS29      -0.2715
     23  CB       -62.5820  -22.1630  -14.2880 C.3    29  HIS29       0.0785
     24  CG       -61.6640  -21.3060  -13.4760 C.ar   29  HIS29       0.0821
     25  ND1      -60.9260  -20.2780  -14.0230 N.ar   29  HIS29      -0.2267
     26  CD2      -61.3590  -21.3270  -12.1580 C.ar   29  HIS29       0.1154
     27  CE1      -60.2080  -19.7020  -13.0760 C.ar   29  HIS29       0.1986
     28  NE2      -60.4520  -20.3210  -11.9360 N.ar   29  HIS29      -0.2212
     29  N        -63.3370  -25.5540  -14.9560 N.am   30  ASP30      -0.1957
     30  CA       -64.1680  -26.4370  -15.7740 C.3    30  ASP30       0.1840
     31  C        -65.1590  -27.1360  -14.8460 C.2    30  ASP30       0.2622
     32  O        -65.0170  -28.3090  -14.4900 O.2    30  ASP30      -0.2715
     33  CB       -63.3080  -27.4300  -16.5460 C.3    30  ASP30       0.1450
     34  CG       -64.0710  -28.1160  -17.6650 C.2    30  ASP30       0.3671
     35  OD1      -65.2830  -27.8500  -17.8170 O.co2  30  ASP30      -0.2456
     36  OD2      -63.4560  -28.9180  -18.3990 O.co2  30  ASP30      -0.2456
     37  N        -66.1910  -26.3840  -14.4530 N.am   31  PHE31      -0.1960
     38  CA       -67.1340  -26.8760  -13.4540 C.3    31  PHE31       0.1771
     39  C        -67.9750  -28.0310  -13.9820 C.2    31  PHE31       0.2619
     40  O        -68.3940  -28.8940  -13.2030 O.2    31  PHE31      -0.2715
     41  CB       -68.0460  -25.7420  -12.9810 C.3    31  PHE31       0.0574
     42  CG       -67.3150  -24.5760  -12.3800 C.ar   31  PHE31      -0.0200
     43  CD1      -66.0830  -24.7460  -11.7720 C.ar   31  PHE31      -0.0042
     44  CD2      -67.8680  -23.3060  -12.4210 C.ar   31  PHE31      -0.0042
     45  CE1      -65.4150  -23.6700  -11.2190 C.ar   31  PHE31      -0.0003
     46  CE2      -67.2060  -22.2270  -11.8710 C.ar   31  PHE31      -0.0003
     47  CZ       -65.9780  -22.4090  -11.2690 C.ar   31  PHE31      -0.0000
     48  N        -68.2300  -28.0670  -15.2930 N.am   32  GLU32      -0.1977
     49  CA       -69.0770  -29.1110  -15.8590 C.3    32  GLU32       0.1602
     50  C        -68.4770  -30.5000  -15.6990 C.2    32  GLU32       0.2287
     51  O        -69.2220  -31.4870  -15.6840 O.2    32  GLU32      -0.2864
     52  CB       -69.3380  -28.8350  -17.3420 C.3    32  GLU32       0.0415
     53  CG       -70.2500  -27.6490  -17.6110 C.3    32  GLU32       0.1163
     54  CD       -70.5120  -27.4400  -19.0900 C.2    32  GLU32       0.3649
     55  OE1      -69.7140  -27.9360  -19.9130 O.co2  32  GLU32      -0.2457
     56  OE2      -71.5200  -26.7840  -19.4280 O.co2  32  GLU32      -0.2457
     57  N        -69.1900  -14.9210  -11.1040 N.3    50  HIS50      -0.1241
     58  CA       -69.5010  -13.6270  -11.7090 C.3    50  HIS50       0.1621
     59  C        -69.4650  -12.5080  -10.6780 C.2    50  HIS50       0.2264
     60  O        -68.9380  -11.4200  -10.9470 O.2    50  HIS50      -0.2867
     61  CB       -70.8750  -13.6680  -12.3720 C.3    50  HIS50       0.0745
     62  CG       -70.8930  -14.3720  -13.6880 C.ar   50  HIS50       0.0817
     63  ND1      -70.4350  -15.6620  -13.8480 N.ar   50  HIS50      -0.2268
     64  CD2      -71.3190  -13.9690  -14.9080 C.ar   50  HIS50       0.1154
     65  CE1      -70.5800  -16.0220  -15.1090 C.ar   50  HIS50       0.1986
     66  NE2      -71.1130  -15.0130  -15.7740 N.ar   50  HIS50      -0.2212
     67  N        -72.1300  -23.0670  -23.1940 N.3   329  HIS329     -0.1241
     68  CA       -71.0600  -22.8080  -24.1510 C.3   329  HIS329      0.1621
     69  C        -71.5750  -22.0400  -25.3620 C.2   329  HIS329      0.2264
     70  O        -70.8740  -21.1760  -25.8960 O.2   329  HIS329     -0.2867
     71  CB       -70.4060  -24.1200  -24.5780 C.3   329  HIS329      0.0745
     72  CG       -69.6820  -24.8170  -23.4690 C.ar  329  HIS329      0.0817
     73  ND1      -68.4890  -24.3560  -22.9560 N.ar  329  HIS329     -0.2268
     74  CD2      -69.9860  -25.9370  -22.7720 C.ar  329  HIS329      0.1154
     75  CE1      -68.0870  -25.1640  -21.9910 C.ar  329  HIS329      0.1986
     76  NE2      -68.9770  -26.1320  -21.8600 N.ar  329  HIS329     -0.2212
     77  N        -71.8710  -18.4570  -24.0730 N.3   332  LEU332     -0.1245
     78  CA       -70.5580  -17.8450  -23.9170 C.3   332  LEU332      0.1561
     79  C        -69.9210  -17.5490  -25.2700 C.2   332  LEU332      0.2260
     80  O        -69.2630  -16.5160  -25.4360 O.2   332  LEU332     -0.2867
     81  CB       -69.6570  -18.7490  -23.0750 C.3   332  LEU332      0.0270
     82  CG       -68.3670  -18.1110  -22.5620 C.3   332  LEU332      0.0019
     83  CD1      -68.6710  -16.7880  -21.8860 C.3   332  LEU332      0.0001
     84  CD2      -67.6600  -19.0460  -21.5990 C.3   332  LEU332      0.0001
     85  N        -68.9110  -13.7670  -26.2540 N.3   336  LEU336     -0.1245
     86  CA       -67.5310  -13.4330  -26.5940 C.3   336  LEU336      0.1561
     87  C        -67.4330  -12.8500  -27.9980 C.2   336  LEU336      0.2260
     88  O        -66.6750  -11.9020  -28.2290 O.2   336  LEU336     -0.2867
     89  CB       -66.6390  -14.6700  -26.4650 C.3   336  LEU336      0.0270
     90  CG       -66.2940  -15.1540  -25.0560 C.3   336  LEU336      0.0019
     91  CD1      -65.5210  -16.4580  -25.1200 C.3   336  LEU336      0.0001
     92  CD2      -65.4970  -14.1040  -24.3010 C.3   336  LEU336      0.0001
     93  N        -58.3390  -11.8370  -28.7950 N.3   379  PHE379     -0.1227
     94  CA       -58.5340  -12.9960  -27.9310 C.3   379  PHE379      0.1736
     95  C        -60.0160  -13.3410  -27.7910 C.2   379  PHE379      0.2595
     96  O        -60.3820  -14.5250  -27.7340 O.2   379  PHE379     -0.2718
     97  CB       -57.8960  -12.7470  -26.5680 C.3   379  PHE379      0.0547
     98  CG       -56.4050  -12.8960  -26.5710 C.ar  379  PHE379     -0.0202
     99  CD1      -55.8190  -14.1240  -26.3090 C.ar  379  PHE379     -0.0042
    100  CD2      -55.5860  -11.8140  -26.8520 C.ar  379  PHE379     -0.0042
    101  CE1      -54.4380  -14.2680  -26.3150 C.ar  379  PHE379     -0.0003
    102  CE2      -54.2060  -11.9490  -26.8620 C.ar  379  PHE379     -0.0003
    103  CZ       -53.6310  -13.1760  -26.5930 C.ar  379  PHE379     -0.0000
    104  N        -60.8790  -12.3200  -27.7560 N.am  380  LEU380     -0.1980
    105  CA       -62.3070  -12.5640  -27.5580 C.3   380  LEU380      0.1596
    106  C        -62.9070  -13.3800  -28.7000 C.2   380  LEU380      0.2287
    107  O        -63.7500  -14.2560  -28.4700 O.2   380  LEU380     -0.2864
    108  CB       -63.0530  -11.2370  -27.3960 C.3   380  LEU380      0.0297
    109  CG       -62.7250  -10.4250  -26.1380 C.3   380  LEU380      0.0022
    110  CD1      -63.6110   -9.1910  -26.0170 C.3   380  LEU380      0.0001
    111  CD2      -62.8260  -11.2890  -24.8880 C.3   380  LEU380      0.0001
    112  N        -61.3170  -15.5540  -30.8250 N.3   382  VAL382     -0.1231
    113  CA       -60.8350  -16.9270  -30.7290 C.3   382  VAL382      0.1692
    114  C        -61.5820  -17.6670  -29.6290 C.2   382  VAL382      0.2592
    115  O        -61.8880  -18.8570  -29.7600 O.2   382  VAL382     -0.2718
    116  CB       -59.3120  -16.9490  -30.5040 C.3   382  VAL382      0.0266
    117  CG1      -58.8020  -18.3700  -30.4750 C.3   382  VAL382      0.0020
    118  CG2      -58.6050  -16.1750  -31.5960 C.3   382  VAL382      0.0020
    119  N        -61.9060  -16.9730  -28.5370 N.am  383  GLY383     -0.1957
    120  CA       -62.7180  -17.5970  -27.5030 C.3   383  GLY383      0.1869
    121  C        -64.1200  -17.9250  -27.9750 C.2   383  GLY383      0.2309
    122  O        -64.6630  -18.9900  -27.6560 O.2   383  GLY383     -0.2863
    123  N        -63.6990  -21.0970  -29.9090 N.3   386  ALA386     -0.1231
    124  CA       -63.3390  -22.2370  -29.0770 C.3   386  ALA386      0.1694
    125  C        -64.5260  -22.7300  -28.2670 C.2   386  ALA386      0.2592
    126  O        -64.6330  -23.9300  -27.9980 O.2   386  ALA386     -0.2718
    127  CB       -62.1770  -21.8740  -28.1510 C.3   386  ALA386      0.0304
    128  N        -65.4320  -21.8310  -27.8790 N.am  387  HIS387     -0.1976
    129  CA       -66.6030  -22.2700  -27.1270 C.3   387  HIS387      0.1656
    130  C        -67.7040  -22.8190  -28.0280 C.2   387  HIS387      0.2291
    131  O        -68.4980  -23.6540  -27.5850 O.2   387  HIS387     -0.2864
    132  CB       -67.1340  -21.1280  -26.2630 C.3   387  HIS387      0.0771
    133  CG       -66.3590  -20.9310  -24.9990 C.ar  387  HIS387      0.0820
    134  ND1      -66.3670  -21.8520  -23.9730 N.ar  387  HIS387     -0.2267
    135  CD2      -65.5420  -19.9280  -24.5990 C.ar  387  HIS387      0.1154
    136  CE1      -65.5930  -21.4220  -22.9930 C.ar  387  HIS387      0.1986
    137  NE2      -65.0820  -20.2560  -23.3470 N.ar  387  HIS387     -0.2212
    138  N        -66.8820  -26.3240  -28.3610 N.3   390  ILE390     -0.1245
    139  CA       -67.2860  -27.0500  -27.1590 C.3   390  ILE390      0.1561
    140  C        -68.7940  -27.2600  -27.1290 C.2   390  ILE390      0.2260
    141  O        -69.2760  -28.2560  -26.5800 O.2   390  ILE390     -0.2867
    142  CB       -66.7970  -26.3160  -25.8970 C.3   390  ILE390      0.0252
    143  CG1      -65.2820  -26.1420  -25.9390 C.3   390  ILE390      0.0019
    144  CG2      -67.1730  -27.0910  -24.6470 C.3   390  ILE390      0.0019
    145  CD1      -64.7750  -25.0600  -25.0170 C.3   390  ILE390      0.0001
    146  N        -70.1860  -30.9640  -26.5820 N.3   394  ARG394     -0.1245
    147  CA       -70.8740  -31.3290  -25.3480 C.3   394  ARG394      0.1563
    148  C        -72.3690  -31.0380  -25.3380 C.2   394  ARG394      0.2260
    149  O        -73.1090  -31.7410  -24.6480 O.2   394  ARG394     -0.2867
    150  CB       -70.2400  -30.6090  -24.1480 C.3   394  ARG394      0.0307
    151  CG       -68.8540  -31.1000  -23.7520 C.3   394  ARG394      0.0489
    152  CD       -68.3430  -30.3270  -22.5360 C.3   394  ARG394      0.2205
    153  NE       -66.9040  -30.4850  -22.3310 N.pl3 394  ARG394     -0.0865
    154  CZ       -66.1880  -29.7820  -21.4550 C.cat 394  ARG394      0.5346
    155  NH1      -66.7730  -28.8640  -20.6960 N.pl3 394  ARG394      0.1354
    156  NH2      -64.8830  -29.9930  -21.3390 N.pl3 394  ARG394      0.1354
    157  N        -63.6120  -32.6300  -26.1660 N.3   552  TYR552     -0.1227
    158  CA       -63.0710  -31.4610  -26.8590 C.3   552  TYR552      0.1736
    159  C        -61.5520  -31.5510  -26.9750 C.2   552  TYR552      0.2596
    160  O        -61.0080  -31.7060  -28.0730 O.2   552  TYR552     -0.2718
    161  CB       -63.4970  -30.1810  -26.1310 C.3   552  TYR552      0.0548
    162  CG       -62.9490  -28.9080  -26.7390 C.ar  552  TYR552     -0.0200
    163  CD1      -63.4550  -28.4120  -27.9330 C.ar  552  TYR552     -0.0009
    164  CD2      -61.9320  -28.1980  -26.1150 C.ar  552  TYR552     -0.0009
    165  CE1      -62.9580  -27.2530  -28.4900 C.ar  552  TYR552      0.0417
    166  CE2      -61.4310  -27.0350  -26.6660 C.ar  552  TYR552      0.0417
    167  CZ       -61.9490  -26.5680  -27.8540 C.ar  552  TYR552      0.1957
    168  OH       -61.4570  -25.4130  -28.4110 O.3   552  TYR552     -0.2866
    169  N        -60.8540  -31.4650  -25.8470 N.am  553  SER553     -0.1952
    170  CA       -59.3980  -31.4320  -25.8200 C.3   553  SER553      0.1924
    171  C        -58.8560  -32.8110  -25.4660 C.2   553  SER553      0.2314
    172  O        -59.1310  -33.3320  -24.3800 O.2   553  SER553     -0.2863
    173  CB       -58.8980  -30.3920  -24.8180 C.3   553  SER553      0.2116
    174  OG       -57.4830  -30.4010  -24.7490 O.3   553  SER553     -0.2180
    175  N        -59.5390  -28.7650  -29.9100 N.3   570  TRP570     -0.1241
    176  CA       -58.6910  -27.8590  -29.1440 C.3   570  TRP570      0.1605
    177  C        -57.4280  -27.5070  -29.9200 C.2   570  TRP570      0.2264
    178  O        -56.9370  -26.3720  -29.8510 O.2   570  TRP570     -0.2867
    179  CB       -58.3400  -28.5080  -27.8060 C.3   570  TRP570      0.0550
    180  CG       -57.5300  -27.6580  -26.8930 C.ar  570  TRP570      0.0003
    181  CD1      -57.9920  -26.8930  -25.8670 C.ar  570  TRP570      0.0946
    182  CD2      -56.1050  -27.4910  -26.9090 C.ar  570  TRP570      0.0152
    183  NE1      -56.9480  -26.2520  -25.2450 N.ar  570  TRP570     -0.2442
    184  CE2      -55.7790  -26.6020  -25.8660 C.ar  570  TRP570      0.0810
    185  CE3      -55.0750  -28.0030  -27.7060 C.ar  570  TRP570      0.0012
    186  CZ2      -54.4650  -26.2120  -25.5980 C.ar  570  TRP570      0.0191
    187  CZ3      -53.7710  -27.6150  -27.4390 C.ar  570  TRP570      0.0001
    188  CH2      -53.4780  -26.7290  -26.3940 C.ar  570  TRP570      0.0015
    189  N        -57.9830  -24.6110  -32.2570 N.3   573  PHE573     -0.1241
    190  CA       -57.8380  -23.3560  -31.5260 C.3   573  PHE573      0.1605
    191  C        -56.3680  -23.0140  -31.3210 C.2   573  PHE573      0.2264
    192  O        -55.9510  -21.8610  -31.5010 O.2   573  PHE573     -0.2867
    193  CB       -58.5690  -23.4620  -30.1840 C.3   573  PHE573      0.0534
    194  CG       -57.9570  -22.6370  -29.0830 C.ar  573  PHE573     -0.0203
    195  CD1      -58.4110  -21.3550  -28.8370 C.ar  573  PHE573     -0.0042
    196  CD2      -56.9410  -23.1500  -28.2810 C.ar  573  PHE573     -0.0042
    197  CE1      -57.8570  -20.5910  -27.8300 C.ar  573  PHE573     -0.0003
    198  CE2      -56.3760  -22.3890  -27.2760 C.ar  573  PHE573     -0.0003
    199  CZ       -56.8400  -21.1080  -27.0470 C.ar  573  PHE573     -0.0000
    200  N        -54.6590  -19.5850  -32.8970 N.3   577  MET577     -0.1245
    201  CA       -54.0660  -18.5490  -32.0540 C.3   577  MET577      0.1570
    202  C        -52.8960  -17.8650  -32.7530 C.2   577  MET577      0.2261
    203  O        -52.7500  -16.6360  -32.6840 O.2   577  MET577     -0.2867
    204  CB       -53.6160  -19.1520  -30.7260 C.3   577  MET577      0.0387
    205  CG       -54.7510  -19.4210  -29.7630 C.3   577  MET577      0.0595
    206  SD       -55.4070  -17.8850  -29.0980 S.3   577  MET577     -0.1393
    207  CE       -53.9440  -17.2220  -28.3030 C.3   577  MET577      0.0692
@<TRIPOS>BOND
     1   200   201    1
     2   202   203    2
     3   202   201    1
     4   189   190    1
     5   201   204    1
     6   118   116    1
     7   190   191    1
     8   190   193    1
     9   192   191    2
    10   112   113    1
    11   113   116    1
    12   113   114    1
    13   204   205    1
    14   116   117    1
    15   193   194    1
    16   177   178    2
    17   177   176    1
    18   175   176    1
    19   123   124    1
    20   205   206    1
    21   115   114    2
    22   114   119   am
    23   176   179    1
    24   206   207    1
    25   194   195   ar
    26   194   196   ar
    27   124   125    1
    28   124   127    1
    29   195   197   ar
    30    93    94    1
    31   106   107    2
    32   106   105    1
    33   119   120    1
    34   165   163   ar
    35   165   167   ar
    36   168   167    1
    37   138   139    1
    38   196   198   ar
    39   125   126    2
    40   125   128   am
    41    88    87    2
    42   160   159    2
    43   130   131    2
    44   130   129    1
    45    87    86    1
    46   121   122    2
    47   121   120    1
    48   163   162   ar
    49    94    95    1
    50    94    97    1
    51   128   129    1
    52   167   166   ar
    53   197   199   ar
    54   179   180    1
    55    95   104   am
    56    95    96    2
    57   104   105    1
    58   185   187   ar
    59   185   182   ar
    60   105   108    1
    61   187   188   ar
    62   108   109    1
    63   198   199   ar
    64   139   140    1
    65   139   142    1
    66   140   141    2
    67   129   132    1
    68   159   158    1
    69   159   169   am
    70   182   180   ar
    71   182   184   ar
    72   180   181   ar
    73   102   100   ar
    74   102   103   ar
    75   158   157    1
    76   158   161    1
    77   100    98   ar
    78   162   161    1
    79   162   164   ar
    80   166   164   ar
    81    86    89    1
    82    86    85    1
    83   103   101   ar
    84   146   147    1
    85    98    97    1
    86    98    99   ar
    87    89    90    1
    88   188   186   ar
    89   101    99   ar
    90   132   133    1
    91   109   110    1
    92   109   111    1
    93   143   142    1
    94   143   145    1
    95   142   144    1
    96    70    69    2
    97   181   183   ar
    98   184   186   ar
    99   184   183   ar
   100   169   170    1
   101   170   171    1
   102   170   173    1
   103   171   172    2
   104    80    79    2
   105    69    68    1
   106   147   148    1
   107   147   150    1
   108   148   149    2
   109    79    78    1
   110    91    90    1
   111    90    92    1
   112   133   135   ar
   113   133   134   ar
   114   173   174    1
   115   135   137   ar
   116    71    68    1
   117    71    72    1
   118    68    67    1
   119   150   151    1
   120    77    78    1
   121   134   136   ar
   122    78    81    1
   123   151   152    1
   124    72    73   ar
   125    72    74   ar
   126   137   136   ar
   127    81    82    1
   128    73    75   ar
   129    74    76   ar
   130    82    83    1
   131    82    84    1
   132   152   153    1
   133   153   154    2
   134    75    76   ar
   135   154   156    1
   136   154   155    1
   137    55    54   ar
   138    56    54   ar
   139    54    53    1
   140    36    34   ar
   141    35    34   ar
   142    34    33    1
   143    53    52    1
   144    52    49    1
   145    13    10    1
   146    12    11    2
   147    33    30    1
   148    49    50    1
   149    49    48    1
   150    11    10    1
   151    10     9    1
   152    66    65   ar
   153    66    64   ar
   154    30    29    1
   155    30    31    1
   156    50    51    2
   157    48    39   am
   158    65    63   ar
   159    22    21    2
   160    29    21   am
   161    64    62   ar
   162    31    32    2
   163    31    37   am
   164    21    20    1
   165     9     3   am
   166    37    38    1
   167    23    20    1
   168    23    24    1
   169    25    24   ar
   170    25    27   ar
   171    39    38    1
   172    39    40    2
   173    63    62   ar
   174    62    61    1
   175    20    19    1
   176    24    26   ar
   177    38    41    1
   178     3     4    2
   179     3     2    1
   180    19    16   am
   181    27    28   ar
   182    14    15    1
   183    41    42    1
   184    44    42   ar
   185    44    46   ar
   186    42    43   ar
   187    61    58    1
   188     7     5    1
   189    16    15    1
   190    16    17    2
   191     5     2    1
   192     5     6    1
   193    26    28   ar
   194     2     1    1
   195    15    18    1
   196    46    47   ar
   197    43    45   ar
   198    58    57    1
   199    58    59    1
   200    47    45   ar
   201     8     6    1
   202    60    59    2
