@<TRIPOS>MOLECULE
tmp/6hqbB26.pdb
 83 79 0 0 0
SMALL
GASTEIGER

@<TRIPOS>ATOM
      1  N        -86.2090  -22.7840  -48.0440 N.3   312  LEU312     -0.1231
      2  CA       -84.8780  -23.2670  -48.3730 C.3   312  LEU312      0.1693
      3  C        -84.0770  -23.6570  -47.1390 C.2   312  LEU312      0.2592
      4  O        -82.9600  -24.1660  -47.2770 O.2   312  LEU312     -0.2718
      5  CB       -84.1180  -22.2020  -49.1710 C.3   312  LEU312      0.0284
      6  CG       -84.9200  -21.5320  -50.2900 C.3   312  LEU312      0.0019
      7  CD1      -84.0680  -20.5090  -51.0220 C.3   312  LEU312      0.0001
      8  CD2      -85.4710  -22.5670  -51.2580 C.3   312  LEU312      0.0001
      9  N        -84.6200  -23.4370  -45.9410 N.am  313  THR313     -0.1953
     10  CA       -83.9270  -23.7320  -44.6940 C.3   313  THR313      0.1897
     11  C        -84.6620  -24.7610  -43.8440 C.2   313  THR313      0.2313
     12  O        -84.2440  -25.0270  -42.7110 O.2   313  THR313     -0.2863
     13  CB       -83.7170  -22.4470  -43.8880 C.3   313  THR313      0.1794
     14  OG1      -84.9840  -21.8220  -43.6470 O.3   313  THR313     -0.2208
     15  CG2      -82.8210  -21.4870  -44.6540 C.3   313  THR313      0.0378
     16  N        -81.6110  -24.5330  -39.0520 N.3   405  VAL405     -0.1245
     17  CA       -80.5040  -23.8360  -39.6940 C.3   405  VAL405      0.1561
     18  C        -79.1590  -24.2490  -39.1130 C.2   405  VAL405      0.2260
     19  O        -78.1290  -24.0880  -39.7750 O.2   405  VAL405     -0.2867
     20  CB       -80.6930  -22.3120  -39.5890 C.3   405  VAL405      0.0252
     21  CG1      -81.8880  -21.8710  -40.4150 C.3   405  VAL405      0.0019
     22  CG2      -80.8660  -21.8980  -38.1370 C.3   405  VAL405      0.0019
     23  N        -78.1630  -27.8690  -40.7810 N.3   408  ARG408     -0.1231
     24  CA       -77.7890  -27.7140  -42.1830 C.3   408  ARG408      0.1694
     25  C        -76.3660  -27.1860  -42.3280 C.2   408  ARG408      0.2591
     26  O        -75.7020  -27.4740  -43.3300 O.2   408  ARG408     -0.2718
     27  CB       -78.7840  -26.8000  -42.8940 C.3   408  ARG408      0.0321
     28  CG       -80.1790  -27.3880  -42.9930 C.3   408  ARG408      0.0489
     29  CD       -81.1350  -26.4330  -43.6820 C.3   408  ARG408      0.2205
     30  NE       -82.4560  -27.0260  -43.8770 N.pl3 408  ARG408     -0.0865
     31  CZ       -82.8330  -27.6670  -44.9790 C.cat 408  ARG408      0.5346
     32  NH1      -84.0550  -28.1750  -45.0680 N.pl3 408  ARG408      0.1354
     33  NH2      -81.9900  -27.8020  -45.9930 N.pl3 408  ARG408      0.1354
     34  N        -75.8810  -26.4220  -41.3440 N.am  409  MET409     -0.1979
     35  CA       -74.4780  -26.0170  -41.3510 C.3   409  MET409      0.1605
     36  C        -73.5620  -27.2300  -41.2870 C.2   409  MET409      0.2287
     37  O        -72.5220  -27.2730  -41.9560 O.2   409  MET409     -0.2864
     38  CB       -74.1910  -25.0680  -40.1870 C.3   409  MET409      0.0413
     39  CG       -75.0090  -23.7860  -40.2030 C.3   409  MET409      0.0598
     40  SD       -74.9280  -22.8760  -41.7630 S.3   409  MET409     -0.1393
     41  CE       -73.1800  -22.5020  -41.8610 C.3   409  MET409      0.0692
     42  N        -74.5020  -30.1990  -42.3280 N.3   411  GLU411     -0.1231
     43  CA       -74.7540  -31.0170  -43.5100 C.3   411  GLU411      0.1699
     44  C        -73.9170  -30.5790  -44.7050 C.2   411  GLU411      0.2592
     45  O        -73.5930  -31.4090  -45.5620 O.2   411  GLU411     -0.2718
     46  CB       -76.2400  -30.9900  -43.8660 C.3   411  GLU411      0.0402
     47  CG       -77.0800  -31.9460  -43.0390 C.3   411  GLU411      0.1161
     48  CD       -76.7800  -33.4010  -43.3490 C.2   411  GLU411      0.3649
     49  OE1      -76.3320  -33.6900  -44.4780 O.co2 411  GLU411     -0.2457
     50  OE2      -76.9890  -34.2570  -42.4630 O.co2 411  GLU411     -0.2457
     51  N        -73.5570  -29.2980  -44.7890 N.am  412  HIS412     -0.1976
     52  CA       -72.7560  -28.7860  -45.8970 C.3   412  HIS412      0.1656
     53  C        -71.4550  -28.1580  -45.3960 C.2   412  HIS412      0.2291
     54  O        -70.9680  -27.1650  -45.9420 O.2   412  HIS412     -0.2864
     55  CB       -73.5620  -27.8000  -46.7480 C.3   412  HIS412      0.0771
     56  CG       -73.7960  -26.4690  -46.0990 C.ar  412  HIS412      0.0820
     57  ND1      -74.7060  -26.2820  -45.0800 N.ar  412  HIS412     -0.2267
     58  CD2      -73.2500  -25.2530  -46.3420 C.ar  412  HIS412      0.1154
     59  CE1      -74.7000  -25.0110  -44.7160 C.ar  412  HIS412      0.1986
     60  NE2      -73.8240  -24.3660  -45.4640 N.ar  412  HIS412     -0.2212
     61  N        -68.4710  -27.9340  -47.9580 N.3   415  ALA415     -0.1231
     62  CA       -68.5150  -26.8080  -48.8880 C.3   415  ALA415      0.1694
     63  C        -68.0630  -25.5120  -48.2220 C.2   415  ALA415      0.2591
     64  O        -67.3300  -24.7200  -48.8290 O.2   415  ALA415     -0.2718
     65  CB       -69.9250  -26.6560  -49.4560 C.3   415  ALA415      0.0304
     66  N        -68.4960  -25.2770  -46.9780 N.am  416  LEU416     -0.1980
     67  CA       -68.0750  -24.0830  -46.2450 C.3   416  LEU416      0.1596
     68  C        -66.5600  -24.0320  -46.1090 C.2   416  LEU416      0.2287
     69  O        -65.9230  -23.0280  -46.4610 O.2   416  LEU416     -0.2864
     70  CB       -68.7350  -24.0570  -44.8640 C.3   416  LEU416      0.0297
     71  CG       -70.2650  -24.0880  -44.8040 C.3   416  LEU416      0.0022
     72  CD1      -70.7350  -24.7570  -43.5260 C.3   416  LEU416      0.0001
     73  CD2      -70.8450  -22.6870  -44.9040 C.3   416  LEU416      0.0001
     74  N        -64.7640  -23.5290  -49.5720 N.3   419  HIS419     -0.1241
     75  CA       -64.7840  -22.1750  -50.1140 C.3   419  HIS419      0.1621
     76  C        -63.9630  -21.2140  -49.2630 C.2   419  HIS419      0.2264
     77  O        -63.3660  -20.2710  -49.8000 O.2   419  HIS419     -0.2867
     78  CB       -66.2250  -21.6880  -50.2650 C.3   419  HIS419      0.0745
     79  CG       -66.9600  -22.3530  -51.3870 C.ar  419  HIS419      0.0817
     80  ND1      -67.4370  -23.6430  -51.3010 N.ar  419  HIS419     -0.2268
     81  CD2      -67.2730  -21.9180  -52.6300 C.ar  419  HIS419      0.1154
     82  CE1      -68.0250  -23.9680  -52.4390 C.ar  419  HIS419      0.1986
     83  NE2      -67.9380  -22.9390  -53.2610 N.ar  419  HIS419     -0.2212
@<TRIPOS>BOND
     1    83    81   ar
     2    83    82   ar
     3    81    79   ar
     4    82    80   ar
     5    79    80   ar
     6    79    78    1
     7     8     6    1
     8     7     6    1
     9     6     5    1
    10    78    75    1
    11    75    74    1
    12    75    76    1
    13    77    76    2
    14    65    62    1
    15     5     2    1
    16    62    63    1
    17    62    61    1
    18    64    63    2
    19     2     1    1
    20     2     3    1
    21    63    66   am
    22     4     3    2
    23     3     9   am
    24    66    67    1
    25    55    56    1
    26    55    52    1
    27    69    68    2
    28    58    56   ar
    29    58    60   ar
    30    67    68    1
    31    67    70    1
    32    56    57   ar
    33    33    31    1
    34    54    53    2
    35     9    10    1
    36    52    53    1
    37    52    51    1
    38    45    44    2
    39    60    59   ar
    40    57    59   ar
    41    32    31    1
    42    31    30    2
    43    73    71    1
    44    70    71    1
    45    71    72    1
    46    51    44   am
    47    44    43    1
    48    10    13    1
    49    10    11    1
    50    15    13    1
    51    49    48   ar
    52    13    14    1
    53    30    29    1
    54    46    43    1
    55    46    47    1
    56    11    12    2
    57    29    28    1
    58    43    42    1
    59    48    47    1
    60    48    50   ar
    61    26    25    2
    62    28    27    1
    63    27    24    1
    64    25    24    1
    65    25    34   am
    66    24    23    1
    67    37    36    2
    68    41    40    1
    69    40    39    1
    70    35    34    1
    71    35    36    1
    72    35    38    1
    73    21    20    1
    74    39    38    1
    75    19    18    2
    76    17    20    1
    77    17    18    1
    78    17    16    1
    79    20    22    1
