@<TRIPOS>MOLECULE
tmp/6hqbB09.pdb
 161 161 0 0 0
SMALL
GASTEIGER

@<TRIPOS>ATOM
      1  N        -72.4650  -18.2680  -11.0710 N.3    47  PHE47      -0.1241
      2  CA       -73.0300  -17.0030  -10.6100 C.3    47  PHE47       0.1605
      3  C        -72.1380  -16.3540   -9.5560 C.2    47  PHE47       0.2264
      4  O        -71.8390  -15.1520   -9.6190 O.2    47  PHE47      -0.2867
      5  CB       -74.4290  -17.2610  -10.0470 C.3    47  PHE47       0.0534
      6  CG       -75.3210  -16.0570  -10.0280 C.ar   47  PHE47      -0.0203
      7  CD1      -75.0210  -14.9350  -10.7790 C.ar   47  PHE47      -0.0042
      8  CD2      -76.4680  -16.0520   -9.2510 C.ar   47  PHE47      -0.0042
      9  CE1      -75.8530  -13.8310  -10.7580 C.ar   47  PHE47      -0.0003
     10  CE2      -77.3010  -14.9540   -9.2230 C.ar   47  PHE47      -0.0003
     11  CZ       -76.9930  -13.8400   -9.9780 C.ar   47  PHE47      -0.0000
     12  N        -69.1900  -14.9210  -11.1040 N.3    50  HIS50      -0.1226
     13  CA       -69.5010  -13.6270  -11.7090 C.3    50  HIS50       0.1752
     14  C        -69.4650  -12.5080  -10.6780 C.2    50  HIS50       0.2596
     15  O        -68.9380  -11.4200  -10.9470 O.2    50  HIS50      -0.2718
     16  CB       -70.8750  -13.6680  -12.3720 C.3    50  HIS50       0.0759
     17  CG       -70.8930  -14.3720  -13.6880 C.ar   50  HIS50       0.0818
     18  ND1      -70.4350  -15.6620  -13.8480 N.ar   50  HIS50      -0.2268
     19  CD2      -71.3190  -13.9690  -14.9080 C.ar   50  HIS50       0.1154
     20  CE1      -70.5800  -16.0220  -15.1090 C.ar   50  HIS50       0.1986
     21  NE2      -71.1130  -15.0130  -15.7740 N.ar   50  HIS50      -0.2212
     22  N        -70.0580  -12.7450   -9.5050 N.am   51  PHE51      -0.1976
     23  CA       -70.0200  -11.7400   -8.4420 C.3    51  PHE51       0.1639
     24  C        -68.5820  -11.3970   -8.0610 C.2    51  PHE51       0.2290
     25  O        -68.1910  -10.2180   -8.0240 O.2    51  PHE51      -0.2864
     26  CB       -70.7910  -12.2330   -7.2160 C.3    51  PHE51       0.0560
     27  CG       -72.2840  -12.1730   -7.3690 C.ar   51  PHE51      -0.0200
     28  CD1      -72.9460  -10.9580   -7.3440 C.ar   51  PHE51      -0.0042
     29  CD2      -73.0270  -13.3340   -7.5190 C.ar   51  PHE51      -0.0042
     30  CE1      -74.3200  -10.9010   -7.4770 C.ar   51  PHE51      -0.0003
     31  CE2      -74.4010  -13.2840   -7.6540 C.ar   51  PHE51      -0.0003
     32  CZ       -75.0490  -12.0650   -7.6340 C.ar   51  PHE51      -0.0000
     33  N        -66.8900   -9.3200  -10.9010 N.3    54  ILE54      -0.1245
     34  CA       -67.2770   -7.9130  -10.8640 C.3    54  ILE54       0.1561
     35  C        -66.5180   -7.1970   -9.7550 C.2    54  ILE54       0.2260
     36  O        -66.0080   -6.0800   -9.9410 O.2    54  ILE54      -0.2867
     37  CB       -68.8010   -7.7780  -10.6890 C.3    54  ILE54       0.0252
     38  CG1      -69.5330   -8.3340  -11.9110 C.3    54  ILE54       0.0019
     39  CG2      -69.1850   -6.3290  -10.4510 C.3    54  ILE54       0.0019
     40  CD1      -71.0400   -8.2210  -11.8250 C.3    54  ILE54       0.0001
     41  N        -63.8190   -4.0590  -10.1790 N.3    58  PHE58      -0.1241
     42  CA       -63.9640   -2.8110   -9.4380 C.3    58  PHE58       0.1605
     43  C        -62.7620   -2.5430   -8.5380 C.2    58  PHE58       0.2264
     44  O        -62.3800   -1.3840   -8.3540 O.2    58  PHE58      -0.2867
     45  CB       -65.2630   -2.8250   -8.6360 C.3    58  PHE58       0.0534
     46  CG       -66.4980   -2.7120   -9.4890 C.ar   58  PHE58      -0.0203
     47  CD1      -66.4050   -2.3330  -10.8200 C.ar   58  PHE58      -0.0042
     48  CD2      -67.7510   -2.9800   -8.9630 C.ar   58  PHE58      -0.0042
     49  CE1      -67.5370   -2.2270  -11.6110 C.ar   58  PHE58      -0.0003
     50  CE2      -68.8890   -2.8730   -9.7490 C.ar   58  PHE58      -0.0003
     51  CZ       -68.7810   -2.4970  -11.0740 C.ar   58  PHE58      -0.0000
     52  N        -70.3970   -6.5750   -3.8370 N.3   149  PHE149     -0.1241
     53  CA       -70.5760   -7.6970   -4.7580 C.3   149  PHE149      0.1605
     54  C        -69.9940   -8.9950   -4.2040 C.2   149  PHE149      0.2264
     55  O        -70.5540  -10.0770   -4.4400 O.2   149  PHE149     -0.2867
     56  CB       -69.9710   -7.3640   -6.1190 C.3   149  PHE149      0.0534
     57  CG       -70.9180   -6.6380   -7.0300 C.ar  149  PHE149     -0.0203
     58  CD1      -71.7250   -7.3390   -7.9110 C.ar  149  PHE149     -0.0042
     59  CD2      -71.0170   -5.2570   -6.9910 C.ar  149  PHE149     -0.0042
     60  CE1      -72.6050   -6.6750   -8.7450 C.ar  149  PHE149     -0.0003
     61  CE2      -71.8950   -4.5880   -7.8220 C.ar  149  PHE149     -0.0003
     62  CZ       -72.6900   -5.2980   -8.6990 C.ar  149  PHE149     -0.0000
     63  N        -84.7390  -20.2290  -12.5110 N.3   167  TRP167     -0.1227
     64  CA       -84.4110  -18.8080  -12.5020 C.3   167  TRP167      0.1737
     65  C        -83.2480  -18.5100  -13.4390 C.2   167  TRP167      0.2595
     66  O        -83.2670  -17.5070  -14.1620 O.2   167  TRP167     -0.2718
     67  CB       -84.0880  -18.3490  -11.0790 C.3   167  TRP167      0.0564
     68  CG       -83.6640  -16.9130  -10.9940 C.ar  167  TRP167      0.0003
     69  CD1      -84.4690  -15.8300  -10.7900 C.ar  167  TRP167      0.0946
     70  CD2      -82.3290  -16.4030  -11.1110 C.ar  167  TRP167      0.0152
     71  NE1      -83.7190  -14.6790  -10.7740 N.ar  167  TRP167     -0.2442
     72  CE2      -82.4030  -15.0040  -10.9720 C.ar  167  TRP167      0.0810
     73  CE3      -81.0810  -16.9940  -11.3250 C.ar  167  TRP167      0.0012
     74  CZ2      -81.2740  -14.1880  -11.0310 C.ar  167  TRP167      0.0191
     75  CZ3      -79.9630  -16.1810  -11.3860 C.ar  167  TRP167      0.0001
     76  CH2      -80.0680  -14.7950  -11.2400 C.ar  167  TRP167      0.0015
     77  N        -82.2250  -19.3680  -13.4380 N.am  168  PHE168     -0.1976
     78  CA       -81.1020  -19.1740  -14.3490 C.3   168  PHE168      0.1639
     79  C        -81.5320  -19.3480  -15.8000 C.2   168  PHE168      0.2290
     80  O        -81.0630  -18.6200  -16.6830 O.2   168  PHE168     -0.2864
     81  CB       -79.9700  -20.1430  -14.0100 C.3   168  PHE168      0.0560
     82  CG       -79.1770  -19.7530  -12.7960 C.ar  168  PHE168     -0.0200
     83  CD1      -78.1850  -18.7910  -12.8810 C.ar  168  PHE168     -0.0042
     84  CD2      -79.4130  -20.3600  -11.5740 C.ar  168  PHE168     -0.0042
     85  CE1      -77.4490  -18.4350  -11.7680 C.ar  168  PHE168     -0.0003
     86  CE2      -78.6820  -20.0100  -10.4580 C.ar  168  PHE168     -0.0003
     87  CZ       -77.6990  -19.0460  -10.5540 C.ar  168  PHE168     -0.0000
     88  N        -84.0820  -18.4190  -17.3620 N.3   170  ASN170     -0.1240
     89  CA       -85.1000  -17.4440  -17.7380 C.3   170  ASN170      0.1653
     90  C        -84.4560  -16.4460  -18.6920 C.2   170  ASN170      0.2266
     91  O        -83.6030  -15.6490  -18.2830 O.2   170  ASN170     -0.2867
     92  CB       -85.6730  -16.7440  -16.5070 C.3   170  ASN170      0.1155
     93  CG       -86.9150  -15.9230  -16.8210 C.2   170  ASN170      0.2627
     94  OD1      -87.0990  -15.4500  -17.9430 O.2   170  ASN170     -0.2716
     95  ND2      -87.7750  -15.7510  -15.8240 N.am  170  ASN170     -0.0877
     96  N        -86.8650  -12.5780  -19.2480 N.3   173  SER173     -0.1202
     97  CA       -86.7900  -11.5790  -18.1880 C.3   173  SER173      0.2020
     98  C        -85.4020  -10.9880  -18.0190 C.2   173  SER173      0.2618
     99  O        -85.2710   -9.7840  -17.7650 O.2   173  SER173     -0.2717
    100  CB       -87.2390  -12.1900  -16.8560 C.3   173  SER173      0.2103
    101  OG       -86.9500  -11.3170  -15.7790 O.3   173  SER173     -0.2182
    102  N        -84.3620  -11.8170  -18.1440 N.am  174  ARG174     -0.1979
    103  CA       -82.9940  -11.3170  -18.0600 C.3   174  ARG174      0.1597
    104  C        -82.7420  -10.2460  -19.1110 C.2   174  ARG174      0.2287
    105  O        -82.0670   -9.2470  -18.8400 O.2   174  ARG174     -0.2864
    106  CB       -82.0080  -12.4770  -18.2110 C.3   174  ARG174      0.0334
    107  CG       -80.6150  -12.2010  -17.6670 C.3   174  ARG174      0.0492
    108  CD       -79.9360  -13.4920  -17.2200 C.3   174  ARG174      0.2205
    109  NE       -79.6250  -14.3870  -18.3310 N.pl3 174  ARG174     -0.0865
    110  CZ       -79.2150  -15.6440  -18.1840 C.cat 174  ARG174      0.5346
    111  NH1      -79.0740  -16.1610  -16.9720 N.pl3 174  ARG174      0.1354
    112  NH2      -78.9500  -16.3880  -19.2490 N.pl3 174  ARG174      0.1354
    113  N        -84.5960   -6.9630  -18.3160 N.3   177  HIS177     -0.1226
    114  CA       -83.9490   -6.2410  -17.2280 C.3   177  HIS177      0.1752
    115  C        -82.5860   -5.6820  -17.6210 C.2   177  HIS177      0.2596
    116  O        -82.2200   -4.5880  -17.1790 O.2   177  HIS177     -0.2718
    117  CB       -83.8120   -7.1460  -16.0050 C.3   177  HIS177      0.0759
    118  CG       -85.1110   -7.4310  -15.3220 C.ar  177  HIS177      0.0818
    119  ND1      -85.9990   -8.3790  -15.7800 N.ar  177  HIS177     -0.2268
    120  CD2      -85.6790   -6.8830  -14.2220 C.ar  177  HIS177      0.1154
    121  CE1      -87.0560   -8.4080  -14.9880 C.ar  177  HIS177      0.1986
    122  NE2      -86.8870   -7.5100  -14.0360 N.ar  177  HIS177     -0.2212
    123  N        -81.8240   -6.4040  -18.4460 N.am  178  HIS178     -0.1975
    124  CA       -80.5180   -5.9050  -18.8600 C.3   178  HIS178      0.1656
    125  C        -80.6380   -4.7380  -19.8300 C.2   178  HIS178      0.2291
    126  O        -79.7520   -3.8760  -19.8700 O.2   178  HIS178     -0.2864
    127  CB       -79.6980   -7.0270  -19.4940 C.3   178  HIS178      0.0771
    128  CG       -79.1830   -8.0300  -18.5100 C.ar  178  HIS178      0.0820
    129  ND1      -78.3240   -9.0460  -18.8670 N.ar  178  HIS178     -0.2267
    130  CD2      -79.4030   -8.1730  -17.1830 C.ar  178  HIS178      0.1154
    131  CE1      -78.0360   -9.7720  -17.8030 C.ar  178  HIS178      0.1986
    132  NE2      -78.6800   -9.2650  -16.7680 N.ar  178  HIS178     -0.2212
    133  N        -82.7780   -1.6160  -17.7100 N.3   181  GLY181     -0.1210
    134  CA       -82.1140   -1.1740  -16.5000 C.3   181  GLY181      0.1956
    135  C        -80.6030   -1.1320  -16.6010 C.2   181  GLY181      0.2612
    136  O        -79.9860   -0.0950  -16.3370 O.2   181  GLY181     -0.2717
    137  N        -79.9920   -2.2580  -16.9780 N.am  182  LEU182     -0.1965
    138  CA       -78.5370   -2.3170  -17.0560 C.3   182  LEU182      0.1728
    139  C        -78.0030   -1.5080  -18.2310 C.2   182  LEU182      0.2616
    140  O        -76.8580   -1.0430  -18.1920 O.2   182  LEU182     -0.2715
    141  CB       -78.0760   -3.7710  -17.1510 C.3   182  LEU182      0.0311
    142  CG       -76.5690   -4.0200  -17.1780 C.3   182  LEU182      0.0022
    143  CD1      -75.9140   -3.4680  -15.9220 C.3   182  LEU182      0.0001
    144  CD2      -76.2850   -5.5020  -17.3320 C.3   182  LEU182      0.0001
    145  N        -78.8070   -1.3260  -19.2750 N.am  183  PHE183     -0.1974
    146  CA       -78.4160   -0.5310  -20.4310 C.3   183  PHE183      0.1639
    147  C        -79.1430    0.8030  -20.5030 C.2   183  PHE183      0.2290
    148  O        -78.5100    1.8390  -20.7270 O.2   183  PHE183     -0.2864
    149  CB       -78.6510   -1.3240  -21.7250 C.3   183  PHE183      0.0560
    150  CG       -77.6030   -2.3690  -21.9970 C.ar  183  PHE183     -0.0200
    151  CD1      -76.4220   -2.3940  -21.2710 C.ar  183  PHE183     -0.0042
    152  CD2      -77.7950   -3.3220  -22.9850 C.ar  183  PHE183     -0.0042
    153  CE1      -75.4550   -3.3540  -21.5200 C.ar  183  PHE183     -0.0003
    154  CE2      -76.8310   -4.2840  -23.2390 C.ar  183  PHE183     -0.0003
    155  CZ       -75.6600   -4.2990  -22.5050 C.ar  183  PHE183     -0.0000
    156  N        -78.8410    2.7990  -16.8700 N.3   186  SER186     -0.1217
    157  CA       -77.4340    3.1540  -16.7030 C.3   186  SER186      0.1889
    158  C        -77.0420    4.2920  -17.6360 C.2   186  SER186      0.2288
    159  O        -76.3950    5.2580  -17.2170 O.2   186  SER186     -0.2866
    160  CB       -76.5480    1.9330  -16.9470 C.3   186  SER186      0.2089
    161  OG       -76.7010    0.9750  -15.9170 O.3   186  SER186     -0.2183
@<TRIPOS>BOND
     1   154   152   ar
     2   154   155   ar
     3   152   150   ar
     4   155   153   ar
     5   150   149    1
     6   150   151   ar
     7   149   146    1
     8   153   151   ar
     9   148   147    2
    10   147   146    1
    11   146   145    1
    12   126   125    2
    13   125   124    1
    14   127   124    1
    15   127   128    1
    16   145   139   am
    17   112   110    1
    18    96    97    1
    19   104   105    2
    20   104   103    1
    21   129   128   ar
    22   129   131   ar
    23   124   123    1
    24    90    91    2
    25    90    89    1
    26   128   130   ar
    27   123   115   am
    28   109   110    2
    29   109   108    1
    30   113   114    1
    31   139   140    2
    32   139   138    1
    33   106   103    1
    34   106   107    1
    35    97    98    1
    36    97   100    1
    37   110   111    1
    38   102   103    1
    39   102    98   am
    40    98    99    2
    41    94    93    2
    42   131   132   ar
    43    89    88    1
    44    89    92    1
    45   133   134    1
    46   107   108    1
    47   158   159    2
    48   158   157    1
    49   115   114    1
    50   115   116    2
    51   144   142    1
    52   114   117    1
    53   130   132   ar
    54   142   141    1
    55   142   143    1
    56   141   138    1
    57   138   137    1
    58   137   135   am
    59   160   157    1
    60   160   161    1
    61   156   157    1
    62   100   101    1
    63    93    92    1
    64    93    95   am
    65    80    79    2
    66   135   134    1
    67   135   136    2
    68   117   118    1
    69    79    78    1
    70   119   118   ar
    71   119   121   ar
    72    21    20   ar
    73    21    19   ar
    74   118   120   ar
    75    20    18   ar
    76   121   122   ar
    77    19    17   ar
    78    78    81    1
    79    78    77    1
    80   120   122   ar
    81    66    65    2
    82    81    82    1
    83    18    17   ar
    84    17    16    1
    85    65    77   am
    86    65    64    1
    87    83    82   ar
    88    83    85   ar
    89    82    84   ar
    90    63    64    1
    91    64    67    1
    92    16    13    1
    93    38    40    1
    94    38    37    1
    95    85    87   ar
    96    13    12    1
    97    13    14    1
    98    49    51   ar
    99    49    47   ar
   100    84    86   ar
   101    75    73   ar
   102    75    76   ar
   103    73    70   ar
   104    76    74   ar
   105    70    68   ar
   106    70    72   ar
   107    67    68    1
   108    51    50   ar
   109     1     2    1
   110    74    72   ar
   111    68    69   ar
   112    72    71   ar
   113    15    14    2
   114    33    34    1
   115    34    37    1
   116    34    35    1
   117    47    46   ar
   118    69    71   ar
   119     7     9   ar
   120     7     6   ar
   121     9    11   ar
   122    37    39    1
   123    14    22   am
   124     2     5    1
   125     2     3    1
   126    87    86   ar
   127    41    42    1
   128     5     6    1
   129     6     8   ar
   130    11    10   ar
   131    36    35    2
   132    50    48   ar
   133     4     3    2
   134    22    23    1
   135    46    48   ar
   136    46    45    1
   137    42    45    1
   138    42    43    1
   139     8    10   ar
   140    60    62   ar
   141    60    58   ar
   142    62    61   ar
   143    43    44    2
   144    23    24    1
   145    23    26    1
   146    24    25    2
   147    58    57   ar
   148    61    59   ar
   149    31    32   ar
   150    31    29   ar
   151    32    30   ar
   152    29    27   ar
   153    30    28   ar
   154    27    28   ar
   155    27    26    1
   156    57    59   ar
   157    57    56    1
   158    56    53    1
   159    53    54    1
   160    53    52    1
   161    55    54    2
