@<TRIPOS>MOLECULE
tmp/6hqbA19.pdb
 232 226 0 0 0
SMALL
GASTEIGER

@<TRIPOS>ATOM
      1  N        -39.0350  -40.7510  -52.6500 N.3    52  HIS52      -0.1226
      2  CA       -37.7850  -40.0170  -52.5070 C.3    52  HIS52       0.1752
      3  C        -37.1460  -40.2430  -51.1430 C.2    52  HIS52       0.2595
      4  O        -35.9160  -40.2300  -51.0290 O.2    52  HIS52      -0.2718
      5  CB       -38.0220  -38.5250  -52.7350 C.3    52  HIS52       0.0759
      6  CG       -38.6990  -38.2100  -54.0320 C.ar   52  HIS52       0.0818
      7  ND1      -40.0540  -38.3720  -54.2240 N.ar   52  HIS52      -0.2268
      8  CD2      -38.2070  -37.7400  -55.2030 C.ar   52  HIS52       0.1154
      9  CE1      -40.3680  -38.0150  -55.4570 C.ar   52  HIS52       0.1986
     10  NE2      -39.2660  -37.6280  -56.0720 N.ar   52  HIS52      -0.2212
     11  N        -37.9580  -40.4610  -50.1070 N.am   53  ALA53      -0.1980
     12  CA       -37.4250  -40.6670  -48.7660 C.3    53  ALA53       0.1597
     13  C        -36.5910  -41.9370  -48.6590 C.2    53  ALA53       0.2287
     14  O        -35.8070  -42.0720  -47.7130 O.2    53  ALA53      -0.2864
     15  CB       -38.5700  -40.7090  -47.7530 C.3    53  ALA53       0.0319
     16  N        -34.9420  -43.3820  -51.6160 N.3    55  ALA55      -0.1231
     17  CA       -34.3040  -43.5930  -52.9110 C.3    55  ALA55       0.1694
     18  C        -32.8930  -44.1520  -52.7570 C.2    55  ALA55       0.2592
     19  O        -32.4660  -44.9990  -53.5490 O.2    55  ALA55      -0.2718
     20  CB       -34.2820  -42.2870  -53.7040 C.3    55  ALA55       0.0304
     21  N        -32.1560  -43.6950  -51.7440 N.am   56  HIS56      -0.1962
     22  CA       -30.7770  -44.1180  -51.5470 C.3    56  HIS56       0.1787
     23  C        -30.6050  -45.0960  -50.3910 C.2    56  HIS56       0.2620
     24  O        -29.4960  -45.6010  -50.1920 O.2    56  HIS56      -0.2715
     25  CB       -29.8730  -42.9020  -51.3160 C.3    56  HIS56       0.0785
     26  CG       -29.6540  -42.0700  -52.5430 C.ar   56  HIS56       0.0821
     27  ND1      -29.0070  -40.8530  -52.5120 N.ar   56  HIS56      -0.2267
     28  CD2      -29.9900  -42.2840  -53.8380 C.ar   56  HIS56       0.1154
     29  CE1      -28.9580  -40.3510  -53.7340 C.ar   56  HIS56       0.1986
     30  NE2      -29.5460  -41.2000  -54.5570 N.ar   56  HIS56      -0.2212
     31  N        -31.6600  -45.3720  -49.6270 N.am   57  ASP57      -0.1957
     32  CA       -31.5710  -46.3280  -48.5250 C.3    57  ASP57       0.1840
     33  C        -31.5160  -47.7320  -49.1120 C.2    57  ASP57       0.2622
     34  O        -32.5470  -48.3230  -49.4410 O.2    57  ASP57      -0.2715
     35  CB       -32.7520  -46.1660  -47.5760 C.3    57  ASP57       0.1450
     36  CG       -32.5970  -46.9850  -46.3010 C.2    57  ASP57       0.3671
     37  OD1      -31.5280  -47.6050  -46.1040 O.co2  57  ASP57      -0.2456
     38  OD2      -33.5470  -47.0070  -45.4900 O.co2  57  ASP57      -0.2456
     39  N        -30.3050  -48.2760  -49.2390 N.am   58  PHE58      -0.1960
     40  CA       -30.1100  -49.5690  -49.8830 C.3    58  PHE58       0.1771
     41  C        -30.3490  -50.7490  -48.9500 C.2    58  PHE58       0.2619
     42  O        -30.4690  -51.8800  -49.4340 O.2    58  PHE58      -0.2715
     43  CB       -28.6960  -49.6590  -50.4680 C.3    58  PHE58       0.0574
     44  CG       -28.4170  -48.6480  -51.5470 C.ar   58  PHE58      -0.0200
     45  CD1      -29.4530  -48.0610  -52.2570 C.ar   58  PHE58      -0.0042
     46  CD2      -27.1160  -48.2840  -51.8530 C.ar   58  PHE58      -0.0042
     47  CE1      -29.1960  -47.1280  -53.2480 C.ar   58  PHE58      -0.0003
     48  CE2      -26.8530  -47.3530  -52.8440 C.ar   58  PHE58      -0.0003
     49  CZ       -27.8940  -46.7750  -53.5420 C.ar   58  PHE58      -0.0000
     50  N        -30.4210  -50.5220  -47.6370 N.am   59  ASP59      -0.1971
     51  CA       -30.6880  -51.6180  -46.7100 C.3    59  ASP59       0.1709
     52  C        -32.1330  -52.0860  -46.8210 C.2    59  ASP59       0.2293
     53  O        -32.4040  -53.2900  -46.8960 O.2    59  ASP59      -0.2864
     54  CB       -30.3750  -51.1850  -45.2800 C.3    59  ASP59       0.1436
     55  CG       -29.0380  -50.4920  -45.1630 C.2    59  ASP59       0.3671
     56  OD1      -28.0770  -50.9330  -45.8260 O.co2  59  ASP59      -0.2456
     57  OD2      -28.9520  -49.5000  -44.4110 O.co2  59  ASP59      -0.2456
     58  N        -20.4750  -43.4280  -55.6920 N.3    76  HIS76      -0.1241
     59  CA       -19.3440  -42.5240  -55.5060 C.3    76  HIS76       0.1621
     60  C        -18.7940  -42.0510  -56.8430 C.2    76  HIS76       0.2264
     61  O        -18.4390  -40.8750  -56.9980 O.2    76  HIS76      -0.2867
     62  CB       -18.2400  -43.2070  -54.7050 C.3    76  HIS76       0.0745
     63  CG       -18.5870  -43.4430  -53.2710 C.ar   76  HIS76       0.0817
     64  ND1      -17.6340  -43.4780  -52.2770 N.ar   76  HIS76      -0.2268
     65  CD2      -19.7750  -43.6620  -52.6620 C.ar   76  HIS76       0.1154
     66  CE1      -18.2200  -43.7070  -51.1170 C.ar   76  HIS76       0.1986
     67  NE2      -19.5180  -43.8290  -51.3240 N.ar   76  HIS76      -0.2212
     68  N        -22.7850  -48.2900  -42.1850 N.3   349  HIS349     -0.1241
     69  CA       -23.1930  -47.1670  -41.3470 C.3   349  HIS349      0.1621
     70  C        -22.2010  -46.9400  -40.2180 C.2   349  HIS349      0.2264
     71  O        -21.9490  -45.7950  -39.8290 O.2   349  HIS349     -0.2867
     72  CB       -24.5980  -47.4040  -40.7950 C.3   349  HIS349      0.0745
     73  CG       -25.6610  -47.4300  -41.8460 C.ar  349  HIS349      0.0817
     74  ND1      -26.1030  -46.2920  -42.4850 N.ar  349  HIS349     -0.2268
     75  CD2      -26.3680  -48.4560  -42.3730 C.ar  349  HIS349      0.1154
     76  CE1      -27.0360  -46.6160  -43.3620 C.ar  349  HIS349      0.1986
     77  NE2      -27.2170  -47.9230  -43.3130 N.ar  349  HIS349     -0.2212
     78  N        -19.5140  -44.9640  -41.8560 N.3   352  LEU352     -0.1245
     79  CA       -19.9270  -43.6130  -42.2070 C.3   352  LEU352      0.1561
     80  C        -20.0650  -42.7350  -40.9720 C.2   352  LEU352      0.2260
     81  O        -19.7900  -41.5340  -41.0390 O.2   352  LEU352     -0.2867
     82  CB       -21.2370  -43.6560  -42.9920 C.3   352  LEU352      0.0270
     83  CG       -21.6360  -42.3720  -43.7170 C.3   352  LEU352      0.0019
     84  CD1      -20.4530  -41.8060  -44.4790 C.3   352  LEU352      0.0001
     85  CD2      -22.7980  -42.6330  -44.6600 C.3   352  LEU352      0.0001
     86  N        -17.9630  -39.3530  -41.4740 N.3   356  LEU356     -0.1245
     87  CA       -18.6720  -38.0770  -41.4660 C.3   356  LEU356      0.1561
     88  C        -18.2050  -37.1930  -40.3180 C.2   356  LEU356      0.2260
     89  O        -17.9610  -35.9950  -40.5040 O.2   356  LEU356     -0.2867
     90  CB       -20.1780  -38.3210  -41.3810 C.3   356  LEU356      0.0270
     91  CG       -20.8860  -38.6060  -42.7040 C.3   356  LEU356      0.0019
     92  CD1      -22.3050  -39.0570  -42.4540 C.3   356  LEU356      0.0001
     93  CD2      -20.8800  -37.3670  -43.5790 C.3   356  LEU356      0.0001
     94  N        -22.8220  -29.7090  -40.9610 N.3   399  PHE399     -0.1227
     95  CA       -23.7630  -30.7150  -41.4500 C.3   399  PHE399      0.1736
     96  C        -23.1440  -32.1110  -41.4250 C.2   399  PHE399      0.2595
     97  O        -23.7700  -33.0770  -40.9540 O.2   399  PHE399     -0.2718
     98  CB       -24.2300  -30.3570  -42.8610 C.3   399  PHE399      0.0547
     99  CG       -25.3310  -29.3370  -42.8950 C.ar  399  PHE399     -0.0202
    100  CD1      -26.6570  -29.7280  -42.7880 C.ar  399  PHE399     -0.0042
    101  CD2      -25.0450  -27.9900  -43.0380 C.ar  399  PHE399     -0.0042
    102  CE1      -27.6800  -28.7940  -42.8210 C.ar  399  PHE399     -0.0003
    103  CE2      -26.0610  -27.0490  -43.0730 C.ar  399  PHE399     -0.0003
    104  CZ       -27.3810  -27.4530  -42.9640 C.ar  399  PHE399     -0.0000
    105  N        -21.9120  -32.2360  -41.9310 N.am  400  LEU400     -0.1980
    106  CA       -21.2700  -33.5440  -41.9970 C.3   400  LEU400      0.1596
    107  C        -21.0360  -34.1450  -40.6180 C.2   400  LEU400      0.2287
    108  O        -20.9080  -35.3680  -40.5020 O.2   400  LEU400     -0.2864
    109  CB       -19.9480  -33.4440  -42.7610 C.3   400  LEU400      0.0297
    110  CG       -20.0650  -33.0330  -44.2320 C.3   400  LEU400      0.0022
    111  CD1      -18.7330  -33.1800  -44.9460 C.3   400  LEU400      0.0001
    112  CD2      -21.1470  -33.8310  -44.9420 C.3   400  LEU400      0.0001
    113  N        -23.2570  -33.8350  -37.9420 N.3   402  VAL402     -0.1231
    114  CA       -24.5430  -34.4020  -37.5390 C.3   402  VAL402      0.1692
    115  C        -24.8510  -35.6580  -38.3430 C.2   402  VAL402      0.2592
    116  O        -25.5530  -36.5660  -37.8640 O.2   402  VAL402     -0.2718
    117  CB       -25.6540  -33.3430  -37.6850 C.3   402  VAL402      0.0266
    118  CG1      -26.9840  -33.8840  -37.1910 C.3   402  VAL402      0.0020
    119  CG2      -25.2800  -32.0770  -36.9300 C.3   402  VAL402      0.0020
    120  N        -24.3400  -35.7340  -39.5740 N.am  403  GLY403     -0.1957
    121  CA       -24.4770  -36.9690  -40.3340 C.3   403  GLY403      0.1869
    122  C        -23.9330  -38.1770  -39.5950 C.2   403  GLY403      0.2309
    123  O        -24.4780  -39.2820  -39.6960 O.2   403  GLY403     -0.2863
    124  N        -26.3280  -39.3450  -37.0550 N.3   406  ALA406     -0.1231
    125  CA       -27.4330  -40.0450  -37.7070 C.3   406  ALA406      0.1694
    126  C        -27.0550  -41.4870  -38.0410 C.2   406  ALA406      0.2592
    127  O        -27.7440  -42.4410  -37.6430 O.2   406  ALA406     -0.2718
    128  CB       -27.8550  -39.2940  -38.9710 C.3   406  ALA406      0.0304
    129  N        -25.9520  -41.6660  -38.7680 N.am  407  HIS407     -0.1976
    130  CA       -25.5960  -43.0000  -39.2330 C.3   407  HIS407      0.1656
    131  C        -25.1350  -43.9140  -38.1030 C.2   407  HIS407      0.2291
    132  O        -25.2080  -45.1380  -38.2510 O.2   407  HIS407     -0.2864
    133  CB       -24.5410  -42.9010  -40.3330 C.3   407  HIS407      0.0771
    134  CG       -25.0670  -42.3060  -41.6030 C.ar  407  HIS407      0.0820
    135  ND1      -25.6860  -43.0590  -42.5770 N.ar  407  HIS407     -0.2267
    136  CD2      -25.0920  -41.0270  -42.0460 C.ar  407  HIS407      0.1154
    137  CE1      -26.0570  -42.2710  -43.5710 C.ar  407  HIS407      0.1986
    138  NE2      -25.7060  -41.0340  -43.2740 N.ar  407  HIS407     -0.2212
    139  N        -28.3030  -45.3710  -37.0850 N.3   410  ILE410     -0.1245
    140  CA       -28.6710  -46.3140  -38.1420 C.3   410  ILE410      0.1561
    141  C        -27.9370  -47.6390  -37.9550 C.2   410  ILE410      0.2260
    142  O        -28.5330  -48.7180  -38.0730 O.2   410  ILE410     -0.2867
    143  CB       -28.4050  -45.7140  -39.5330 C.3   410  ILE410      0.0252
    144  CG1      -29.0990  -44.3620  -39.6800 C.3   410  ILE410      0.0019
    145  CG2      -28.9150  -46.6560  -40.6080 C.3   410  ILE410      0.0019
    146  CD1      -28.8300  -43.6840  -41.0030 C.3   410  ILE410      0.0001
    147  N        -29.8160  -51.1920  -37.2520 N.3   414  ARG414     -0.1245
    148  CA       -29.7890  -52.1050  -38.3890 C.3   414  ARG414      0.1563
    149  C        -28.6820  -53.1480  -38.3270 C.2   414  ARG414      0.2260
    150  O        -28.8950  -54.2790  -38.7790 O.2   414  ARG414     -0.2867
    151  CB       -29.6520  -51.3180  -39.6970 C.3   414  ARG414      0.0307
    152  CG       -30.8890  -50.5200  -40.0680 C.3   414  ARG414      0.0489
    153  CD       -30.7270  -49.8480  -41.4200 C.3   414  ARG414      0.2205
    154  NE       -31.9580  -49.1910  -41.8490 N.pl3 414  ARG414     -0.0865
    155  CZ       -32.0850  -48.5030  -42.9790 C.cat 414  ARG414      0.5346
    156  NH1      -31.0530  -48.3740  -43.8020 N.pl3 414  ARG414      0.1354
    157  NH2      -33.2460  -47.9410  -43.2870 N.pl3 414  ARG414      0.1354
    158  N        -35.1830  -47.3290  -37.4360 N.3   570  PHE570     -0.1227
    159  CA       -34.4570  -46.0830  -37.2170 C.3   570  PHE570      0.1736
    160  C        -35.3820  -44.8760  -37.3070 C.2   570  PHE570      0.2595
    161  O        -35.4210  -44.0440  -36.3940 O.2   570  PHE570     -0.2718
    162  CB       -33.3110  -45.9570  -38.2230 C.3   570  PHE570      0.0547
    163  CG       -32.7090  -44.5810  -38.2860 C.ar  570  PHE570     -0.0202
    164  CD1      -31.8540  -44.1370  -37.2910 C.ar  570  PHE570     -0.0042
    165  CD2      -32.9960  -43.7320  -39.3440 C.ar  570  PHE570     -0.0042
    166  CE1      -31.3000  -42.8720  -37.3460 C.ar  570  PHE570     -0.0003
    167  CE2      -32.4450  -42.4670  -39.4050 C.ar  570  PHE570     -0.0003
    168  CZ       -31.5960  -42.0370  -38.4050 C.ar  570  PHE570     -0.0000
    169  N        -36.1340  -44.7630  -38.3990 N.am  571  ARG571     -0.1980
    170  CA       -37.0040  -43.6180  -38.6410 C.3   571  ARG571      0.1597
    171  C        -38.4440  -44.0070  -38.3250 C.2   571  ARG571      0.2287
    172  O        -39.0570  -44.7940  -39.0540 O.2   571  ARG571     -0.2864
    173  CB       -36.8700  -43.1320  -40.0840 C.3   571  ARG571      0.0334
    174  CG       -37.8330  -42.0140  -40.4450 C.3   571  ARG571      0.0492
    175  CD       -37.5220  -41.4020  -41.8040 C.3   571  ARG571      0.2205
    176  NE       -37.6980  -42.3390  -42.9080 N.pl3 571  ARG571     -0.0865
    177  CZ       -36.7240  -42.7020  -43.7340 C.cat 571  ARG571      0.5346
    178  NH1      -35.5090  -42.1950  -43.5850 N.pl3 571  ARG571      0.1354
    179  NH2      -36.9650  -43.5630  -44.7140 N.pl3 571  ARG571      0.1354
    180  N        -33.9090  -40.8920  -35.5240 N.3   588  TRP588     -0.1241
    181  CA       -34.2510  -39.9210  -36.5570 C.3   588  TRP588      0.1605
    182  C        -34.7340  -38.6140  -35.9420 C.2   588  TRP588      0.2264
    183  O        -34.3230  -37.5280  -36.3690 O.2   588  TRP588     -0.2867
    184  CB       -35.3180  -40.4990  -37.4860 C.3   588  TRP588      0.0550
    185  CG       -35.4680  -39.7470  -38.7700 C.ar  588  TRP588      0.0003
    186  CD1      -34.9350  -40.0830  -39.9770 C.ar  588  TRP588      0.0946
    187  CD2      -36.1920  -38.5280  -38.9760 C.ar  588  TRP588      0.0152
    188  NE1      -35.2850  -39.1540  -40.9260 N.ar  588  TRP588     -0.2442
    189  CE2      -36.0560  -38.1870  -40.3360 C.ar  588  TRP588      0.0810
    190  CE3      -36.9440  -37.6940  -38.1440 C.ar  588  TRP588      0.0012
    191  CZ2      -36.6420  -37.0480  -40.8830 C.ar  588  TRP588      0.0191
    192  CZ3      -37.5240  -36.5630  -38.6870 C.ar  588  TRP588      0.0001
    193  CH2      -37.3710  -36.2510  -40.0430 C.ar  588  TRP588      0.0015
    194  N        -31.8060  -36.7010  -34.5090 N.3   591  VAL591     -0.1231
    195  CA       -31.0740  -35.9480  -35.5250 C.3   591  VAL591      0.1692
    196  C        -31.8720  -34.7220  -35.9540 C.2   591  VAL591      0.2592
    197  O        -31.3080  -33.6450  -36.1950 O.2   591  VAL591     -0.2718
    198  CB       -30.7380  -36.8560  -36.7210 C.3   591  VAL591      0.0266
    199  CG1      -29.8980  -36.1050  -37.7400 C.3   591  VAL591      0.0020
    200  CG2      -30.0140  -38.0950  -36.2440 C.3   591  VAL591      0.0020
    201  N        -33.1950  -34.8720  -36.0600 N.am  592  PHE592     -0.1976
    202  CA       -34.0730  -33.7450  -36.3640 C.3   592  PHE592      0.1639
    203  C        -33.9170  -32.6300  -35.3360 C.2   592  PHE592      0.2290
    204  O        -33.9600  -31.4440  -35.6820 O.2   592  PHE592     -0.2864
    205  CB       -35.5210  -34.2460  -36.4370 C.3   592  PHE592      0.0560
    206  CG       -36.5620  -33.1950  -36.1570 C.ar  592  PHE592     -0.0200
    207  CD1      -37.0330  -32.3790  -37.1720 C.ar  592  PHE592     -0.0042
    208  CD2      -37.1000  -33.0520  -34.8840 C.ar  592  PHE592     -0.0042
    209  CE1      -38.0000  -31.4200  -36.9190 C.ar  592  PHE592     -0.0003
    210  CE2      -38.0660  -32.0950  -34.6240 C.ar  592  PHE592     -0.0003
    211  CZ       -38.5170  -31.2790  -35.6430 C.ar  592  PHE592     -0.0000
    212  N        -30.1160  -31.0380  -35.5640 N.3   595  LEU595     -0.1245
    213  CA       -29.9370  -30.0720  -36.6490 C.3   595  LEU595      0.1561
    214  C        -30.1270  -28.6430  -36.1470 C.2   595  LEU595      0.2260
    215  O        -29.3170  -27.7500  -36.4360 O.2   595  LEU595     -0.2867
    216  CB       -30.9110  -30.3730  -37.7900 C.3   595  LEU595      0.0270
    217  CG       -30.6520  -31.6410  -38.6050 C.3   595  LEU595      0.0019
    218  CD1      -31.8670  -32.0000  -39.4480 C.3   595  LEU595      0.0001
    219  CD2      -29.4250  -31.4520  -39.4800 C.3   595  LEU595      0.0001
    220  N        -36.0680  -28.6250  -42.6150 N.3   729  ALA729     -0.1245
    221  CA       -35.4100  -28.2460  -43.8590 C.3   729  ALA729      0.1562
    222  C        -35.6560  -26.7790  -44.1820 C.2   729  ALA729      0.2260
    223  O        -34.7150  -26.0320  -44.4770 O.2   729  ALA729     -0.2867
    224  CB       -35.8950  -29.1400  -45.0020 C.3   729  ALA729      0.0290
    225  N        -33.0490  -23.6760  -44.2240 N.3   733  LEU733     -0.1245
    226  CA       -32.8970  -22.9740  -45.4950 C.3   733  LEU733      0.1561
    227  C        -33.1290  -21.4770  -45.3290 C.2   733  LEU733      0.2260
    228  O        -32.3190  -20.6610  -45.7770 O.2   733  LEU733     -0.2867
    229  CB       -33.8510  -23.5530  -46.5400 C.3   733  LEU733      0.0270
    230  CG       -33.6470  -23.0280  -47.9660 C.3   733  LEU733      0.0019
    231  CD1      -32.4610  -23.7130  -48.6420 C.3   733  LEU733      0.0001
    232  CD2      -34.9140  -23.1770  -48.7950 C.3   733  LEU733      0.0001
@<TRIPOS>BOND
     1    61    60    2
     2    60    59    1
     3    10     9   ar
     4    10     8   ar
     5    58    59    1
     6    59    62    1
     7     9     7   ar
     8     8     6   ar
     9    62    63    1
    10    30    28   ar
    11    30    29   ar
    12     7     6   ar
    13     6     5    1
    14    28    26   ar
    15    29    27   ar
    16    20    17    1
    17    19    18    2
    18    49    47   ar
    19    49    48   ar
    20    63    65   ar
    21    63    64   ar
    22    47    45   ar
    23    17    18    1
    24    17    16    1
    25    48    46   ar
    26    18    21   am
    27     5     2    1
    28    65    67   ar
    29     1     2    1
    30    26    27   ar
    31    26    25    1
    32     2     3    1
    33    64    66   ar
    34    45    44   ar
    35    46    44   ar
    36    21    22    1
    37    44    43    1
    38    22    25    1
    39    22    23    1
    40    67    66   ar
    41     3     4    2
    42     3    11   am
    43    43    40    1
    44    23    24    2
    45    23    31   am
    46    11    12    1
    47    40    39    1
    48    40    41    1
    49    31    32    1
    50    34    33    2
    51    42    41    2
    52    39    33   am
    53    33    32    1
    54    41    50   am
    55   232   230    1
    56    12    13    1
    57    12    15    1
    58    13    14    2
    59   231   230    1
    60    32    35    1
    61   230   229    1
    62    50    51    1
    63    35    36    1
    64    53    52    2
    65    52    51    1
    66    51    54    1
    67   229   226    1
    68    36    37   ar
    69    36    38   ar
    70    56    55   ar
    71   228   227    2
    72   226   227    1
    73   226   225    1
    74    54    55    1
    75    55    57   ar
    76   224   221    1
    77   111   110    1
    78   112   110    1
    79   179   177    1
    80    85    83    1
    81    84    83    1
    82   223   222    2
    83   110   109    1
    84   222   221    1
    85   221   220    1
    86   156   155    1
    87   177   178    1
    88   177   176    2
    89    83    82    1
    90    93    91    1
    91   137   138   ar
    92   137   135   ar
    93    76    77   ar
    94    76    74   ar
    95    77    75   ar
    96   157   155    1
    97   138   136   ar
    98   103   101   ar
    99   103   104   ar
   100   101    99   ar
   101    82    79    1
   102   155   154    2
   103   104   102   ar
   104   176   175    1
   105    99    98    1
   106    99   100   ar
   107    98    95    1
   108   102   100   ar
   109   109   106    1
   110    91    92    1
   111    91    90    1
   112   135   134   ar
   113    74    73   ar
   114    75    73   ar
   115    79    78    1
   116    79    80    1
   117    68    69    1
   118   136   134   ar
   119   106   105    1
   120   106   107    1
   121   105    96   am
   122   154   153    1
   123    73    72    1
   124   175   174    1
   125   134   133    1
   126    86    87    1
   127    87    90    1
   128    87    88    1
   129    95    96    1
   130    95    94    1
   131    96    97    2
   132   153   152    1
   133    69    72    1
   134    69    70    1
   135    81    80    2
   136   146   144    1
   137   188   189   ar
   138   188   186   ar
   139   191   189   ar
   140   191   193   ar
   141   107   108    2
   142   145   143    1
   143    89    88    2
   144   174   173    1
   145   189   187   ar
   146   121   122    1
   147   121   120    1
   148   133   130    1
   149    70    71    2
   150   173   170    1
   151   152   151    1
   152   193   192   ar
   153   186   185   ar
   154   151   148    1
   155   123   122    2
   156   144   143    1
   157   120   115   am
   158   143   140    1
   159   219   217    1
   160   218   217    1
   161   167   165   ar
   162   167   168   ar
   163   165   163   ar
   164   130   129    1
   165   130   131    1
   166   172   171    2
   167   187   185   ar
   168   187   190   ar
   169   128   125    1
   170   150   149    2
   171   185   184    1
   172   129   126   am
   173   192   190   ar
   174   170   169    1
   175   170   171    1
   176   217   216    1
   177   168   166   ar
   178   169   160   am
   179   148   149    1
   180   148   147    1
   181   115   116    2
   182   115   114    1
   183   163   162    1
   184   163   164   ar
   185   132   131    2
   186   162   159    1
   187   140   141    1
   188   140   139    1
   189   142   141    2
   190   126   125    1
   191   126   127    2
   192   113   114    1
   193   216   213    1
   194   199   198    1
   195   125   124    1
   196   117   114    1
   197   117   118    1
   198   117   119    1
   199   184   181    1
   200   158   159    1
   201   166   164   ar
   202   160   159    1
   203   160   161    2
   204   207   209   ar
   205   207   206   ar
   206   209   211   ar
   207   198   200    1
   208   198   195    1
   209   213   214    1
   210   213   212    1
   211   181   182    1
   212   181   180    1
   213   205   202    1
   214   205   206    1
   215   215   214    2
   216   183   182    2
   217   202   201    1
   218   202   203    1
   219   197   196    2
   220   206   208   ar
   221   201   196   am
   222   196   195    1
   223   204   203    2
   224   211   210   ar
   225   195   194    1
   226   208   210   ar
