@<TRIPOS>MOLECULE
tmp/6hqbA39.pdb
 112 107 0 0 0
SMALL
GASTEIGER

@<TRIPOS>ATOM
      1  N        -25.7720  -22.1490  -17.5530 N.3   449  PHE449     -0.1227
      2  CA       -25.8160  -21.1250  -16.5160 C.3   449  PHE449      0.1736
      3  C        -24.5660  -20.2530  -16.5480 C.2   449  PHE449      0.2595
      4  O        -24.6560  -19.0210  -16.5200 O.2   449  PHE449     -0.2718
      5  CB       -25.9940  -21.7730  -15.1430 C.3   449  PHE449      0.0547
      6  CG       -27.4220  -22.0940  -14.8080 C.ar  449  PHE449     -0.0202
      7  CD1      -28.4540  -21.3180  -15.3080 C.ar  449  PHE449     -0.0042
      8  CD2      -27.7350  -23.1710  -13.9960 C.ar  449  PHE449     -0.0042
      9  CE1      -29.7710  -21.6090  -15.0050 C.ar  449  PHE449     -0.0003
     10  CE2      -29.0510  -23.4670  -13.6890 C.ar  449  PHE449     -0.0003
     11  CZ       -30.0700  -22.6850  -14.1950 C.ar  449  PHE449     -0.0000
     12  N        -23.3900  -20.8740  -16.6300 N.am  450  HIS450     -0.1975
     13  CA       -22.1160  -20.1630  -16.5020 C.3   450  HIS450      0.1656
     14  C        -21.5450  -19.7110  -17.8380 C.2   450  HIS450      0.2291
     15  O        -20.3290  -19.7640  -18.0460 O.2   450  HIS450     -0.2864
     16  CB       -21.1180  -21.0420  -15.7580 C.3   450  HIS450      0.0771
     17  CG       -21.5420  -21.3780  -14.3630 C.ar  450  HIS450      0.0820
     18  ND1      -22.4270  -22.3960  -14.0790 N.ar  450  HIS450     -0.2267
     19  CD2      -21.2160  -20.8190  -13.1740 C.ar  450  HIS450      0.1154
     20  CE1      -22.6210  -22.4550  -12.7740 C.ar  450  HIS450      0.1986
     21  NE2      -21.8990  -21.5080  -12.2030 N.ar  450  HIS450     -0.2212
     22  N        -26.0110  -16.9740  -18.6370 N.3   453  GLY453     -0.1210
     23  CA       -26.3940  -16.1930  -17.4780 C.3   453  GLY453      0.1956
     24  C        -25.4850  -15.0050  -17.2500 C.2   453  GLY453      0.2611
     25  O        -25.9160  -13.9820  -16.7190 O.2   453  GLY453     -0.2717
     26  N        -24.2200  -15.1150  -17.6640 N.am  454  LEU454     -0.1979
     27  CA       -23.3150  -13.9740  -17.5850 C.3   454  LEU454      0.1596
     28  C        -23.7890  -12.8380  -18.4810 C.2   454  LEU454      0.2287
     29  O        -23.7810  -11.6700  -18.0740 O.2   454  LEU454     -0.2864
     30  CB       -21.8980  -14.4020  -17.9660 C.3   454  LEU454      0.0297
     31  CG       -21.3030  -15.5830  -17.1930 C.3   454  LEU454      0.0022
     32  CD1      -19.8850  -15.8700  -17.6640 C.3   454  LEU454      0.0001
     33  CD2      -21.3310  -15.3180  -15.6970 C.3   454  LEU454      0.0001
     34  N        -26.8940  -12.3540  -19.4620 N.3   456  ILE456     -0.1231
     35  CA       -28.1250  -11.8230  -18.8760 C.3   456  ILE456      0.1692
     36  C        -27.8030  -10.8880  -17.7160 C.2   456  ILE456      0.2592
     37  O        -28.3980   -9.8100  -17.5780 O.2   456  ILE456     -0.2718
     38  CB       -29.0520  -12.9720  -18.4360 C.3   456  ILE456      0.0266
     39  CG1      -29.5250  -13.7600  -19.6560 C.3   456  ILE456      0.0019
     40  CG2      -30.2450  -12.4340  -17.6630 C.3   456  ILE456      0.0020
     41  CD1      -30.2020  -12.9040  -20.7030 C.3   456  ILE456      0.0001
     42  N        -26.8480  -11.2830  -16.8720 N.am  457  HIS457     -0.1976
     43  CA       -26.4510  -10.4560  -15.7410 C.3   457  HIS457      0.1656
     44  C        -25.8440   -9.1410  -16.2080 C.2   457  HIS457      0.2291
     45  O        -26.1130   -8.0850  -15.6250 O.2   457  HIS457     -0.2864
     46  CB       -25.4700  -11.2310  -14.8600 C.3   457  HIS457      0.0771
     47  CG       -24.8490  -10.4110  -13.7750 C.ar  457  HIS457      0.0820
     48  ND1      -23.4880  -10.2200  -13.6740 N.ar  457  HIS457     -0.2267
     49  CD2      -25.4020   -9.7310  -12.7430 C.ar  457  HIS457      0.1154
     50  CE1      -23.2290   -9.4600  -12.6250 C.ar  457  HIS457      0.1986
     51  NE2      -24.3730   -9.1490  -12.0430 N.ar  457  HIS457     -0.2212
     52  N        -28.6760   -6.8970  -17.4630 N.3   460  THR460     -0.1203
     53  CA       -29.4530   -6.3470  -16.3560 C.3   460  THR460      0.1994
     54  C        -28.6600   -5.3080  -15.5700 C.2   460  THR460      0.2617
     55  O        -29.2360   -4.3260  -15.0870 O.2   460  THR460     -0.2717
     56  CB       -29.9260   -7.4790  -15.4430 C.3   460  THR460      0.1784
     57  OG1      -30.6220   -8.4520  -16.2290 O.3   460  THR460     -0.2211
     58  CG2      -30.8660   -6.9520  -14.3700 C.3   460  THR460      0.0376
     59  N        -27.3440   -5.4910  -15.4470 N.am  461  MET461     -0.1979
     60  CA       -26.5240   -4.5150  -14.7360 C.3   461  MET461      0.1605
     61  C        -26.3960   -3.2200  -15.5280 C.2   461  MET461      0.2287
     62  O        -26.5830   -2.1270  -14.9800 O.2   461  MET461     -0.2864
     63  CB       -25.1480   -5.1060  -14.4380 C.3   461  MET461      0.0413
     64  CG       -25.1500   -6.0320  -13.2450 C.3   461  MET461      0.0598
     65  SD       -26.0370   -5.2780  -11.8700 S.3   461  MET461     -0.1393
     66  CE       -25.6870   -6.4400  -10.5570 C.3   461  MET461      0.0692
     67  N        -29.6830   -1.4760  -15.3250 N.3   464  LEU464     -0.1245
     68  CA       -29.9200   -0.8440  -14.0320 C.3   464  LEU464      0.1561
     69  C        -29.0200    0.3590  -13.7850 C.2   464  LEU464      0.2260
     70  O        -29.2020    1.0460  -12.7740 O.2   464  LEU464     -0.2867
     71  CB       -29.7290   -1.8610  -12.9050 C.3   464  LEU464      0.0270
     72  CG       -30.8540   -2.8720  -12.6840 C.3   464  LEU464      0.0019
     73  CD1      -30.4360   -3.9300  -11.6750 C.3   464  LEU464      0.0001
     74  CD2      -32.1200   -2.1660  -12.2300 C.3   464  LEU464      0.0001
     75  N        -25.5090    0.2010  -13.4770 N.3   466  ARG466     -0.1245
     76  CA       -24.5130   -0.2510  -12.5070 C.3   466  ARG466      0.1563
     77  C        -23.3060   -0.7840  -13.2660 C.2   466  ARG466      0.2260
     78  O        -23.2020   -1.9910  -13.5240 O.2   466  ARG466     -0.2867
     79  CB       -25.1020   -1.3050  -11.5720 C.3   466  ARG466      0.0307
     80  CG       -26.3210   -0.8160  -10.8000 C.3   466  ARG466      0.0489
     81  CD       -27.1200   -1.9610  -10.2030 C.3   466  ARG466      0.2205
     82  NE       -26.3600   -2.7040   -9.2030 N.pl3 466  ARG466     -0.0865
     83  CZ       -26.8700   -3.6800   -8.4610 C.cat 466  ARG466      0.5346
     84  NH1      -28.1410   -4.0270   -8.6070 N.pl3 466  ARG466      0.1354
     85  NH2      -26.1120   -4.3090   -7.5730 N.pl3 466  ARG466      0.1354
     86  N        -20.6160   -3.4560  -11.6630 N.3   469  ASP469     -0.1239
     87  CA       -21.1170   -4.7900  -11.3520 C.3   469  ASP469      0.1674
     88  C        -21.1900   -5.6790  -12.5890 C.2   469  ASP469      0.2266
     89  O        -21.9080   -6.6850  -12.5840 O.2   469  ASP469     -0.2867
     90  CB       -22.4920   -4.7020  -10.6860 C.3   469  ASP469      0.1410
     91  CG       -22.4760   -3.8720   -9.4170 C.2   469  ASP469      0.3668
     92  OD1      -21.3760   -3.5550   -8.9220 O.co2 469  ASP469     -0.2456
     93  OD2      -23.5680   -3.5330   -8.9150 O.co2 469  ASP469     -0.2456
     94  N        -19.4470   -7.9370  -15.9830 N.3   471  PHE471     -0.1241
     95  CA       -18.3470   -8.8160  -16.3730 C.3   471  PHE471      0.1605
     96  C        -17.7620   -8.2600  -17.6670 C.2   471  PHE471      0.2264
     97  O        -18.0620   -8.7160  -18.7700 O.2   471  PHE471     -0.2867
     98  CB       -18.8300  -10.2560  -16.5340 C.3   471  PHE471      0.0534
     99  CG       -19.3000  -10.8890  -15.2540 C.ar  471  PHE471     -0.0203
    100  CD1      -18.5050  -10.8670  -14.1200 C.ar  471  PHE471     -0.0042
    101  CD2      -20.5410  -11.5020  -15.1860 C.ar  471  PHE471     -0.0042
    102  CE1      -18.9380  -11.4480  -12.9460 C.ar  471  PHE471     -0.0003
    103  CE2      -20.9780  -12.0840  -14.0140 C.ar  471  PHE471     -0.0003
    104  CZ       -20.1770  -12.0560  -12.8930 C.ar  471  PHE471     -0.0000
    105  N        -15.6650   -6.3670  -13.2500 N.3   476  ILE476     -0.1245
    106  CA       -15.3010   -7.7170  -12.8330 C.3   476  ILE476      0.1561
    107  C        -14.7410   -8.4520  -14.0420 C.2   476  ILE476      0.2260
    108  O        -15.4840   -9.0910  -14.7960 O.2   476  ILE476     -0.2867
    109  CB       -16.4960   -8.4770  -12.2270 C.3   476  ILE476      0.0252
    110  CG1      -17.1090   -7.6840  -11.0720 C.3   476  ILE476      0.0019
    111  CG2      -16.0560   -9.8470  -11.7410 C.3   476  ILE476      0.0019
    112  CD1      -18.2590   -8.3940  -10.3850 C.3   476  ILE476      0.0001
@<TRIPOS>BOND
     1    41    39    1
     2    39    38    1
     3    34    35    1
     4    35    38    1
     5    35    36    1
     6    97    96    2
     7    22    23    1
     8    28    29    2
     9    28    27    1
    10    38    40    1
    11    15    14    2
    12    30    27    1
    13    30    31    1
    14    14    13    1
    15    36    37    2
    16    36    42   am
    17    96    95    1
    18    32    31    1
    19    26    27    1
    20    26    24   am
    21     1     2    1
    22    23    24    1
    23    52    53    1
    24    24    25    2
    25    31    33    1
    26    42    43    1
    27    12     3   am
    28    12    13    1
    29     3     4    2
    30     3     2    1
    31    98    95    1
    32    98    99    1
    33     2     5    1
    34    13    16    1
    35    95    94    1
    36    53    54    1
    37    53    56    1
    38    57    56    1
    39    44    43    1
    40    44    45    2
    41    16    17    1
    42    43    46    1
    43    54    59   am
    44    54    55    2
    45    61    62    2
    46    61    60    1
    47    59    60    1
    48    56    58    1
    49    67    68    1
    50     7     9   ar
    51     7     6   ar
    52    99   101   ar
    53    99   100   ar
    54   101   103   ar
    55     5     6    1
    56     9    11   ar
    57    46    47    1
    58     6     8   ar
    59   108   107    2
    60    60    63    1
    61    63    64    1
    62    17    18   ar
    63    17    19   ar
    64    11    10   ar
    65   100   102   ar
    66    18    20   ar
    67   107   106    1
    68    68    69    1
    69    68    71    1
    70   103   104   ar
    71     8    10   ar
    72    69    70    2
    73    47    48   ar
    74    47    49   ar
    75    48    50   ar
    76    78    77    2
    77    75    76    1
    78    77    76    1
    79   105   106    1
    80    64    65    1
    81    19    21   ar
    82   102   104   ar
    83    71    72    1
    84   106   109    1
    85    20    21   ar
    86    49    51   ar
    87    72    74    1
    88    72    73    1
    89    50    51   ar
    90    88    89    2
    91    88    87    1
    92    76    79    1
    93   109   111    1
    94   109   110    1
    95    65    66    1
    96    86    87    1
    97    79    80    1
    98    87    90    1
    99   110   112    1
   100    80    81    1
   101    90    91    1
   102    81    82    1
   103    91    92   ar
   104    91    93   ar
   105    82    83    2
   106    84    83    1
   107    83    85    1
