@<TRIPOS>MOLECULE
tmp/6hqdB01.pdb
 119 109 0 0 0
SMALL
GASTEIGER

@<TRIPOS>ATOM
      1  N          0.2920   14.5690   58.5170 N.3    78  PHE78      -0.1227
      2  CA         0.0120   13.3330   59.2770 C.3    78  PHE78       0.1736
      3  C         -0.9800   13.5780   60.4330 C.2    78  PHE78       0.2595
      4  O         -1.1250   12.6830   61.3070 O.2    78  PHE78      -0.2718
      5  CB         1.3220   12.6900   59.7470 C.3    78  PHE78       0.0547
      6  CG         2.2320   13.6150   60.5180 C.ar   78  PHE78      -0.0202
      7  CD1        1.9850   13.8850   61.8520 C.ar   78  PHE78      -0.0042
      8  CD2        3.2840   14.2780   59.8910 C.ar   78  PHE78      -0.0042
      9  CE1        2.8310   14.7410   62.5630 C.ar   78  PHE78      -0.0003
     10  CE2        4.1020   15.1440   60.5960 C.ar   78  PHE78      -0.0003
     11  CZ         3.8930   15.3490   61.9380 C.ar   78  PHE78      -0.0000
     12  N         -1.6550   14.7340   60.4640 N.am   79  VAL79      -0.1980
     13  CA        -2.6860   14.9230   61.5110 C.3    79  VAL79       0.1595
     14  C         -4.0540   15.2480   60.8850 C.2    79  VAL79       0.2287
     15  O         -4.1550   15.7740   59.7830 O.2    79  VAL79      -0.2864
     16  CB        -2.2430   15.8960   62.6200 C.3    79  VAL79       0.0276
     17  CG1       -0.7860   15.7430   63.0190 C.3    79  VAL79       0.0022
     18  CG2       -2.5550   17.3190   62.3190 C.3    79  VAL79       0.0022
     19  N         -2.9290   22.3670   61.7450 N.3    84  THR84      -0.1203
     20  CA        -1.7390   22.1400   62.5850 C.3    84  THR84       0.1994
     21  C         -0.4500   22.2890   61.7500 C.2    84  THR84       0.2617
     22  O          0.5780   22.8430   62.2240 O.2    84  THR84      -0.2717
     23  CB        -1.8670   20.7960   63.3320 C.3    84  THR84       0.1784
     24  OG1       -3.0600   20.7650   64.1250 O.3    84  THR84      -0.2211
     25  CG2       -0.7060   20.5340   64.2610 C.3    84  THR84       0.0376
     26  N         -0.4690   21.8070   60.4930 N.am   85  LEU85      -0.1979
     27  CA         0.8160   21.6550   59.7200 C.3    85  LEU85       0.1596
     28  C          0.7400   22.2860   58.3150 C.2    85  LEU85       0.2287
     29  O          1.7600   22.2710   57.5760 O.2    85  LEU85      -0.2864
     30  CB         1.1650   20.1630   59.5940 C.3    85  LEU85       0.0297
     31  CG         1.4500   19.4140   60.9050 C.3    85  LEU85       0.0022
     32  CD1        1.6770   17.9180   60.6800 C.3    85  LEU85       0.0001
     33  CD2        2.6370   20.0050   61.6760 C.3    85  LEU85       0.0001
     34  N          8.1240   18.4070   57.5860 N.3    96  ASN96      -0.1240
     35  CA         9.1390   17.7080   58.3790 C.3    96  ASN96       0.1653
     36  C          9.1460   16.2290   58.0160 C.2    96  ASN96       0.2266
     37  O          8.2240   15.7770   57.2870 O.2    96  ASN96      -0.2867
     38  CB         8.8810   17.9280   59.8700 C.3    96  ASN96       0.1155
     39  CG         7.5280   17.4160   60.3360 C.2    96  ASN96       0.2627
     40  OD1        7.3050   16.2130   60.3180 O.2    96  ASN96      -0.2716
     41  ND2        6.6500   18.2860   60.8330 N.am   96  ASN96      -0.0877
     42  N          8.5670   13.3520   59.5620 N.3    98  LEU98      -0.1245
     43  CA         7.3900   12.4870   59.8490 C.3    98  LEU98       0.1561
     44  C          6.3410   12.6830   58.7430 C.2    98  LEU98       0.2260
     45  O          5.5420   11.7630   58.4480 O.2    98  LEU98      -0.2867
     46  CB         6.8270   12.8240   61.2410 C.3    98  LEU98       0.0270
     47  CG         5.6000   12.0360   61.7160 C.3    98  LEU98       0.0019
     48  CD1        5.7440   10.5420   61.5200 C.3    98  LEU98       0.0001
     49  CD2        5.3530   12.3280   63.1910 C.3    98  LEU98       0.0001
     50  N          1.4400   24.9490   68.9260 N.3   181  ILE181     -0.1231
     51  CA         1.5090   24.2280   67.6030 C.3   181  ILE181      0.1692
     52  C          0.2340   23.4010   67.3920 C.2   181  ILE181      0.2592
     53  O         -0.3310   23.3930   66.2780 O.2   181  ILE181     -0.2718
     54  CB         2.7970   23.4000   67.4840 C.3   181  ILE181      0.0266
     55  CG1        4.0070   24.3260   67.3180 C.3   181  ILE181      0.0019
     56  CG2        2.6850   22.3920   66.3450 C.3   181  ILE181      0.0020
     57  CD1        5.3490   23.7060   67.6980 C.3   181  ILE181      0.0001
     58  N         -0.2900   22.7890   68.4600 N.am  182  THR182     -0.1953
     59  CA        -1.4000   21.8520   68.3080 C.3   182  THR182      0.1897
     60  C         -2.7280   22.4840   68.7150 C.2   182  THR182      0.2313
     61  O         -3.7210   21.7470   68.8920 O.2   182  THR182     -0.2863
     62  CB        -1.1290   20.5660   69.1010 C.3   182  THR182      0.1794
     63  OG1       -1.0060   20.8360   70.4860 O.3   182  THR182     -0.2208
     64  CG2        0.1480   19.9150   68.6640 C.3   182  THR182      0.0378
     65  N          9.1470   22.1220   64.7830 N.3   246  ALA246     -0.1231
     66  CA         7.8100   21.7460   65.2570 C.3   246  ALA246      0.1694
     67  C          7.7740   20.2540   65.6520 C.2   246  ALA246      0.2591
     68  O          7.2940   19.9060   66.7480 O.2   246  ALA246     -0.2718
     69  CB         6.7580   22.1240   64.2260 C.3   246  ALA246      0.0304
     70  N          8.2980   19.3840   64.7880 N.am  247  LEU247     -0.1980
     71  CA         8.3660   17.9680   65.0480 C.3   247  LEU247      0.1596
     72  C          9.1750   17.6800   66.3250 C.2   247  LEU247      0.2287
     73  O          8.7600   16.8900   67.1650 O.2   247  LEU247     -0.2864
     74  CB         9.0080   17.2690   63.8440 C.3   247  LEU247      0.0297
     75  CG         9.3560   15.7890   64.0650 C.3   247  LEU247      0.0022
     76  CD1        8.0930   14.9710   64.3560 C.3   247  LEU247      0.0001
     77  CD2       10.0780   15.2130   62.8580 C.3   247  LEU247      0.0001
     78  N          7.4100   19.3080   69.6350 N.3   250  VAL250     -0.1231
     79  CA         6.2200   18.6080   70.1600 C.3   250  VAL250      0.1692
     80  C          6.6010   17.1610   70.5130 C.2   250  VAL250      0.2592
     81  O          6.2280   16.6350   71.5550 O.2   250  VAL250     -0.2718
     82  CB         5.0350   18.6250   69.1820 C.3   250  VAL250      0.0266
     83  CG1        3.8840   17.7540   69.7190 C.3   250  VAL250      0.0020
     84  CG2        4.5960   20.0420   68.9090 C.3   250  VAL250      0.0020
     85  N          7.3540   16.5330   69.6110 N.am  251  GLY251     -0.1957
     86  CA         7.5920   15.1200   69.6350 C.3   251  GLY251      0.1869
     87  C          8.4370   14.7210   70.8250 C.2   251  GLY251      0.2309
     88  O          8.1960   13.6690   71.3760 O.2   251  GLY251     -0.2863
     89  N          4.6160   13.9440   74.4910 N.3   255  THR255     -0.1218
     90  CA         4.4410   12.5170   74.5060 C.3   255  THR255      0.1862
     91  C          4.9610   11.9390   75.8290 C.2   255  THR255      0.2287
     92  O          4.1960   11.2730   76.5910 O.2   255  THR255     -0.2866
     93  CB         5.1950   11.9360   73.3020 C.3   255  THR255      0.1770
     94  OG1        6.5090   12.4930   73.3510 O.3   255  THR255     -0.2211
     95  CG2        4.5450   12.3110   71.9900 C.3   255  THR255      0.0375
     96  N         -0.3330    9.5520   72.0880 N.3   298  ILE298     -0.1245
     97  CA        -0.7820   10.0460   70.7800 C.3   298  ILE298      0.1561
     98  C         -1.9890    9.2200   70.3540 C.2   298  ILE298      0.2260
     99  O         -1.8720    7.9890   70.0570 O.2   298  ILE298     -0.2867
    100  CB         0.3650    9.9950   69.7430 C.3   298  ILE298      0.0252
    101  CG1        1.5390   10.8620   70.1840 C.3   298  ILE298      0.0019
    102  CG2       -0.1120   10.3170   68.3320 C.3   298  ILE298      0.0019
    103  CD1        1.3180   12.3330   70.1130 C.3   298  ILE298      0.0001
    104  N         -2.7950    8.9100   64.1790 N.3   301  MET301     -0.1245
    105  CA        -1.9710    9.4540   63.0910 C.3   301  MET301      0.1570
    106  C         -2.7850    9.3360   61.8060 C.2   301  MET301      0.2261
    107  O         -3.5290    8.3300   61.6040 O.2   301  MET301     -0.2867
    108  CB        -0.6500    8.7060   62.9380 C.3   301  MET301      0.0387
    109  CG         0.3420    9.0140   64.0350 C.3   301  MET301      0.0595
    110  SD         1.3350   10.5040   63.7680 S.3   301  MET301     -0.1393
    111  CE         0.4400   11.6890   64.7570 C.3   301  MET301      0.0692
    112  N         -5.5120   14.7040   69.2270 N.3   399  LEU399     -0.1245
    113  CA        -4.1670   14.2440   68.8450 C.3   399  LEU399      0.1561
    114  C         -3.3610   13.9070   70.1060 C.2   399  LEU399      0.2260
    115  O         -2.8890   12.7690   70.2690 O.2   399  LEU399     -0.2867
    116  CB        -3.4520   15.3510   68.0860 C.3   399  LEU399      0.0270
    117  CG        -2.0010   15.0880   67.7150 C.3   399  LEU399      0.0019
    118  CD1       -1.8750   13.9790   66.6890 C.3   399  LEU399      0.0001
    119  CD2       -1.4000   16.3730   67.1940 C.3   399  LEU399      0.0001
@<TRIPOS>BOND
     1    37    36    2
     2    29    28    2
     3    34    35    1
     4    36    35    1
     5    28    27    1
     6    35    38    1
     7    45    44    2
     8     1     2    1
     9    44    43    1
    10     2     5    1
    11     2     3    1
    12    42    43    1
    13    30    27    1
    14    30    31    1
    15    27    26    1
    16     5     6    1
    17    15    14    2
    18    43    46    1
    19    38    39    1
    20     8     6   ar
    21     8    10   ar
    22    40    39    2
    23    39    41   am
    24     3    12   am
    25     3     4    2
    26    12    13    1
    27    26    21   am
    28     6     7   ar
    29    10    11   ar
    30    32    31    1
    31    14    13    1
    32    31    33    1
    33    46    47    1
    34    13    16    1
    35    48    47    1
    36   107   106    2
    37    47    49    1
    38    19    20    1
    39    21    22    2
    40    21    20    1
    41   106   105    1
    42     7     9   ar
    43    11     9   ar
    44    18    16    1
    45    20    23    1
    46    16    17    1
    47    77    75    1
    48   108   105    1
    49   108   109    1
    50   105   104    1
    51    23    24    1
    52    23    25    1
    53   110   109    1
    54   110   111    1
    55    74    75    1
    56    74    71    1
    57    75    76    1
    58    69    66    1
    59    65    66    1
    60    70    71    1
    61    70    67   am
    62    71    72    1
    63    66    67    1
    64    67    68    2
    65    53    52    2
    66    72    73    2
    67    56    54    1
    68   118   117    1
    69   119   117    1
    70    55    54    1
    71    55    57    1
    72    52    51    1
    73    52    58   am
    74    54    51    1
    75    51    50    1
    76   117   116    1
    77   116   113    1
    78    59    58    1
    79    59    60    1
    80    59    62    1
    81   102   100    1
    82    64    62    1
    83    60    61    2
    84   113   112    1
    85   113   114    1
    86    84    82    1
    87    62    63    1
    88    82    83    1
    89    82    79    1
    90    85    86    1
    91    85    80   am
    92    78    79    1
    93    86    87    1
    94   100   101    1
    95   100    97    1
    96    99    98    2
    97   114   115    2
    98   103   101    1
    99    79    80    1
   100    98    97    1
   101    80    81    2
   102    97    96    1
   103    87    88    2
   104    95    93    1
   105    93    94    1
   106    93    90    1
   107    89    90    1
   108    90    91    1
   109    91    92    2
