@<TRIPOS>MOLECULE
tmp/6hr7A00.pdb
 82 81 0 0 0
SMALL
GASTEIGER

@<TRIPOS>ATOM
      1  N         47.8960   40.1010  108.9890 N.3    85  ASN85      -0.1225
      2  CA        49.1740   40.7990  108.9470 C.3    85  ASN85       0.1785
      3  C         50.0140   40.3020  107.7830 C.2    85  ASN85       0.2598
      4  O         50.0960   39.0950  107.5340 O.2    85  ASN85      -0.2718
      5  CB        49.9650   40.6080  110.2460 C.3    85  ASN85       0.1169
      6  CG        49.8590   41.8050  111.1690 C.2    85  ASN85       0.2627
      7  OD1       50.5300   42.8210  110.9690 O.2    85  ASN85      -0.2716
      8  ND2       48.9970   41.7010  112.1780 N.am   85  ASN85      -0.0877
      9  N         50.6700   41.2410  107.1080 N.am   86  GLY86      -0.1942
     10  CA        51.5160   40.9520  105.9660 C.3    86  GLY86       0.2014
     11  C         50.9180   41.4540  104.6680 C.2    86  GLY86       0.2639
     12  O         49.9700   42.2470  104.6360 O.2    86  GLY86      -0.2714
     13  N         51.5050   40.9760  103.5750 N.am   87  GLU87      -0.1963
     14  CA        51.0610   41.3380  102.2390 C.3    87  GLU87       0.1733
     15  C         50.1160   40.2640  101.7300 C.2    87  GLU87       0.2616
     16  O         50.4240   39.0670  101.8030 O.2    87  GLU87      -0.2715
     17  CB        52.2270   41.4980  101.2650 C.3    87  GLU87       0.0429
     18  CG        53.3290   42.4020  101.7520 C.3    87  GLU87       0.1163
     19  CD        54.1050   43.0020  100.5990 C.2    87  GLU87       0.3649
     20  OE1       54.4390   44.2010  100.6870 O.co2  87  GLU87      -0.2457
     21  OE2       54.3680   42.2780   99.6100 O.co2  87  GLU87      -0.2457
     22  N         48.9740   40.7030  101.2160 N.am   88  PHE88      -0.1960
     23  CA        47.9370   39.8310  100.6930 C.3    88  PHE88       0.1771
     24  C         47.7160   40.1620   99.2260 C.2    88  PHE88       0.2619
     25  O         47.8910   41.3050   98.8000 O.2    88  PHE88      -0.2715
     26  CB        46.6110   39.9890  101.4810 C.3    88  PHE88       0.0574
     27  CG        46.7200   39.5860  102.9320 C.ar   88  PHE88      -0.0200
     28  CD1       47.1710   40.4880  103.8850 C.ar   88  PHE88      -0.0042
     29  CD2       46.4040   38.2980  103.3370 C.ar   88  PHE88      -0.0042
     30  CE1       47.2730   40.1210  105.2210 C.ar   88  PHE88      -0.0003
     31  CE2       46.5140   37.9220  104.6790 C.ar   88  PHE88      -0.0003
     32  CZ        46.9470   38.8350  105.6150 C.ar   88  PHE88      -0.0000
     33  N         47.3750   39.1390   98.4530 N.am   89  TYR89      -0.1974
     34  CA        46.9020   39.3000   97.0860 C.3    89  TYR89       0.1639
     35  C         45.4380   38.8970   97.0780 C.2    89  TYR89       0.2290
     36  O         45.1110   37.7220   97.2670 O.2    89  TYR89      -0.2864
     37  CB        47.7350   38.4720   96.1150 C.3    89  TYR89       0.0560
     38  CG        49.0640   39.1250   95.8250 C.ar   89  TYR89      -0.0198
     39  CD1       50.1380   38.9800   96.6960 C.ar   89  TYR89      -0.0009
     40  CD2       49.2410   39.8990   94.6860 C.ar   89  TYR89      -0.0009
     41  CE1       51.3530   39.5860   96.4380 C.ar   89  TYR89       0.0417
     42  CE2       50.4540   40.5050   94.4170 C.ar   89  TYR89       0.0417
     43  CZ        51.5060   40.3470   95.2930 C.ar   89  TYR89       0.1957
     44  OH        52.7110   40.9540   95.0180 O.3    89  TYR89      -0.2866
     45  N         41.3250   30.1260  100.0880 N.3   355  GLU355     -0.1231
     46  CA        42.6520   29.5610  100.3350 C.3   355  GLU355      0.1699
     47  C         43.7620   30.5110   99.8920 C.2   355  GLU355      0.2592
     48  O         44.7900   30.6310  100.5650 O.2   355  GLU355     -0.2718
     49  CB        42.7950   28.2260   99.6110 C.3   355  GLU355      0.0402
     50  CG        41.9460   27.1180  100.1920 C.3   355  GLU355      0.1161
     51  CD        42.0450   25.8170   99.4060 C.2   355  GLU355      0.3649
     52  OE1       42.6010   25.8090   98.2810 O.co2 355  GLU355     -0.2457
     53  OE2       41.5290   24.8000   99.9090 O.co2 355  GLU355     -0.2457
     54  N         43.5930   31.1780   98.7470 N.am  356  LEU356     -0.1966
     55  CA        44.5840   32.1640   98.3270 C.3   356  LEU356      0.1728
     56  C         44.7490   33.2780   99.3540 C.2   356  LEU356      0.2616
     57  O         45.8010   33.9270   99.3900 O.2   356  LEU356     -0.2715
     58  CB        44.1940   32.7550   96.9680 C.3   356  LEU356      0.0311
     59  CG        44.0970   31.7530   95.8100 C.3   356  LEU356      0.0022
     60  CD1       43.5960   32.4420   94.5790 C.3   356  LEU356      0.0001
     61  CD2       45.4450   31.0790   95.5440 C.3   356  LEU356      0.0001
     62  N         43.7390   33.5160  100.1860 N.am  357  LEU357     -0.1963
     63  CA        43.8540   34.4640  101.2860 C.3   357  LEU357      0.1728
     64  C         44.2580   33.8050  102.6020 C.2   357  LEU357      0.2616
     65  O         44.5370   34.5180  103.5710 O.2   357  LEU357     -0.2715
     66  CB        42.5170   35.2000  101.4800 C.3   357  LEU357      0.0311
     67  CG        42.0910   36.1510  100.3520 C.3   357  LEU357      0.0022
     68  CD1       40.6500   36.6040  100.5470 C.3   357  LEU357      0.0001
     69  CD2       43.0430   37.3430  100.2680 C.3   357  LEU357      0.0001
     70  N         44.3510   32.4790  102.6430 N.am  358  GLY358     -0.1955
     71  CA        44.5000   31.7730  103.9040 C.3   358  GLY358      0.1869
     72  C         43.3180   31.9340  104.8360 C.2   358  GLY358      0.2309
     73  O         43.4990   31.9370  106.0620 O.2   358  GLY358     -0.2863
     74  N         39.8590   37.3390  110.3240 N.3   367  LYS367     -0.1245
     75  CA        40.9110   37.6370  109.3570 C.3   367  LYS367      0.1561
     76  C         40.3020   38.0850  108.0320 C.2   367  LYS367      0.2260
     77  O         40.7270   39.0850  107.4370 O.2   367  LYS367     -0.2867
     78  CB        41.8010   36.4110  109.1510 C.3   367  LYS367      0.0271
     79  CG        43.1030   36.6990  108.4230 C.3   367  LYS367      0.0035
     80  CD        43.6610   35.4380  107.7730 C.3   367  LYS367      0.0206
     81  CE        45.1180   35.5930  107.3850 C.3   367  LYS367      0.1093
     82  NZ        45.6000   34.4400  106.5710 N.3   367  LYS367     -0.1314
@<TRIPOS>BOND
     1    42    40   ar
     2    42    43   ar
     3    60    59    1
     4    40    38   ar
     5    44    43    1
     6    43    41   ar
     7    61    59    1
     8    59    58    1
     9    38    37    1
    10    38    39   ar
    11    37    34    1
    12    41    39   ar
    13    58    55    1
    14    35    34    1
    15    35    36    2
    16    34    33    1
    17    52    51   ar
    18    55    54    1
    19    55    56    1
    20    33    24   am
    21    54    47   am
    22    25    24    2
    23    24    23    1
    24    56    57    2
    25    56    62   am
    26    51    53   ar
    27    51    50    1
    28    21    19   ar
    29    49    50    1
    30    49    46    1
    31    47    46    1
    32    47    48    2
    33    45    46    1
    34    62    63    1
    35    69    67    1
    36    67    68    1
    37    67    66    1
    38    19    20   ar
    39    19    18    1
    40    23    22    1
    41    23    26    1
    42    22    15   am
    43    17    18    1
    44    17    14    1
    45    63    66    1
    46    63    64    1
    47    26    27    1
    48    15    16    2
    49    15    14    1
    50    14    13    1
    51    64    70   am
    52    64    65    2
    53    70    71    1
    54    27    29   ar
    55    27    28   ar
    56    29    31   ar
    57    13    11   am
    58    28    30   ar
    59    71    72    1
    60    12    11    2
    61    11    10    1
    62    31    32   ar
    63    72    73    2
    64    30    32   ar
    65    10     9    1
    66    82    81    1
    67     9     3   am
    68    81    80    1
    69    77    76    2
    70     4     3    2
    71    80    79    1
    72     3     2    1
    73    76    75    1
    74    79    78    1
    75     2     1    1
    76     2     5    1
    77    78    75    1
    78    75    74    1
    79     5     6    1
    80     7     6    2
    81     6     8   am
