@<TRIPOS>MOLECULE
tmp/6hr8D00.pdb
 131 126 0 0 0
SMALL
GASTEIGER

@<TRIPOS>ATOM
      1  N        233.3110   48.9830  163.7840 N.3    58  LYS58      -0.1245
      2  CA       233.0510   49.6350  162.5050 C.3    58  LYS58       0.1561
      3  C        234.0460   50.7180  162.1040 C.2    58  LYS58       0.2260
      4  O        233.9670   51.1920  160.9650 O.2    58  LYS58      -0.2867
      5  CB       231.6440   50.2570  162.5090 C.3    58  LYS58       0.0271
      6  CG       230.5100   49.2370  162.4750 C.3    58  LYS58       0.0035
      7  CD       229.1410   49.8790  162.6840 C.3    58  LYS58       0.0206
      8  CE       228.0300   48.8450  162.5470 C.3    58  LYS58       0.1093
      9  NZ       226.6780   49.3980  162.8630 N.3    58  LYS58      -0.1314
     10  N        222.1000   43.7310  145.5560 N.3   160  THR160     -0.1203
     11  CA       222.9440   43.7180  146.7420 C.3   160  THR160      0.1994
     12  C        222.6280   44.8360  147.7280 C.2   160  THR160      0.2619
     13  O        223.0870   44.7710  148.8740 O.2   160  THR160     -0.2717
     14  CB       224.4140   43.8150  146.3340 C.3   160  THR160      0.1784
     15  OG1      224.6250   45.0020  145.5540 O.3   160  THR160     -0.2211
     16  CG2      224.8140   42.6020  145.5180 C.3   160  THR160      0.0376
     17  N        221.8480   45.8400  147.3290 N.am  161  THR161     -0.1938
     18  CA       221.6580   47.0280  148.1490 C.3   161  THR161      0.2028
     19  C        220.2540   47.5800  147.9580 C.2   161  THR161      0.2642
     20  O        219.7160   47.5670  146.8490 O.2   161  THR161     -0.2714
     21  CB       222.7040   48.0990  147.7930 C.3   161  THR161      0.1808
     22  OG1      222.4430   49.3020  148.5260 O.3   161  THR161     -0.2208
     23  CG2      222.6870   48.4020  146.3000 C.3   161  THR161      0.0379
     24  N        219.6660   48.0530  149.0570 N.am  162  ARG162     -0.1963
     25  CA       218.3370   48.6460  149.0460 C.3   162  ARG162      0.1729
     26  C        218.3500   50.1180  148.6570 C.2   162  ARG162      0.2616
     27  O        217.2980   50.6600  148.3010 O.2   162  ARG162     -0.2715
     28  CB       217.6800   48.4830  150.4270 C.3   162  ARG162      0.0348
     29  CG       216.3480   49.2200  150.5940 C.3   162  ARG162      0.0492
     30  CD       215.6230   48.8030  151.8780 C.3   162  ARG162      0.2205
     31  NE       215.9340   49.6780  153.0120 N.pl3 162  ARG162     -0.0865
     32  CZ       215.1670   50.6800  153.4420 C.cat 162  ARG162      0.5346
     33  NH1      214.0160   50.9610  152.8440 N.pl3 162  ARG162      0.1354
     34  NH2      215.5540   51.4080  154.4830 N.pl3 162  ARG162      0.1354
     35  N        219.5130   50.7660  148.6960 N.am  163  HIS163     -0.1973
     36  CA       219.6300   52.1950  148.4450 C.3   163  HIS163      0.1656
     37  C        220.4290   52.5260  147.1960 C.2   163  HIS163      0.2291
     38  O        220.1650   53.5500  146.5630 O.2   163  HIS163     -0.2864
     39  CB       220.2830   52.8840  149.6470 C.3   163  HIS163      0.0771
     40  CG       219.4160   52.9080  150.8650 C.ar  163  HIS163      0.0820
     41  ND1      218.4350   53.8550  151.0650 N.ar  163  HIS163     -0.2267
     42  CD2      219.3700   52.0860  151.9390 C.ar  163  HIS163      0.1154
     43  CE1      217.8290   53.6210  152.2160 C.ar  163  HIS163      0.1986
     44  NE2      218.3770   52.5530  152.7660 N.ar  163  HIS163     -0.2212
     45  N        224.2320   56.5450  145.4590 N.3   187  THR187     -0.1203
     46  CA       224.3790   55.9470  146.7810 C.3   187  THR187      0.1994
     47  C        223.4290   56.5410  147.8140 C.2   187  THR187      0.2618
     48  O        223.5380   56.2120  148.9980 O.2   187  THR187     -0.2717
     49  CB       225.8250   56.0800  147.2670 C.3   187  THR187      0.1784
     50  OG1      226.2150   57.4590  147.2730 O.3   187  THR187     -0.2211
     51  CG2      226.7540   55.3030  146.3540 C.3   187  THR187      0.0376
     52  N        222.5180   57.4140  147.4120 N.am  188  GLY188     -0.1942
     53  CA       221.6220   58.0090  148.3890 C.3   188  GLY188      0.2014
     54  C        222.3940   58.9370  149.3030 C.2   188  GLY188      0.2639
     55  O        223.1710   59.7830  148.8480 O.2   188  GLY188     -0.2714
     56  N        222.2220   58.7530  150.6100 N.am  189  ASP189     -0.1957
     57  CA       222.8350   59.6390  151.5890 C.3   189  ASP189      0.1840
     58  C        224.2010   59.1650  152.0540 C.2   189  ASP189      0.2622
     59  O        224.8810   59.9040  152.7740 O.2   189  ASP189     -0.2715
     60  CB       221.9220   59.8050  152.8010 C.3   189  ASP189      0.1450
     61  CG       220.6820   60.6040  152.4800 C.2   189  ASP189      0.3671
     62  OD1      220.7670   61.8530  152.4530 O.co2 189  ASP189     -0.2456
     63  OD2      219.6170   59.9880  152.2540 O.co2 189  ASP189     -0.2456
     64  N        224.6070   57.9590  151.6860 N.am  190  ALA190     -0.1963
     65  CA       225.8970   57.4350  152.0940 C.3   190  ALA190      0.1728
     66  C        226.9700   57.8350  151.0910 C.2   190  ALA190      0.2616
     67  O        226.6850   58.1850  149.9450 O.2   190  ALA190     -0.2715
     68  CB       225.8390   55.9140  152.2180 C.3   190  ALA190      0.0334
     69  N        228.2240   57.7750  151.5410 N.am  191  MET191     -0.1963
     70  CA       229.3420   57.9450  150.6210 C.3   191  MET191      0.1736
     71  C        229.4730   56.7400  149.7020 C.2   191  MET191      0.2617
     72  O        229.8940   56.8800  148.5490 O.2   191  MET191     -0.2715
     73  CB       230.6370   58.1760  151.3990 C.3   191  MET191      0.0427
     74  CG       231.8360   58.5200  150.5250 C.3   191  MET191      0.0599
     75  SD       232.9500   57.1380  150.2210 S.3   191  MET191     -0.1393
     76  CE       233.6980   56.9590  151.8420 C.3   191  MET191      0.0692
     77  N        229.1310   55.5530  150.1970 N.am  192  GLY192     -0.1940
     78  CA       229.0380   54.3860  149.3470 C.3   192  GLY192      0.2014
     79  C        230.3600   53.7190  149.0680 C.2   192  GLY192      0.2639
     80  O        230.5160   53.0890  148.0170 O.2   192  GLY192     -0.2714
     81  N        231.3200   53.8290  149.9880 N.am  193  MET193     -0.1963
     82  CA       232.6150   53.1900  149.7890 C.3   193  MET193      0.1736
     83  C        232.4400   51.6930  149.5690 C.2   193  MET193      0.2616
     84  O        232.7850   51.1570  148.5090 O.2   193  MET193     -0.2715
     85  CB       233.5160   53.4340  151.0030 C.3   193  MET193      0.0427
     86  CG       234.9710   53.0720  150.7410 C.3   193  MET193      0.0599
     87  SD       236.1470   53.4490  152.0530 S.3   193  MET193     -0.1393
     88  CE       235.6440   52.2210  153.2530 C.3   193  MET193      0.0692
     89  N        231.8900   51.0040  150.5700 N.am  194  ASN194     -0.1958
     90  CA       231.7070   49.5600  150.4980 C.3   194  ASN194      0.1819
     91  C        230.4810   49.1710  149.6800 C.2   194  ASN194      0.2621
     92  O        230.4630   48.0890  149.0840 O.2   194  ASN194     -0.2715
     93  CB       231.6120   48.9780  151.9110 C.3   194  ASN194      0.1195
     94  CG       232.7440   49.4490  152.8130 C.2   194  ASN194      0.2630
     95  OD1      233.8320   48.8730  152.8120 O.2   194  ASN194     -0.2716
     96  ND2      232.4920   50.4990  153.5900 N.am  194  ASN194     -0.0877
     97  N        229.4520   50.0230  149.6430 N.am  195  MET195     -0.1977
     98  CA       228.2460   49.6990  148.8830 C.3   195  MET195      0.1605
     99  C        228.5630   49.4160  147.4210 C.2   195  MET195      0.2287
    100  O        228.1270   48.4010  146.8650 O.2   195  MET195     -0.2864
    101  CB       227.2240   50.8310  148.9930 C.3   195  MET195      0.0413
    102  CG       225.9310   50.5470  148.2240 C.3   195  MET195      0.0598
    103  SD       224.8580   51.9820  147.9940 S.3   195  MET195     -0.1393
    104  CE       224.0860   52.0480  149.6070 C.3   195  MET195      0.0692
    105  N        230.3970   45.9860  146.9380 N.3   198  ILE198     -0.1245
    106  CA       229.5500   44.7940  146.9920 C.3   198  ILE198      0.1561
    107  C        228.7370   44.6550  145.7120 C.2   198  ILE198      0.2260
    108  O        228.6390   43.5670  145.1310 O.2   198  ILE198     -0.2867
    109  CB       228.6290   44.8500  148.2250 C.3   198  ILE198      0.0252
    110  CG1      229.4400   45.0070  149.5150 C.3   198  ILE198      0.0019
    111  CG2      227.7460   43.6110  148.2910 C.3   198  ILE198      0.0019
    112  CD1      228.6600   45.6620  150.6320 C.3   198  ILE198      0.0001
    113  N        225.4590   59.2470  156.5090 N.3   341  VAL341     -0.1231
    114  CA       225.1910   58.0190  157.2460 C.3   341  VAL341      0.1692
    115  C        226.3350   57.0480  156.9880 C.2   341  VAL341      0.2593
    116  O        226.8800   56.9930  155.8800 O.2   341  VAL341     -0.2718
    117  CB       223.8360   57.3920  156.8510 C.3   341  VAL341      0.0266
    118  CG1      222.6880   58.1910  157.4490 C.3   341  VAL341      0.0020
    119  CG2      223.7030   57.3000  155.3460 C.3   341  VAL341      0.0020
    120  N        226.6900   56.2750  158.0150 N.am  342  GLY342     -0.1942
    121  CA       227.7460   55.2910  157.8960 C.3   342  GLY342      0.2014
    122  C        229.1380   55.8770  158.0600 C.2   342  GLY342      0.2639
    123  O        229.3480   57.0860  158.1880 O.2   342  GLY342     -0.2714
    124  N        230.1120   54.9710  158.0610 N.am  343  GLY343     -0.1954
    125  CA       231.5040   55.3730  158.1610 C.3   343  GLY343      0.1869
    126  C        231.7840   56.0470  159.4880 C.2   343  GLY343      0.2309
    127  O        231.3850   55.5650  160.5560 O.2   343  GLY343     -0.2863
    128  N        219.2460   60.4880  156.9700 N.3   362  GLY362     -0.1225
    129  CA       218.8100   60.3790  155.5940 C.3   362  GLY362      0.1811
    130  C        218.2600   61.6740  155.0300 C.2   362  GLY362      0.2280
    131  O        217.8660   62.5870  155.7540 O.2   362  GLY362     -0.2866
@<TRIPOS>BOND
     1   108   107    2
     2    45    46    1
     3    16    14    1
     4    15    14    1
     5    10    11    1
     6   107   106    1
     7    23    21    1
     8    14    11    1
     9    51    49    1
    10    38    37    2
    11    11    12    1
    12    46    49    1
    13    46    47    1
    14    20    19    2
    15   100    99    2
    16   105   106    1
    17   106   109    1
    18    37    36    1
    19    49    50    1
    20    17    12   am
    21    17    18    1
    22    52    47   am
    23    52    53    1
    24    99    98    1
    25    12    13    2
    26    21    18    1
    27    21    22    1
    28    47    48    2
    29    19    18    1
    30    19    24   am
    31   103   102    1
    32   103   104    1
    33    80    79    2
    34   102   101    1
    35   109   111    1
    36   109   110    1
    37    27    26    2
    38    53    54    1
    39    36    35    1
    40    36    39    1
    41    84    83    2
    42    72    71    2
    43    26    35   am
    44    26    25    1
    45    55    54    2
    46    98   101    1
    47    98    97    1
    48    25    24    1
    49    25    28    1
    50    79    78    1
    51    79    81   am
    52    92    91    2
    53    54    56   am
    54    78    77    1
    55   110   112    1
    56    83    82    1
    57    83    89   am
    58    97    91   am
    59    39    40    1
    60    91    90    1
    61    71    77   am
    62    71    70    1
    63    82    81    1
    64    82    85    1
    65    67    66    2
    66    75    74    1
    67    75    76    1
    68    28    29    1
    69    90    89    1
    70    90    93    1
    71    74    73    1
    72    29    30    1
    73    56    57    1
    74    70    73    1
    75    70    69    1
    76    86    85    1
    77    86    87    1
    78    40    41   ar
    79    40    42   ar
    80    41    43   ar
    81    66    69   am
    82    66    65    1
    83    57    58    1
    84    57    60    1
    85    64    58   am
    86    64    65    1
    87    30    31    1
    88    93    94    1
    89    42    44   ar
    90    87    88    1
    91    58    59    2
    92    65    68    1
    93    43    44   ar
    94    63    61   ar
    95    62    61   ar
    96    61    60    1
    97    95    94    2
    98    94    96   am
    99    33    32    1
   100    31    32    2
   101    32    34    1
   102   130   129    1
   103   130   131    2
   104   119   117    1
   105   129   128    1
   106   116   115    2
   107   113   114    1
   108   117   114    1
   109   117   118    1
   110   115   114    1
   111   115   120   am
   112   121   120    1
   113   121   122    1
   114   122   124   am
   115   122   123    2
   116   124   125    1
   117   125   126    1
   118   126   127    2
   119     4     3    2
   120     3     2    1
   121     6     5    1
   122     6     7    1
   123     2     5    1
   124     2     1    1
   125     8     7    1
   126     8     9    1
