@<TRIPOS>MOLECULE
tmp/6hrcA00.pdb
 134 127 0 0 0
SMALL
GASTEIGER

@<TRIPOS>ATOM
      1  N         -8.3140  -22.3480   43.5140 N.3   121  TYR121     -0.1241
      2  CA        -9.1210  -23.0650   42.5260 C.3   121  TYR121      0.1605
      3  C        -10.5020  -22.4370   42.3450 C.2   121  TYR121      0.2264
      4  O        -11.0300  -22.4100   41.2310 O.2   121  TYR121     -0.2867
      5  CB        -9.2650  -24.5370   42.9110 C.3   121  TYR121      0.0534
      6  CG       -10.3690  -25.2540   42.1520 C.ar  121  TYR121     -0.0201
      7  CD1      -11.5770  -25.5720   42.7650 C.ar  121  TYR121     -0.0009
      8  CD2      -10.2030  -25.6000   40.8230 C.ar  121  TYR121     -0.0009
      9  CE1      -12.5820  -26.2260   42.0690 C.ar  121  TYR121      0.0417
     10  CE2      -11.2000  -26.2450   40.1240 C.ar  121  TYR121      0.0417
     11  CZ       -12.3830  -26.5580   40.7430 C.ar  121  TYR121      0.1957
     12  OH       -13.3570  -27.2030   40.0120 O.3   121  TYR121     -0.2866
     13  N        -12.2180  -20.4880   39.4850 N.3   125  THR125     -0.1218
     14  CA       -13.4890  -21.0180   39.0240 C.3   125  THR125      0.1862
     15  C        -14.4180  -19.9000   38.6010 C.2   125  THR125      0.2287
     16  O        -15.2310  -20.0860   37.6900 O.2   125  THR125     -0.2866
     17  CB       -14.1350  -21.8810   40.1030 C.3   125  THR125      0.1770
     18  OG1      -14.7360  -23.0230   39.4850 O.3   125  THR125     -0.2211
     19  CG2      -15.2120  -21.1010   40.8790 C.3   125  THR125      0.0375
     20  N        -19.8040  -20.9940   48.6890 N.3   358  TYR358     -0.1241
     21  CA       -19.0190  -20.3320   47.6590 C.3   358  TYR358      0.1605
     22  C        -19.1510  -18.8180   47.7800 C.2   358  TYR358      0.2264
     23  O        -20.1410  -18.3020   48.3050 O.2   358  TYR358     -0.2867
     24  CB       -19.4440  -20.8060   46.2770 C.3   358  TYR358      0.0534
     25  CG       -18.9370  -22.1870   45.9380 C.ar  358  TYR358     -0.0201
     26  CD1      -17.6800  -22.3640   45.3740 C.ar  358  TYR358     -0.0009
     27  CD2      -19.7110  -23.3150   46.1760 C.ar  358  TYR358     -0.0009
     28  CE1      -17.2050  -23.6210   45.0530 C.ar  358  TYR358      0.0417
     29  CE2      -19.2420  -24.5840   45.8570 C.ar  358  TYR358      0.0417
     30  CZ       -17.9850  -24.7290   45.2950 C.ar  358  TYR358      0.1957
     31  OH       -17.4980  -25.9780   44.9700 O.3   358  TYR358     -0.2866
     32  N        -22.4810  -17.4490   48.2220 N.3   361  LYS361     -0.1245
     33  CA       -23.6070  -18.3710   48.1770 C.3   361  LYS361      0.1561
     34  C        -23.9740  -18.8650   49.5720 C.2   361  LYS361      0.2260
     35  O        -23.2270  -18.6950   50.5400 O.2   361  LYS361     -0.2867
     36  CB       -23.2880  -19.5660   47.2720 C.3   361  LYS361      0.0271
     37  CG       -23.1370  -19.2250   45.8020 C.3   361  LYS361      0.0035
     38  CD       -22.8380  -20.4740   44.9960 C.3   361  LYS361      0.0206
     39  CE       -22.7560  -20.1640   43.5180 C.3   361  LYS361      0.1093
     40  NZ       -24.0580  -19.6670   43.0080 N.3   361  LYS361     -0.1314
     41  N        -23.5940  -25.1420   52.0350 N.3   364  LEU364     -0.1245
     42  CA       -24.0210  -26.4980   51.7340 C.3   364  LEU364      0.1561
     43  C        -23.8380  -27.4470   52.9040 C.2   364  LEU364      0.2260
     44  O        -24.5100  -28.4830   52.9500 O.2   364  LEU364     -0.2867
     45  CB       -23.2450  -27.0520   50.5340 C.3   364  LEU364      0.0270
     46  CG       -23.5990  -26.5770   49.1270 C.3   364  LEU364      0.0019
     47  CD1      -23.1760  -25.1350   48.8970 C.3   364  LEU364      0.0001
     48  CD2      -22.9460  -27.4900   48.1110 C.3   364  LEU364      0.0001
     49  N        -28.0780  -35.7100   42.9870 N.3   384  SER384     -0.1202
     50  CA       -27.3090  -34.8030   42.1460 C.3   384  SER384      0.2020
     51  C        -27.5650  -33.3520   42.5330 C.2   384  SER384      0.2619
     52  O        -28.6870  -32.8510   42.4030 O.2   384  SER384     -0.2717
     53  CB       -27.6610  -35.0270   40.6770 C.3   384  SER384      0.2103
     54  OG       -27.0700  -34.0300   39.8630 O.3   384  SER384     -0.2182
     55  N        -26.5220  -32.6810   43.0120 N.am  385  GLY385     -0.1942
     56  CA       -26.5730  -31.2650   43.2860 C.3   385  GLY385      0.2014
     57  C        -26.5090  -30.8630   44.7430 C.2   385  GLY385      0.2639
     58  O        -26.6650  -29.6740   45.0400 O.2   385  GLY385     -0.2714
     59  N        -26.2770  -31.8050   45.6610 N.am  386  CYS386     -0.1953
     60  CA       -26.3160  -31.4840   47.0830 C.3   386  CYS386      0.1843
     61  C        -24.9530  -31.1100   47.6590 C.2   386  CYS386      0.2626
     62  O        -24.9040  -30.4270   48.6900 O.2   386  CYS386     -0.2714
     63  CB       -26.9210  -32.6520   47.8740 C.3   386  CYS386      0.0997
     64  SG       -25.9680  -34.1830   47.8690 S.3   386  CYS386     -0.0797
     65  N        -23.8530  -31.5280   47.0280 N.am  387  GLY387     -0.1940
     66  CA       -22.5410  -31.0260   47.4020 C.3   387  GLY387      0.2014
     67  C        -21.4520  -32.0480   47.6640 C.2   387  GLY387      0.2639
     68  O        -20.6180  -31.8400   48.5480 O.2   387  GLY387     -0.2714
     69  N        -21.4200  -33.1370   46.8940 N.am  388  LYS388     -0.1963
     70  CA       -20.4140  -34.1730   47.1160 C.3   388  LYS388      0.1728
     71  C        -19.0480  -33.7720   46.5620 C.2   388  LYS388      0.2617
     72  O        -18.0480  -33.7550   47.2950 O.2   388  LYS388     -0.2715
     73  CB       -20.8750  -35.4910   46.4990 C.3   388  LYS388      0.0311
     74  CG       -22.0570  -36.0900   47.2010 C.3   388  LYS388      0.0038
     75  CD       -22.3690  -37.4630   46.6560 C.3   388  LYS388      0.0206
     76  CE       -23.0250  -37.3790   45.2890 C.3   388  LYS388      0.1093
     77  NZ       -24.3730  -36.7380   45.3220 N.3   388  LYS388     -0.1314
     78  N        -18.9770  -33.4770   45.2600 N.am  389  SER389     -0.1936
     79  CA       -17.7030  -33.0600   44.6870 C.3   389  SER389      0.2055
     80  C        -17.1730  -31.8200   45.3790 C.2   389  SER389      0.2643
     81  O        -15.9610  -31.6590   45.4950 O.2   389  SER389     -0.2714
     82  CB       -17.8280  -32.8090   43.1830 C.3   389  SER389      0.2130
     83  OG       -17.5070  -33.9740   42.4420 O.3   389  SER389     -0.2179
     84  N        -18.0580  -30.9450   45.8630 N.am  390  THR390     -0.1950
     85  CA       -17.6040  -29.7860   46.6270 C.3   390  THR390      0.1897
     86  C        -16.9250  -30.2190   47.9220 C.2   390  THR390      0.2313
     87  O        -15.8090  -29.7770   48.2300 O.2   390  THR390     -0.2863
     88  CB       -18.7770  -28.8540   46.9220 C.3   390  THR390      0.1794
     89  OG1      -19.3460  -28.3970   45.6880 O.3   390  THR390     -0.2208
     90  CG2      -18.3030  -27.6610   47.7260 C.3   390  THR390      0.0378
     91  N        -14.0000  -36.9480   36.8370 N.3   430  GLN430     -0.1245
     92  CA       -15.3430  -37.1670   36.2910 C.3   430  GLN430      0.1566
     93  C        -15.5360  -36.5720   34.8910 C.2   430  GLN430      0.2260
     94  O        -16.0380  -37.2630   33.9960 O.2   430  GLN430     -0.2867
     95  CB       -16.4020  -36.6440   37.2780 C.3   430  GLN430      0.0367
     96  CG       -17.2980  -35.4940   36.8140 C.3   430  GLN430      0.0905
     97  CD       -17.4800  -34.4370   37.8910 C.2   430  GLN430      0.2608
     98  OE1      -18.5990  -34.1610   38.3280 O.2   430  GLN430     -0.2717
     99  NE2      -16.3740  -33.8410   38.3240 N.am  430  GLN430     -0.0878
    100  N        -14.7610  -39.9980   42.2560 N.3   509  ASP509     -0.1225
    101  CA       -15.6700  -39.0370   41.6260 C.3   509  ASP509      0.1805
    102  C        -16.0690  -39.5050   40.2210 C.2   509  ASP509      0.2597
    103  O        -15.6340  -38.9590   39.2040 O.2   509  ASP509     -0.2718
    104  CB       -15.0430  -37.6340   41.5740 C.3   509  ASP509      0.1424
    105  CG       -16.0630  -36.5450   41.2830 C.2   509  ASP509      0.3668
    106  OD1      -17.1330  -36.8600   40.7250 O.co2 509  ASP509     -0.2456
    107  OD2      -15.7990  -35.3720   41.6190 O.co2 509  ASP509     -0.2456
    108  N        -16.9100  -40.5440   40.1970 N.am  510  GLN510     -0.1979
    109  CA       -17.4710  -41.0700   38.9500 C.3   510  GLN510      0.1601
    110  C        -16.3840  -41.5140   37.9750 C.2   510  GLN510      0.2287
    111  O        -16.4930  -41.3030   36.7660 O.2   510  GLN510     -0.2864
    112  CB       -18.3810  -40.0390   38.2810 C.3   510  GLN510      0.0394
    113  CG       -19.4930  -39.5350   39.1480 C.3   510  GLN510      0.0908
    114  CD       -20.7590  -40.3370   38.9700 C.2   510  GLN510      0.2608
    115  OE1      -21.8180  -39.7780   38.6790 O.2   510  GLN510     -0.2717
    116  NE2      -20.6610  -41.6560   39.1340 N.am  510  GLN510     -0.0878
    117  N        -16.7940  -41.7110   44.7330 N.3   539  ILE539     -0.1245
    118  CA       -18.0620  -41.0350   44.4650 C.3   539  ILE539      0.1561
    119  C        -18.6450  -41.6450   43.2040 C.2   539  ILE539      0.2260
    120  O        -18.0750  -41.4950   42.1160 O.2   539  ILE539     -0.2867
    121  CB       -17.9100  -39.5180   44.3020 C.3   539  ILE539      0.0252
    122  CG1      -17.2770  -38.8940   45.5390 C.3   539  ILE539      0.0019
    123  CG2      -19.2660  -38.8860   44.0180 C.3   539  ILE539      0.0019
    124  CD1      -17.1700  -37.3920   45.4520 C.3   539  ILE539      0.0001
    125  N        -22.7230  -42.4470   41.5240 N.3   541  HIS541     -0.1241
    126  CA       -24.1760  -42.4820   41.6520 C.3   541  HIS541      0.1621
    127  C        -24.7150  -43.8940   41.4720 C.2   541  HIS541      0.2264
    128  O        -25.7440  -44.2450   42.0600 O.2   541  HIS541     -0.2867
    129  CB       -24.8140  -41.5420   40.6330 C.3   541  HIS541      0.0745
    130  CG       -24.6690  -40.0940   40.9750 C.ar  541  HIS541      0.0817
    131  ND1      -24.1980  -39.1590   40.0790 N.ar  541  HIS541     -0.2268
    132  CD2      -24.9370  -39.4180   42.1170 C.ar  541  HIS541      0.1154
    133  CE1      -24.1790  -37.9710   40.6540 C.ar  541  HIS541      0.1986
    134  NE2      -24.6240  -38.0990   41.8910 N.ar  541  HIS541     -0.2212
@<TRIPOS>BOND
     1    94    93    2
     2    93    92    1
     3    92    91    1
     4    92    95    1
     5   111   110    2
     6    96    95    1
     7    96    97    1
     8    16    15    2
     9    97    99   am
    10    97    98    2
    11   110   109    1
    12   112   109    1
    13   112   113    1
    14    15    14    1
    15   115   114    2
    16   109   108    1
    17   114   116   am
    18   114   113    1
    19    14    13    1
    20    14    17    1
    21   103   102    2
    22    18    17    1
    23    54    53    1
    24    12    11    1
    25   131   133   ar
    26   131   130   ar
    27    17    19    1
    28    10    11   ar
    29    10     8   ar
    30   108   102   am
    31   102   101    1
    32   129   130    1
    33   129   126    1
    34   133   134   ar
    35    53    50    1
    36   106   105   ar
    37    11     9   ar
    38     8     6   ar
    39   130   132   ar
    40     4     3    2
    41   105   104    1
    42   105   107   ar
    43   127   126    1
    44   127   128    2
    45   125   126    1
    46   104   101    1
    47   101   100    1
    48   134   132   ar
    49     9     7   ar
    50   120   119    2
    51    50    51    1
    52    50    49    1
    53     6     7   ar
    54     6     5    1
    55     3     2    1
    56    52    51    2
    57    83    82    1
    58     2     5    1
    59     2     1    1
    60    51    55   am
    61    40    39    1
    62    55    56    1
    63    82    79    1
    64   119   118    1
    65    56    57    1
    66    39    38    1
    67   123   121    1
    68   121   118    1
    69   121   122    1
    70   118   117    1
    71    79    78    1
    72    79    80    1
    73    57    58    2
    74    57    59   am
    75    31    30    1
    76    38    37    1
    77    28    30   ar
    78    28    26   ar
    79    78    71   am
    80    76    77    1
    81    76    75    1
    82    30    29   ar
    83    26    25   ar
    84    80    81    2
    85    80    84   am
    86   124   122    1
    87    59    60    1
    88    89    88    1
    89    37    36    1
    90    29    27   ar
    91    84    85    1
    92    25    27   ar
    93    25    24    1
    94    24    21    1
    95    73    70    1
    96    73    74    1
    97    71    70    1
    98    71    72    2
    99    85    88    1
   100    85    86    1
   101    75    74    1
   102    69    70    1
   103    69    67   am
   104    88    90    1
   105    65    66    1
   106    65    61   am
   107    60    61    1
   108    60    63    1
   109    36    33    1
   110    66    67    1
   111    61    62    2
   112    21    22    1
   113    21    20    1
   114    67    68    2
   115    22    23    2
   116    64    63    1
   117    86    87    2
   118    48    46    1
   119    33    32    1
   120    33    34    1
   121    47    46    1
   122    46    45    1
   123    34    35    2
   124    45    42    1
   125    42    41    1
   126    42    43    1
   127    43    44    2
