@<TRIPOS>MOLECULE
tmp/6hrcA01.pdb
 69 66 0 0 0
SMALL
GASTEIGER

@<TRIPOS>ATOM
      1  N         -5.9240  -51.9440   24.8200 N.3   466  PHE466     -0.1241
      2  CA        -6.1950  -50.8220   23.9210 C.3   466  PHE466      0.1605
      3  C         -4.9250  -50.2830   23.2650 C.2   466  PHE466      0.2264
      4  O         -4.9200  -50.0100   22.0590 O.2   466  PHE466     -0.2867
      5  CB        -6.9210  -49.7090   24.6780 C.3   466  PHE466      0.0534
      6  CG        -6.9410  -48.4020   23.9540 C.ar  466  PHE466     -0.0203
      7  CD1       -7.4980  -48.3060   22.6940 C.ar  466  PHE466     -0.0042
      8  CD2       -6.4070  -47.2630   24.5350 C.ar  466  PHE466     -0.0042
      9  CE1       -7.5160  -47.1020   22.0190 C.ar  466  PHE466     -0.0003
     10  CE2       -6.4250  -46.0520   23.8690 C.ar  466  PHE466     -0.0003
     11  CZ        -6.9810  -45.9720   22.6080 C.ar  466  PHE466     -0.0000
     12  N         -2.9420  -50.5370   18.9700 N.3   470  LEU470     -0.1245
     13  CA        -2.7870  -49.2990   18.2210 C.3   470  LEU470      0.1561
     14  C         -1.5280  -49.3840   17.3630 C.2   470  LEU470      0.2260
     15  O         -0.5860  -50.1030   17.7060 O.2   470  LEU470     -0.2867
     16  CB        -2.6940  -48.0980   19.1610 C.3   470  LEU470      0.0270
     17  CG        -3.9960  -47.6040   19.7890 C.3   470  LEU470      0.0019
     18  CD1       -3.7370  -46.4590   20.7510 C.3   470  LEU470      0.0001
     19  CD2       -4.9650  -47.1780   18.7060 C.3   470  LEU470      0.0001
     20  N        -10.4440  -36.0420   21.9530 N.3   483  SER483     -0.1202
     21  CA       -11.5730  -36.2700   21.0620 C.3   483  SER483      0.2020
     22  C        -11.3620  -37.4900   20.1770 C.2   483  SER483      0.2619
     23  O        -12.3400  -38.1160   19.7530 O.2   483  SER483     -0.2717
     24  CB       -11.8280  -35.0240   20.2140 C.3   483  SER483      0.2103
     25  OG       -10.8320  -34.8540   19.2280 O.3   483  SER483     -0.2182
     26  N        -10.1090  -37.8510   19.8970 N.am  484  ASN484     -0.1960
     27  CA        -9.8090  -39.0220   19.0850 C.3   484  ASN484      0.1819
     28  C         -9.9680  -40.3230   19.8530 C.2   484  ASN484      0.2621
     29  O         -9.6330  -41.3870   19.3250 O.2   484  ASN484     -0.2715
     30  CB        -8.3940  -38.9160   18.5110 C.3   484  ASN484      0.1195
     31  CG        -8.3080  -37.9240   17.3590 C.2   484  ASN484      0.2630
     32  OD1       -9.3150  -37.6120   16.7230 O.2   484  ASN484     -0.2716
     33  ND2       -7.1020  -37.4320   17.0800 N.am  484  ASN484     -0.0877
     34  N        -10.4760  -40.2620   21.0760 N.am  485  LEU485     -0.1963
     35  CA       -10.7130  -41.4350   21.8990 C.3   485  LEU485      0.1728
     36  C        -12.2040  -41.6450   22.1170 C.2   485  LEU485      0.2617
     37  O        -13.0440  -40.8120   21.7600 O.2   485  LEU485     -0.2715
     38  CB       -10.0270  -41.3010   23.2590 C.3   485  LEU485      0.0311
     39  CG        -8.5270  -41.0840   23.3000 C.3   485  LEU485      0.0022
     40  CD1       -8.0990  -41.2000   24.7400 C.3   485  LEU485      0.0001
     41  CD2       -7.8370  -42.1110   22.4390 C.3   485  LEU485      0.0001
     42  N        -12.5160  -42.7850   22.7250 N.am  486  SER486     -0.1936
     43  CA       -13.8460  -43.0400   23.2410 C.3   486  SER486      0.2055
     44  C        -13.9470  -42.4850   24.6600 C.2   486  SER486      0.2644
     45  O        -12.9930  -41.9310   25.2120 O.2   486  SER486     -0.2714
     46  CB       -14.1640  -44.5350   23.2030 C.3   486  SER486      0.2130
     47  OG       -13.7950  -45.1840   24.4090 O.3   486  SER486     -0.2179
     48  N        -15.1240  -42.6300   25.2590 N.am  487  GLY487     -0.1939
     49  CA       -15.3480  -42.1340   26.5980 C.3   487  GLY487      0.2014
     50  C        -14.6270  -42.9850   27.6110 C.2   487  GLY487      0.2639
     51  O        -13.8270  -42.4790   28.4040 O.2   487  GLY487     -0.2714
     52  N        -14.9020  -44.2900   27.5730 N.am  488  GLY488     -0.1939
     53  CA       -14.2560  -45.2060   28.4970 C.3   488  GLY488      0.2014
     54  C        -12.7480  -45.2030   28.3770 C.2   488  GLY488      0.2638
     55  O        -12.0410  -45.3720   29.3720 O.2   488  GLY488     -0.2714
     56  N        -12.2320  -44.9860   27.1680 N.am  489  GLN489     -0.1977
     57  CA       -10.7940  -44.8250   27.0030 C.3   489  GLN489      0.1601
     58  C        -10.2990  -43.5550   27.6790 C.2   489  GLN489      0.2287
     59  O         -9.2670  -43.5720   28.3580 O.2   489  GLN489     -0.2864
     60  CB       -10.4410  -44.8230   25.5250 C.3   489  GLN489      0.0394
     61  CG       -10.6180  -46.1700   24.8880 C.3   489  GLN489      0.0908
     62  CD       -10.4300  -46.1020   23.4040 C.2   489  GLN489      0.2608
     63  OE1      -10.1210  -45.0440   22.8570 O.2   489  GLN489     -0.2717
     64  NE2      -10.6220  -47.2290   22.7320 N.am  489  GLN489     -0.0878
     65  N        -18.0620  -43.8140   32.6590 N.3   514  ALA514     -0.1245
     66  CA       -18.0640  -44.0460   31.2230 C.3   514  ALA514      0.1562
     67  C        -17.7300  -45.4840   30.8590 C.2   514  ALA514      0.2260
     68  O        -17.7350  -45.8210   29.6720 O.2   514  ALA514     -0.2867
     69  CB       -17.0870  -43.0910   30.5270 C.3   514  ALA514      0.0290
@<TRIPOS>BOND
     1    32    31    2
     2    33    31   am
     3    31    30    1
     4    14    15    2
     5    14    13    1
     6    13    12    1
     7    13    16    1
     8    30    27    1
     9    19    17    1
    10    27    28    1
    11    27    26    1
    12    16    17    1
    13    25    24    1
    14    29    28    2
    15    23    22    2
    16    17    18    1
    17    28    34   am
    18    26    22   am
    19    22    21    1
    20    24    21    1
    21    21    20    1
    22    34    35    1
    23    37    36    2
    24    35    36    1
    25    35    38    1
    26     9    11   ar
    27     9     7   ar
    28     4     3    2
    29    36    42   am
    30    41    39    1
    31    11    10   ar
    32     7     6   ar
    33    42    43    1
    34    64    62   am
    35    63    62    2
    36    46    43    1
    37    46    47    1
    38    43    44    1
    39    38    39    1
    40     3     2    1
    41    39    40    1
    42    62    61    1
    43    10     8   ar
    44     2     5    1
    45     2     1    1
    46     6     8   ar
    47     6     5    1
    48    44    45    2
    49    44    48   am
    50    61    60    1
    51    48    49    1
    52    60    57    1
    53    49    50    1
    54    57    56    1
    55    57    58    1
    56    56    54   am
    57    52    50   am
    58    52    53    1
    59    50    51    2
    60    58    59    2
    61    54    53    1
    62    54    55    2
    63    68    67    2
    64    69    66    1
    65    67    66    1
    66    66    65    1
