@<TRIPOS>MOLECULE
tmp/6hrqC00.pdb
 128 125 0 0 0
SMALL
GASTEIGER

@<TRIPOS>ATOM
      1  N         62.9600    2.1680   39.3250 N.3    19  LYS19      -0.1245
      2  CA        62.1620    3.0680   40.1490 C.3    19  LYS19       0.1561
      3  C         61.4610    2.3410   41.2960 C.2    19  LYS19       0.2260
      4  O         61.4230    2.8480   42.4230 O.2    19  LYS19      -0.2867
      5  CB        61.1250    3.7900   39.2850 C.3    19  LYS19       0.0271
      6  CG        60.2630    4.7540   40.0570 C.3    19  LYS19       0.0035
      7  CD        61.1210    5.8530   40.6420 C.3    19  LYS19       0.0206
      8  CE        60.3620    6.6580   41.6700 C.3    19  LYS19       0.1093
      9  NZ        61.2910    7.5640   42.3880 N.3    19  LYS19      -0.1314
     10  N         61.7830   10.4620   33.0080 N.3    99  ASP99      -0.1239
     11  CA        61.2290    9.6090   34.0540 C.3    99  ASP99       0.1674
     12  C         60.8480    8.2260   33.5520 C.2    99  ASP99       0.2266
     13  O         60.5510    7.3490   34.3740 O.2    99  ASP99      -0.2867
     14  CB        60.0080   10.2740   34.6940 C.3    99  ASP99       0.1410
     15  CG        60.3820   11.4750   35.5500 C.2    99  ASP99       0.3668
     16  OD1       61.5210   11.5110   36.0690 O.co2  99  ASP99      -0.2456
     17  OD2       59.5390   12.3820   35.7000 O.co2  99  ASP99      -0.2456
     18  N         48.3950    3.9830   35.4950 N.3   140  HIS140     -0.1226
     19  CA        47.3250    4.7740   34.8900 C.3   140  HIS140      0.1752
     20  C         47.8010    5.8990   33.9590 C.2   140  HIS140      0.2596
     21  O         46.9630    6.4770   33.2580 O.2   140  HIS140     -0.2718
     22  CB        46.3890    5.3500   35.9940 C.3   140  HIS140      0.0759
     23  CG        47.0750    6.1670   37.0620 C.ar  140  HIS140      0.0818
     24  ND1       46.3700    6.8600   38.0270 N.ar  140  HIS140     -0.2268
     25  CD2       48.3870    6.3930   37.3250 C.ar  140  HIS140      0.1154
     26  CE1       47.2180    7.4890   38.8290 C.ar  140  HIS140      0.1986
     27  NE2       48.4480    7.2150   38.4290 N.ar  140  HIS140     -0.2212
     28  N         49.0960    6.2270   33.9070 N.am  141  HIS141     -0.1975
     29  CA        49.5210    7.3880   33.1260 C.3   141  HIS141      0.1656
     30  C         49.8620    7.0840   31.6640 C.2   141  HIS141      0.2291
     31  O         49.9250    8.0170   30.8590 O.2   141  HIS141     -0.2864
     32  CB        50.7460    8.0570   33.7660 C.3   141  HIS141      0.0771
     33  CG        50.4800    8.6950   35.0950 C.ar  141  HIS141      0.0820
     34  ND1       49.4830    9.6270   35.2940 N.ar  141  HIS141     -0.2267
     35  CD2       51.1190    8.5700   36.2850 C.ar  141  HIS141      0.1154
     36  CE1       49.5030   10.0300   36.5530 C.ar  141  HIS141      0.1986
     37  NE2       50.4820    9.3990   37.1760 N.ar  141  HIS141     -0.2212
     38  N         55.1580    9.2210   33.4330 N.3   149  GLY149     -0.1210
     39  CA        55.0720    9.0330   34.8780 C.3   149  GLY149      0.1956
     40  C         55.4430    7.6430   35.3590 C.2   149  GLY149      0.2612
     41  O         54.7420    7.0790   36.2090 O.2   149  GLY149     -0.2717
     42  N         56.5380    7.0840   34.8360 N.am  150  PHE150     -0.1962
     43  CA        57.0240    5.7350   35.1450 C.3   150  PHE150      0.1771
     44  C         56.1170    4.6450   34.5930 C.2   150  PHE150      0.2619
     45  O         56.3100    3.4650   34.9370 O.2   150  PHE150     -0.2715
     46  CB        57.1900    5.4730   36.6540 C.3   150  PHE150      0.0574
     47  CG        57.9070    6.5590   37.4100 C.ar  150  PHE150     -0.0200
     48  CD1       59.0320    7.1710   36.8960 C.ar  150  PHE150     -0.0042
     49  CD2       57.4530    6.9520   38.6570 C.ar  150  PHE150     -0.0042
     50  CE1       59.6850    8.1720   37.6010 C.ar  150  PHE150     -0.0003
     51  CE2       58.1010    7.9460   39.3650 C.ar  150  PHE150     -0.0003
     52  CZ        59.2220    8.5550   38.8350 C.ar  150  PHE150     -0.0000
     53  N         55.1370    4.9910   33.7540 N.am  151  CYS151     -0.1968
     54  CA        54.2010    4.0370   33.1640 C.3   151  CYS151      0.1712
     55  C         54.4860    3.8880   31.6730 C.2   151  CYS151      0.2296
     56  O         54.5030    4.8820   30.9370 O.2   151  CYS151     -0.2864
     57  CB        52.7470    4.4950   33.3500 C.3   151  CYS151      0.0983
     58  SG        52.2170    4.7750   35.0740 S.3   151  CYS151     -0.0798
     59  N         44.6710    7.1630   43.6390 N.3   177  ASP177     -0.1239
     60  CA        46.0530    7.6270   43.6510 C.3   177  ASP177      0.1674
     61  C         46.1320    9.1270   43.9470 C.2   177  ASP177      0.2266
     62  O         45.2090    9.8850   43.6580 O.2   177  ASP177     -0.2867
     63  CB        46.6730    7.3150   42.2690 C.3   177  ASP177      0.1410
     64  CG        48.1890    7.3420   42.2610 C.2   177  ASP177      0.3668
     65  OD1       48.7710    8.4530   42.2300 O.co2 177  ASP177     -0.2456
     66  OD2       48.7980    6.2490   42.2390 O.co2 177  ASP177     -0.2456
     67  N         47.7230   11.1610   42.2790 N.3   179  HIS179     -0.1241
     68  CA        47.8000   11.8260   40.9810 C.3   179  HIS179      0.1621
     69  C         46.5400   11.5780   40.1530 C.2   179  HIS179      0.2264
     70  O         45.8730   10.5550   40.3030 O.2   179  HIS179     -0.2867
     71  CB        49.0310   11.3280   40.2000 C.3   179  HIS179      0.0745
     72  CG        50.3360   11.6630   40.8540 C.ar  179  HIS179      0.0817
     73  ND1       51.0030   10.7880   41.6870 N.ar  179  HIS179     -0.2268
     74  CD2       51.1000   12.7830   40.7980 C.ar  179  HIS179      0.1154
     75  CE1       52.1280   11.3470   42.1050 C.ar  179  HIS179      0.1986
     76  NE2       52.2090   12.5590   41.5830 N.ar  179  HIS179     -0.2212
     77  N         52.4240   17.3260   38.7940 N.3   207  PHE207     -0.1241
     78  CA        52.1850   16.2740   37.7980 C.3   207  PHE207      0.1605
     79  C         50.8180   15.5930   37.9590 C.2   207  PHE207      0.2264
     80  O         50.4160   15.2740   39.0770 O.2   207  PHE207     -0.2867
     81  CB        53.2950   15.2190   37.9110 C.3   207  PHE207      0.0534
     82  CG        53.2390   14.1560   36.8480 C.ar  207  PHE207     -0.0203
     83  CD1       53.8800   14.3470   35.6350 C.ar  207  PHE207     -0.0042
     84  CD2       52.5680   12.9570   37.0720 C.ar  207  PHE207     -0.0042
     85  CE1       53.8310   13.3680   34.6440 C.ar  207  PHE207     -0.0003
     86  CE2       52.5120   11.9780   36.0890 C.ar  207  PHE207     -0.0003
     87  CZ        53.1520   12.1820   34.8760 C.ar  207  PHE207     -0.0000
     88  N         50.2950    6.6390   47.3970 N.3   274  ASP274     -0.1239
     89  CA        51.0670    7.8550   47.6150 C.3   274  ASP274      0.1674
     90  C         50.2740    8.9620   48.2970 C.2   274  ASP274      0.2266
     91  O         50.8270   10.0500   48.4940 O.2   274  ASP274     -0.2867
     92  CB        51.6950    8.3600   46.2970 C.3   274  ASP274      0.1410
     93  CG        50.8100    8.1570   45.0680 C.2   274  ASP274      0.3668
     94  OD1       49.6270    7.7890   45.1790 O.co2 274  ASP274     -0.2456
     95  OD2       51.3300    8.3940   43.9640 O.co2 274  ASP274     -0.2456
     96  N         56.8880   10.0100   50.6710 N.3   280  PRO280     -0.2102
     97  CA        57.8120   11.1500   50.5260 C.3   280  PRO280      0.1504
     98  C         57.2130   12.3450   49.7980 C.2   280  PRO280      0.2575
     99  O         57.7500   13.4490   49.9390 O.2   280  PRO280     -0.2718
    100  CB        59.0090   10.5630   49.7610 C.3   280  PRO280      0.0282
    101  CG        58.5400    9.2750   49.1890 C.3   280  PRO280      0.0208
    102  CD        57.4610    8.7630   50.1300 C.3   280  PRO280      0.0893
    103  N         56.1130   12.1810   49.0540 N.am  281  HIS281     -0.1976
    104  CA        55.4250   13.3570   48.5150 C.3   281  HIS281      0.1656
    105  C         54.9540   14.2910   49.6250 C.2   281  HIS281      0.2291
    106  O         54.9390   15.5150   49.4490 O.2   281  HIS281     -0.2864
    107  CB        54.2220   12.9520   47.6670 C.3   281  HIS281      0.0771
    108  CG        54.5770   12.5140   46.2820 C.ar  281  HIS281      0.0820
    109  ND1       54.8370   11.2000   45.9690 N.ar  281  HIS281     -0.2267
    110  CD2       54.7140   13.2140   45.1290 C.ar  281  HIS281      0.1154
    111  CE1       55.1090   11.1040   44.6780 C.ar  281  HIS281      0.1986
    112  NE2       55.0450   12.3130   44.1450 N.ar  281  HIS281     -0.2212
    113  N         50.9350    4.1200   42.4980 N.3   316  GLY316     -0.1225
    114  CA        52.0080    4.8210   43.1800 C.3   316  GLY316      0.1811
    115  C         52.1720    4.3790   44.6190 C.2   316  GLY316      0.2280
    116  O         51.3850    3.6010   45.1650 O.2   316  GLY316     -0.2866
    117  N         55.6770    5.3810   47.3970 N.3   318  TYR318     -0.1241
    118  CA        57.1260    5.4940   47.3300 C.3   318  TYR318      0.1605
    119  C         57.8060    5.2830   48.6740 C.2   318  TYR318      0.2264
    120  O         59.0360    5.3220   48.7410 O.2   318  TYR318     -0.2867
    121  CB        57.4920    6.8420   46.6910 C.3   318  TYR318      0.0534
    122  CG        56.8580    6.8250   45.3320 C.ar  318  TYR318     -0.0201
    123  CD1       57.4320    6.0890   44.2920 C.ar  318  TYR318     -0.0009
    124  CD2       55.6210    7.4190   45.1130 C.ar  318  TYR318     -0.0009
    125  CE1       56.8210    6.0070   43.0560 C.ar  318  TYR318      0.0417
    126  CE2       55.0010    7.3390   43.8700 C.ar  318  TYR318      0.0417
    127  CZ        55.6060    6.6280   42.8550 C.ar  318  TYR318      0.1957
    128  OH        54.9800    6.5450   41.6310 O.3   318  TYR318     -0.2866
@<TRIPOS>BOND
     1    31    30    2
     2    56    55    2
     3    30    29    1
     4    55    54    1
     5    10    11    1
     6    29    32    1
     7    29    28    1
     8    54    57    1
     9    54    53    1
    10    21    20    2
    11    57    58    1
    12    38    39    1
    13    12    11    1
    14    12    13    2
    15    53    44   am
    16    32    33    1
    17    28    20   am
    18    20    19    1
    19    11    14    1
    20    44    45    2
    21    44    43    1
    22    85    87   ar
    23    85    83   ar
    24    14    15    1
    25    42    43    1
    26    42    40   am
    27    87    86   ar
    28    39    40    1
    29    19    18    1
    30    19    22    1
    31    33    34   ar
    32    33    35   ar
    33    43    46    1
    34    34    36   ar
    35    40    41    2
    36    15    17   ar
    37    15    16   ar
    38    83    82   ar
    39    22    23    1
    40    86    84   ar
    41    35    37   ar
    42    36    37   ar
    43    46    47    1
    44    82    84   ar
    45    82    81    1
    46    48    47   ar
    47    48    50   ar
    48    23    25   ar
    49    23    24   ar
    50    25    27   ar
    51    47    49   ar
    52    50    52   ar
    53    78    81    1
    54    78    79    1
    55    78    77    1
    56    79    80    2
    57    24    26   ar
    58    27    26   ar
    59    49    51   ar
    60    52    51   ar
    61     5     6    1
    62     5     2    1
    63     1     2    1
    64     6     7    1
    65     2     3    1
    66    69    70    2
    67    69    68    1
    68    71    72    1
    69    71    68    1
    70     7     8    1
    71    74    72   ar
    72    74    76   ar
    73    72    73   ar
    74    68    67    1
    75     3     4    2
    76    76    75   ar
    77   128   127    1
    78     8     9    1
    79    73    75   ar
    80    65    64   ar
    81    66    64   ar
    82    64    63    1
    83    63    60    1
    84   113   114    1
    85   127   125   ar
    86   127   126   ar
    87   125   123   ar
    88   114   115    1
    89    59    60    1
    90    60    61    1
    91    62    61    2
    92   126   124   ar
    93    95    93   ar
    94   112   111   ar
    95   112   110   ar
    96   123   122   ar
    97   115   116    2
    98   111   109   ar
    99    93    94   ar
   100    93    92    1
   101   124   122   ar
   102   110   108   ar
   103   122   121    1
   104   109   108   ar
   105   108   107    1
   106    92    89    1
   107   121   118    1
   108   118   117    1
   109   118   119    1
   110    88    89    1
   111    89    90    1
   112   107   104    1
   113    90    91    2
   114   104   103    1
   115   104   105    1
   116   119   120    2
   117   103    98   am
   118   101   100    1
   119   101   102    1
   120   106   105    2
   121   100    97    1
   122    98    99    2
   123    98    97    1
   124   102    96    1
   125    97    96    1
