@<TRIPOS>MOLECULE
tmp/6hrwA00.pdb
 163 153 0 0 0
SMALL
GASTEIGER

@<TRIPOS>ATOM
      1  N         17.3030   22.7860   15.8770 N.3    60  GLU60      -0.1245
      2  CA        18.2390   22.1220   14.9380 C.3    60  GLU60       0.1567
      3  C         19.3830   23.0870   14.6210 C.2    60  GLU60       0.2260
      4  O         20.5450   22.6340   14.7030 O.2    60  GLU60      -0.2867
      5  CB        17.4840   21.6050   13.7110 C.3    60  GLU60       0.0388
      6  CG        16.4710   20.5190   14.0700 C.3    60  GLU60       0.1160
      7  CD        16.7820   19.0950   13.6400 C.2    60  GLU60       0.3649
      8  OE1       17.3960   18.9350   12.5900 O.co2  60  GLU60      -0.2457
      9  OE2       16.3490   18.1540   14.3250 O.co2  60  GLU60      -0.2457
     10  N         21.6850   23.0650   17.5090 N.3    63  VAL63      -0.1231
     11  CA        22.3580   21.7380   17.5600 C.3    63  VAL63       0.1692
     12  C         23.5380   21.7380   16.5710 C.2    63  VAL63       0.2591
     13  O         24.6250   21.3330   16.9740 O.2    63  VAL63      -0.2718
     14  CB        21.3320   20.6140   17.3010 C.3    63  VAL63       0.0266
     15  CG1       21.9980   19.3330   16.8320 C.3    63  VAL63       0.0020
     16  CG2       20.4840   20.3390   18.5410 C.3    63  VAL63       0.0020
     17  N         23.3460   22.2230   15.3410 N.am   64  MET64      -0.1979
     18  CA        24.3900   22.2330   14.2790 C.3    64  MET64       0.1605
     19  C         25.4750   23.2410   14.6550 C.2    64  MET64       0.2287
     20  O         26.6520   22.9400   14.4620 O.2    64  MET64      -0.2864
     21  CB        23.8120   22.6060   12.9010 C.3    64  MET64       0.0413
     22  CG        22.8680   21.5680   12.2950 C.3    64  MET64       0.0598
     23  SD        23.6080   19.9110   12.1240 S.3    64  MET64      -0.1393
     24  CE        23.0560   19.1570   13.6410 C.3    64  MET64       0.0692
     25  N         27.5280   21.7300   17.3910 N.3    67  MET67      -0.1245
     26  CA        28.4090   20.6820   16.8260 C.3    67  MET67       0.1570
     27  C         29.5810   21.3010   16.0580 C.2    67  MET67       0.2261
     28  O         30.6860   20.7830   16.2180 O.2    67  MET67      -0.2867
     29  CB        27.6160   19.7490   15.9150 C.3    67  MET67       0.0387
     30  CG        26.8350   18.7300   16.6990 C.3    67  MET67       0.0595
     31  SD        26.1440   17.5600   15.5630 S.3    67  MET67      -0.1393
     32  CE        27.6770   16.7770   15.0660 C.3    67  MET67       0.0692
     33  N         35.8500   14.0890   11.3210 N.3    83  ILE83      -0.1245
     34  CA        34.6920   13.1590   11.1950 C.3    83  ILE83       0.1561
     35  C         34.4910   12.4370   12.5350 C.2    83  ILE83       0.2260
     36  O         33.3120   12.3520   13.0260 O.2    83  ILE83      -0.2867
     37  CB        34.8720   12.2150    9.9880 C.3    83  ILE83       0.0252
     38  CG1       34.6370   12.9760    8.6770 C.3    83  ILE83       0.0019
     39  CG2       33.9740   10.9800   10.1190 C.3    83  ILE83       0.0019
     40  CD1       35.2360   12.3320    7.4550 C.3    83  ILE83       0.0001
     41  N         33.1700   14.8660   15.0260 N.3    86  ALA86      -0.1231
     42  CA        31.7810   15.2190   14.6530 C.3    86  ALA86       0.1694
     43  C         30.8240   14.1310   15.1550 C.2    86  ALA86       0.2591
     44  O         29.7990   14.4680   15.7530 O.2    86  ALA86      -0.2718
     45  CB        31.6710   15.4760   13.1700 C.3    86  ALA86       0.0304
     46  N         31.1760   12.8710   14.9870 N.am   87  VAL87      -0.1980
     47  CA        30.3880   11.7460   15.5730 C.3    87  VAL87       0.1595
     48  C         30.2980   11.9050   17.1010 C.2    87  VAL87       0.2287
     49  O         29.1840   11.8380   17.6040 O.2    87  VAL87      -0.2864
     50  CB        30.9640   10.3760   15.1630 C.3    87  VAL87       0.0276
     51  CG1       30.2940    9.2300   15.9080 C.3    87  VAL87       0.0022
     52  CG2       30.8610   10.1850   13.6620 C.3    87  VAL87       0.0022
     53  N         27.9830   14.7890   18.1960 N.3    90  TRP90      -0.1241
     54  CA        26.5540   14.4180   18.0500 C.3    90  TRP90       0.1605
     55  C         26.0920   13.5520   19.2220 C.2    90  TRP90       0.2264
     56  O         24.9860   13.7930   19.7270 O.2    90  TRP90      -0.2867
     57  CB        26.3270   13.7530   16.6980 C.3    90  TRP90       0.0550
     58  CG        24.9750   13.1360   16.5390 C.ar   90  TRP90       0.0003
     59  CD1       24.7210   11.8450   16.2010 C.ar   90  TRP90       0.0946
     60  CD2       23.6950   13.7520   16.7690 C.ar   90  TRP90       0.0152
     61  NE1       23.3740   11.6250   16.1580 N.ar   90  TRP90      -0.2442
     62  CE2       22.7180   12.7680   16.5080 C.ar   90  TRP90       0.0810
     63  CE3       23.2760   15.0330   17.1420 C.ar   90  TRP90       0.0012
     64  CZ2       21.3530   13.0200   16.6070 C.ar   90  TRP90       0.0191
     65  CZ3       21.9220   15.2780   17.2570 C.ar   90  TRP90       0.0001
     66  CH2       20.9760   14.2820   17.0010 C.ar   90  TRP90       0.0015
     67  N         13.8280   16.4170   19.7380 N.3   103  ILE103     -0.1231
     68  CA        14.3550   15.9590   18.4180 C.3   103  ILE103      0.1692
     69  C         14.2670   14.4370   18.3090 C.2   103  ILE103      0.2591
     70  O         13.8300   13.9720   17.2580 O.2   103  ILE103     -0.2718
     71  CB        15.7890   16.4430   18.1530 C.3   103  ILE103      0.0266
     72  CG1       15.8750   17.9700   18.1580 C.3   103  ILE103      0.0019
     73  CG2       16.3080   15.8700   16.8350 C.3   103  ILE103      0.0020
     74  CD1       14.9380   18.6320   17.1770 C.3   103  ILE103      0.0001
     75  N         14.6700   13.6930   19.3370 N.am  104  LEU104     -0.1980
     76  CA        14.7470   12.2120   19.2570 C.3   104  LEU104      0.1596
     77  C         13.3840   11.5910   19.6050 C.2   104  LEU104      0.2287
     78  O         13.0040   10.6820   18.8870 O.2   104  LEU104     -0.2864
     79  CB        15.9010   11.7170   20.1350 C.3   104  LEU104      0.0297
     80  CG        17.2640   12.3430   19.8080 C.3   104  LEU104      0.0022
     81  CD1       18.3760   11.6930   20.6230 C.3   104  LEU104      0.0001
     82  CD2       17.5870   12.2600   18.3260 C.3   104  LEU104      0.0001
     83  N         10.5780   14.5070    9.3520 N.3   116  PHE116     -0.1241
     84  CA        11.7830   14.4730   10.2110 C.3   116  PHE116      0.1605
     85  C         13.0240   14.3890    9.3200 C.2   116  PHE116      0.2264
     86  O         14.0020   15.0480    9.6030 O.2   116  PHE116     -0.2867
     87  CB        11.7090   13.3130   11.2050 C.3   116  PHE116      0.0534
     88  CG        12.9490   13.2010   12.0460 C.ar  116  PHE116     -0.0203
     89  CD1       13.0930   13.9820   13.1740 C.ar  116  PHE116     -0.0042
     90  CD2       13.9830   12.3470   11.6900 C.ar  116  PHE116     -0.0042
     91  CE1       14.2430   13.8920   13.9460 C.ar  116  PHE116     -0.0003
     92  CE2       15.1390   12.2680   12.4560 C.ar  116  PHE116     -0.0003
     93  CZ        15.2650   13.0390   13.5870 C.ar  116  PHE116     -0.0000
     94  N         15.9860   16.9900    9.2900 N.3   120  ALA120     -0.1245
     95  CA        17.2890   16.3950    9.6260 C.3   120  ALA120      0.1562
     96  C         18.2790   16.6940    8.5000 C.2   120  ALA120      0.2260
     97  O         19.4060   17.1380    8.7920 O.2   120  ALA120     -0.2867
     98  CB        17.1330   14.9220    9.8400 C.3   120  ALA120      0.0290
     99  N         19.2980   20.4290    7.7540 N.3   123  TYR123     -0.1227
    100  CA        20.2590   20.9950    8.7450 C.3   123  TYR123      0.1736
    101  C         21.6100   20.2920    8.7000 C.2   123  TYR123      0.2596
    102  O         22.5790   20.9960    8.9750 O.2   123  TYR123     -0.2718
    103  CB        19.6660   21.0520   10.1620 C.3   123  TYR123      0.0548
    104  CG        18.7570   22.2400   10.3360 C.ar  123  TYR123     -0.0200
    105  CD1       19.2850   23.5090   10.4720 C.ar  123  TYR123     -0.0009
    106  CD2       17.3820   22.1230   10.2000 C.ar  123  TYR123     -0.0009
    107  CE1       18.4680   24.6250   10.4940 C.ar  123  TYR123      0.0417
    108  CE2       16.5540   23.2320   10.2310 C.ar  123  TYR123      0.0417
    109  CZ        17.1040   24.4880   10.3940 C.ar  123  TYR123      0.1957
    110  OH        16.3080   25.5870   10.4650 O.3   123  TYR123     -0.2866
    111  N         21.7110   19.0030    8.3690 N.am  124  SER124     -0.1952
    112  CA        22.9970   18.2660    8.5390 C.3   124  SER124      0.1924
    113  C         23.6810   17.9020    7.2110 C.2   124  SER124      0.2314
    114  O         24.8840   17.6040    7.2700 O.2   124  SER124     -0.2863
    115  CB        22.8340   17.0550    9.4180 C.3   124  SER124      0.2116
    116  OG        21.8210   16.2570    8.9020 O.3   124  SER124     -0.2180
    117  N         26.9890   20.1580    6.0710 N.3   127  MET127     -0.1230
    118  CA        28.1190   19.8820    7.0060 C.3   127  MET127      0.1702
    119  C         28.6810   18.4650    6.7590 C.2   127  MET127      0.2593
    120  O         29.9030   18.3000    6.6010 O.2   127  MET127     -0.2718
    121  CB        27.7030   20.0100    8.4740 C.3   127  MET127      0.0401
    122  CG        28.9290   20.0480    9.3840 C.3   127  MET127      0.0596
    123  SD        28.8350   19.3220   11.0580 S.3   127  MET127     -0.1393
    124  CE        30.4350   19.8320   11.6980 C.3   127  MET127      0.0692
    125  N         27.8130   17.4610    6.6650 N.am  128  THR128     -0.1953
    126  CA        28.1940   16.0410    6.4130 C.3   128  THR128      0.1897
    127  C         28.9110   15.9090    5.0570 C.2   128  THR128      0.2313
    128  O         29.9640   15.2610    5.0270 O.2   128  THR128     -0.2863
    129  CB        26.9890   15.0990    6.5460 C.3   128  THR128      0.1794
    130  OG1       26.3680   15.3170    7.8110 O.3   128  THR128     -0.2208
    131  CG2       27.3890   13.6440    6.4610 C.3   128  THR128      0.0378
    132  N         32.3790   17.5390    5.1070 N.3   131  LEU131     -0.1245
    133  CA        33.3180   16.7250    5.9290 C.3   131  LEU131      0.1561
    134  C         33.8310   15.5290    5.1090 C.2   131  LEU131      0.2260
    135  O         35.0560   15.2160    5.1830 O.2   131  LEU131     -0.2867
    136  CB        32.5360   16.2470    7.1500 C.3   131  LEU131      0.0270
    137  CG        33.1410   16.4930    8.5180 C.3   131  LEU131      0.0019
    138  CD1       33.8020   17.8430    8.6220 C.3   131  LEU131      0.0001
    139  CD2       32.0480   16.3530    9.5420 C.3   131  LEU131      0.0001
    140  N         24.0160    9.9160    8.0020 N.3   154  ILE154     -0.1245
    141  CA        22.9800   10.6450    8.7940 C.3   154  ILE154      0.1561
    142  C         21.8750    9.6840    9.2630 C.2   154  ILE154      0.2260
    143  O         21.4480    9.8280   10.4060 O.2   154  ILE154     -0.2867
    144  CB        22.3820   11.8220    8.0190 C.3   154  ILE154      0.0252
    145  CG1       23.4270   12.9040    7.7500 C.3   154  ILE154      0.0019
    146  CG2       21.1610   12.3540    8.7760 C.3   154  ILE154      0.0019
    147  CD1       22.9850   13.9080    6.7300 C.3   154  ILE154      0.0001
    148  N         23.5930    7.8300   12.1990 N.3   157  LEU157     -0.1231
    149  CA        23.8520    8.6440   13.4180 C.3   157  LEU157      0.1693
    150  C         22.5280    9.0180   14.0590 C.2   157  LEU157      0.2592
    151  O         22.4280    8.8860   15.2830 O.2   157  LEU157     -0.2718
    152  CB        24.6400    9.8960   13.0620 C.3   157  LEU157      0.0284
    153  CG        26.0270    9.6490   12.4900 C.3   157  LEU157      0.0019
    154  CD1       26.5350   10.9310   11.8310 C.3   157  LEU157      0.0001
    155  CD2       26.9550    9.1860   13.5950 C.3   157  LEU157      0.0001
    156  N         21.5290    9.4120   13.2700 N.am  158  ASP158     -0.1974
    157  CA        20.1630    9.6520   13.8350 C.3   158  ASP158      0.1709
    158  C         19.6780    8.3970   14.6000 C.2   158  ASP158      0.2293
    159  O         19.2570    8.5480   15.7560 O.2   158  ASP158     -0.2864
    160  CB        19.1440   10.1250   12.7800 C.3   158  ASP158      0.1436
    161  CG        19.4140   11.5110   12.2020 C.2   158  ASP158      0.3671
    162  OD1       20.1750   12.2820   12.7970 O.co2 158  ASP158     -0.2456
    163  OD2       18.8740   11.7990   11.1310 O.co2 158  ASP158     -0.2456
@<TRIPOS>BOND
     1   128   127    2
     2   127   126    1
     3   132   133    1
     4   134   135    2
     5   134   133    1
     6   133   136    1
     7   117   118    1
     8   126   129    1
     9   126   125    1
    10   131   129    1
    11   129   130    1
    12   120   119    2
    13   125   119   am
    14   147   145    1
    15   119   118    1
    16   118   121    1
    17   136   137    1
    18   113   114    2
    19   113   112    1
    20    40    38    1
    21   145   144    1
    22    99   100    1
    23   140   141    1
    24   144   146    1
    25   144   141    1
    26   111   112    1
    27   111   101   am
    28   121   122    1
    29    96    97    2
    30    96    95    1
    31   137   138    1
    32   137   139    1
    33   112   115    1
    34    38    37    1
    35   101   100    1
    36   101   102    2
    37   100   103    1
    38   141   142    1
    39   116   115    1
    40   142   143    2
    41    94    95    1
    42    85    86    2
    43    85    84    1
    44    83    84    1
    45   122   123    1
    46    95    98    1
    47    37    39    1
    48    37    34    1
    49   103   104    1
    50   106   108   ar
    51   106   104   ar
    52    84    87    1
    53   108   109   ar
    54   104   105   ar
    55   109   110    1
    56   109   107   ar
    57   105   107   ar
    58   123   124    1
    59   163   161   ar
    60    34    33    1
    61    34    35    1
    62    87    88    1
    63    90    88   ar
    64    90    92   ar
    65   154   153    1
    66    88    89   ar
    67    23    22    1
    68    23    24    1
    69   148   149    1
    70   161   160    1
    71   161   162   ar
    72    22    21    1
    73    92    93   ar
    74   153   152    1
    75   153   155    1
    76    35    36    2
    77     8     7   ar
    78   160   157    1
    79    21    18    1
    80   152   149    1
    81    45    42    1
    82    89    91   ar
    83   156   157    1
    84   156   150   am
    85   149   150    1
    86    93    91   ar
    87     7     6    1
    88     7     9   ar
    89    52    50    1
    90     5     6    1
    91     5     2    1
    92   157   158    1
    93   150   151    2
    94    18    19    1
    95    18    17    1
    96    20    19    2
    97   158   159    2
    98     3     4    2
    99     3     2    1
   100    42    41    1
   101    42    43    1
   102     2     1    1
   103    46    43   am
   104    46    47    1
   105    32    31    1
   106    43    44    2
   107    50    47    1
   108    50    51    1
   109    17    12   am
   110    31    30    1
   111    47    48    1
   112    29    30    1
   113    29    26    1
   114    27    28    2
   115    27    26    1
   116    61    59   ar
   117    61    62   ar
   118    59    58   ar
   119    62    64   ar
   120    62    60   ar
   121    58    57    1
   122    58    60   ar
   123    12    13    2
   124    12    11    1
   125    64    66   ar
   126    57    54    1
   127    60    63   ar
   128    26    25    1
   129    15    14    1
   130    73    71    1
   131    66    65   ar
   132    48    49    2
   133    63    65   ar
   134    74    72    1
   135    70    69    2
   136    14    11    1
   137    14    16    1
   138    10    11    1
   139    54    53    1
   140    54    55    1
   141    71    72    1
   142    71    68    1
   143    69    68    1
   144    69    75   am
   145    82    80    1
   146    68    67    1
   147    78    77    2
   148    55    56    2
   149    76    75    1
   150    76    77    1
   151    76    79    1
   152    80    79    1
   153    80    81    1
