@<TRIPOS>MOLECULE
tmp/6hrxB00.pdb
 147 138 0 0 0
SMALL
GASTEIGER

@<TRIPOS>ATOM
      1  N        -17.2440  -23.2710   15.7320 N.3    60  GLU60      -0.1245
      2  CA       -18.1890  -22.7090   14.7250 C.3    60  GLU60       0.1567
      3  C        -19.2700  -23.7260   14.3930 C.2    60  GLU60       0.2260
      4  O        -20.4360  -23.2990   14.2380 O.2    60  GLU60      -0.2867
      5  CB       -17.4630  -22.3120   13.4480 C.3    60  GLU60       0.0388
      6  CG       -16.7610  -20.9820   13.5730 C.3    60  GLU60       0.1160
      7  CD       -17.6630  -19.7510   13.5910 C.2    60  GLU60       0.3649
      8  OE1      -18.8890  -19.9150   13.5110 O.co2  60  GLU60      -0.2457
      9  OE2      -17.1250  -18.6340   13.6340 O.co2  60  GLU60      -0.2457
     10  N        -21.6570  -23.4190   17.2680 N.3    63  VAL63      -0.1231
     11  CA       -22.3850  -22.1230   17.1390 C.3    63  VAL63       0.1692
     12  C        -23.5590  -22.2940   16.1770 C.2    63  VAL63       0.2591
     13  O        -24.6730  -21.9250   16.5510 O.2    63  VAL63      -0.2718
     14  CB       -21.4350  -21.0010   16.6880 C.3    63  VAL63       0.0266
     15  CG1      -22.2180  -19.7980   16.1670 C.3    63  VAL63       0.0020
     16  CG2      -20.5140  -20.6110   17.8260 C.3    63  VAL63       0.0020
     17  N        -23.3150  -22.8020   14.9650 N.am   64  MET64      -0.1979
     18  CA       -24.3470  -22.9050   13.8980 C.3    64  MET64       0.1605
     19  C        -25.4270  -23.9100   14.3220 C.2    64  MET64       0.2287
     20  O        -26.6060  -23.6310   14.0660 O.2    64  MET64      -0.2864
     21  CB       -23.7500  -23.3190   12.5490 C.3    64  MET64       0.0413
     22  CG       -22.7490  -22.2930   11.9810 C.3    64  MET64       0.0598
     23  SD       -23.2950  -20.5660   12.0750 S.3    64  MET64      -0.1393
     24  CE       -24.7910  -20.6000   11.0820 C.3    64  MET64       0.0692
     25  N        -27.5890  -22.1470   17.0160 N.3    67  MET67      -0.1245
     26  CA       -28.4390  -21.1040   16.3980 C.3    67  MET67       0.1570
     27  C        -29.6430  -21.7480   15.7120 C.2    67  MET67       0.2261
     28  O        -30.7470  -21.2450   15.9170 O.2    67  MET67      -0.2867
     29  CB       -27.6160  -20.2680   15.4240 C.3    67  MET67       0.0387
     30  CG       -26.5650  -19.4830   16.2070 C.3    67  MET67       0.0595
     31  SD       -26.1640  -17.8980   15.5110 S.3    67  MET67      -0.1393
     32  CE       -27.8110  -17.3440   15.0600 C.3    67  MET67       0.0692
     33  N        -33.3520  -15.2840   14.5260 N.3    86  ALA86      -0.1231
     34  CA       -31.9590  -15.6130   14.1490 C.3    86  ALA86       0.1694
     35  C        -31.0130  -14.5560   14.7200 C.2    86  ALA86       0.2591
     36  O        -29.9200  -14.8960   15.1710 O.2    86  ALA86      -0.2718
     37  CB       -31.8430  -15.7180   12.6450 C.3    86  ALA86       0.0304
     38  N        -31.4200  -13.2890   14.6780 N.am   87  VAL87      -0.1980
     39  CA       -30.6160  -12.1790   15.2500 C.3    87  VAL87       0.1595
     40  C        -30.5400  -12.3440   16.7750 C.2    87  VAL87       0.2287
     41  O        -29.4380  -12.2480   17.3250 O.2    87  VAL87      -0.2864
     42  CB       -31.2070  -10.8260   14.8210 C.3    87  VAL87       0.0276
     43  CG1      -30.5410   -9.6660   15.5440 C.3    87  VAL87       0.0022
     44  CG2      -31.1170  -10.6440   13.3080 C.3    87  VAL87       0.0022
     45  N        -28.1450  -15.2290   17.5330 N.3    90  TRP90      -0.1241
     46  CA       -26.7200  -14.8420   17.4160 C.3    90  TRP90       0.1605
     47  C        -26.2510  -14.0890   18.6560 C.2    90  TRP90       0.2264
     48  O        -25.1390  -14.3670   19.1000 O.2    90  TRP90      -0.2867
     49  CB       -26.4640  -14.0090   16.1530 C.3    90  TRP90       0.0550
     50  CG       -25.1110  -13.3650   16.0910 C.ar   90  TRP90       0.0003
     51  CD1      -24.8640  -12.0280   15.9540 C.ar   90  TRP90       0.0946
     52  CD2      -23.8220  -14.0020   16.1040 C.ar   90  TRP90       0.0152
     53  NE1      -23.5180  -11.7950   15.8800 N.ar   90  TRP90      -0.2442
     54  CE2      -22.8560  -12.9860   15.9660 C.ar   90  TRP90       0.0810
     55  CE3      -23.3800  -15.3280   16.1900 C.ar   90  TRP90       0.0012
     56  CZ2      -21.4900  -13.2430   15.9320 C.ar   90  TRP90       0.0191
     57  CZ3      -22.0280  -15.5790   16.1470 C.ar   90  TRP90       0.0001
     58  CH2      -21.0950  -14.5510   16.0230 C.ar   90  TRP90       0.0015
     59  N        -14.1700  -16.8270   19.4640 N.3   103  ILE103     -0.1245
     60  CA       -14.6550  -16.3790   18.1270 C.3   103  ILE103      0.1561
     61  C        -14.5880  -14.8560   18.0320 C.2   103  ILE103      0.2260
     62  O        -14.1720  -14.3610   16.9770 O.2   103  ILE103     -0.2867
     63  CB       -16.0630  -16.9040   17.8120 C.3   103  ILE103      0.0252
     64  CG1      -16.0850  -18.4350   17.8360 C.3   103  ILE103      0.0019
     65  CG2      -16.5480  -16.3700   16.4530 C.3   103  ILE103      0.0019
     66  CD1      -14.9800  -19.0770   17.0300 C.3   103  ILE103      0.0001
     67  N        -10.6660  -14.5750    9.5720 N.3   116  PHE116     -0.1241
     68  CA       -11.8910  -14.5530   10.4010 C.3   116  PHE116      0.1605
     69  C        -13.1050  -14.4210    9.4820 C.2   116  PHE116      0.2264
     70  O        -14.0990  -15.1510    9.6780 O.2   116  PHE116     -0.2867
     71  CB       -11.8230  -13.4460   11.4590 C.3   116  PHE116      0.0534
     72  CG       -13.1280  -13.2850   12.1830 C.ar  116  PHE116     -0.0203
     73  CD1      -13.4370  -14.1130   13.2520 C.ar  116  PHE116     -0.0042
     74  CD2      -14.0950  -12.3890   11.7390 C.ar  116  PHE116     -0.0042
     75  CE1      -14.6590  -13.9870   13.9030 C.ar  116  PHE116     -0.0003
     76  CE2      -15.3310  -12.2950   12.3640 C.ar  116  PHE116     -0.0003
     77  CZ       -15.6090  -13.0900   13.4590 C.ar  116  PHE116     -0.0000
     78  N        -16.1790  -17.0720    9.2470 N.3   120  ALA120     -0.1245
     79  CA       -17.5180  -16.5450    9.5630 C.3   120  ALA120      0.1562
     80  C        -18.4440  -16.7860    8.3710 C.2   120  ALA120      0.2260
     81  O        -19.5730  -17.2880    8.5740 O.2   120  ALA120     -0.2867
     82  CB       -17.4450  -15.0810    9.9370 C.3   120  ALA120      0.0290
     83  N        -19.2890  -20.5510    7.5470 N.3   123  TYR123     -0.1227
     84  CA       -20.2560  -21.1540    8.4890 C.3   123  TYR123      0.1736
     85  C        -21.6390  -20.5200    8.3700 C.2   123  TYR123      0.2596
     86  O        -22.5890  -21.2740    8.5120 O.2   123  TYR123     -0.2718
     87  CB       -19.6990  -21.1480    9.9100 C.3   123  TYR123      0.0548
     88  CG       -18.7480  -22.2990   10.1070 C.ar  123  TYR123     -0.0200
     89  CD1      -19.2430  -23.5700   10.3270 C.ar  123  TYR123     -0.0009
     90  CD2      -17.3750  -22.1390    9.9780 C.ar  123  TYR123     -0.0009
     91  CE1      -18.3990  -24.6520   10.4690 C.ar  123  TYR123      0.0417
     92  CE2      -16.5150  -23.2140   10.1260 C.ar  123  TYR123      0.0417
     93  CZ       -17.0390  -24.4730   10.3770 C.ar  123  TYR123      0.1957
     94  OH       -16.1970  -25.5470   10.4740 O.3   123  TYR123     -0.2866
     95  N        -21.7380  -19.2290    8.0780 N.am  124  SER124     -0.1952
     96  CA       -22.9800  -18.4430    8.2970 C.3   124  SER124      0.1924
     97  C        -23.6550  -18.0160    6.9860 C.2   124  SER124      0.2314
     98  O        -24.8680  -17.7420    7.0260 O.2   124  SER124     -0.2863
     99  CB       -22.6740  -17.2750    9.1830 C.3   124  SER124      0.2116
    100  OG       -21.8710  -16.3220    8.4980 O.3   124  SER124     -0.2180
    101  N        -26.9360  -20.2660    5.8890 N.3   127  MET127     -0.1230
    102  CA       -28.1250  -20.0490    6.7640 C.3   127  MET127      0.1702
    103  C        -28.7100  -18.6560    6.4420 C.2   127  MET127      0.2593
    104  O        -29.9550  -18.5130    6.3020 O.2   127  MET127     -0.2718
    105  CB       -27.7720  -20.1340    8.2580 C.3   127  MET127      0.0401
    106  CG       -28.8850  -19.6250    9.2030 C.3   127  MET127      0.0596
    107  SD       -28.5120  -19.8380   10.9850 S.3   127  MET127     -0.1393
    108  CE       -30.1350  -19.7000   11.7350 C.3   127  MET127      0.0692
    109  N        -27.8520  -17.6500    6.3680 N.am  128  THR128     -0.1953
    110  CA       -28.2640  -16.2380    6.1550 C.3   128  THR128      0.1897
    111  C        -28.9640  -16.1090    4.8070 C.2   128  THR128      0.2313
    112  O        -30.0580  -15.5230    4.7780 O.2   128  THR128     -0.2863
    113  CB       -27.0820  -15.2840    6.2860 C.3   128  THR128      0.1794
    114  OG1      -26.5380  -15.4920    7.5860 O.3   128  THR128     -0.2208
    115  CG2      -27.5090  -13.8380    6.1850 C.3   128  THR128      0.0378
    116  N        -32.5260  -17.6570    4.9540 N.3   131  LEU131     -0.1245
    117  CA       -33.5150  -16.8170    5.6810 C.3   131  LEU131      0.1561
    118  C        -33.9620  -15.6880    4.7540 C.2   131  LEU131      0.2260
    119  O        -35.1690  -15.3640    4.7390 O.2   131  LEU131     -0.2867
    120  CB       -32.8770  -16.2330    6.9450 C.3   131  LEU131      0.0270
    121  CG       -32.5960  -17.2180    8.0720 C.3   131  LEU131      0.0019
    122  CD1      -31.6300  -16.6070    9.0650 C.3   131  LEU131      0.0001
    123  CD2      -33.8780  -17.6370    8.7560 C.3   131  LEU131      0.0001
    124  N        -24.1630   -9.9430    7.7400 N.3   154  ILE154     -0.1245
    125  CA       -23.1540  -10.7060    8.5320 C.3   154  ILE154      0.1561
    126  C        -22.1230   -9.7270    9.1170 C.2   154  ILE154      0.2260
    127  O        -21.7810   -9.8660   10.3380 O.2   154  ILE154     -0.2867
    128  CB       -22.5330  -11.8520    7.7090 C.3   154  ILE154      0.0252
    129  CG1      -23.5070  -13.0330    7.6430 C.3   154  ILE154      0.0019
    130  CG2      -21.1860  -12.2630    8.2870 C.3   154  ILE154      0.0019
    131  CD1      -23.2970  -13.9500    6.4710 C.3   154  ILE154      0.0001
    132  N        -23.8170   -7.8750   11.9690 N.3   157  LEU157     -0.1231
    133  CA       -24.0690   -8.7250   13.1770 C.3   157  LEU157      0.1693
    134  C        -22.7520   -9.0750   13.8740 C.2   157  LEU157      0.2592
    135  O        -22.7120   -9.0860   15.1350 O.2   157  LEU157     -0.2718
    136  CB       -24.8430   -9.9750   12.7600 C.3   157  LEU157      0.0284
    137  CG       -26.2710   -9.7110   12.3190 C.3   157  LEU157      0.0019
    138  CD1      -26.8040  -10.8840   11.5310 C.3   157  LEU157      0.0001
    139  CD2      -27.1460   -9.4090   13.5160 C.3   157  LEU157      0.0001
    140  N        -21.6760   -9.2810   13.1100 N.am  158  ASP158     -0.1974
    141  CA       -20.3250   -9.5710   13.6770 C.3   158  ASP158      0.1709
    142  C        -19.8320   -8.3530   14.4590 C.2   158  ASP158      0.2293
    143  O        -19.3050   -8.5010   15.5940 O.2   158  ASP158     -0.2864
    144  CB       -19.2980   -9.9620   12.6050 C.3   158  ASP158      0.1436
    145  CG       -19.5370  -11.3680   12.0710 C.2   158  ASP158      0.3671
    146  OD1      -20.4300  -12.0560   12.6180 O.co2 158  ASP158     -0.2456
    147  OD2      -18.8560  -11.7720   11.1040 O.co2 158  ASP158     -0.2456
@<TRIPOS>BOND
     1   119   118    2
     2   118   117    1
     3   112   111    2
     4   111   110    1
     5   116   117    1
     6   117   120    1
     7   101   102    1
     8   110   113    1
     9   110   109    1
    10   115   113    1
    11   113   114    1
    12   104   103    2
    13   109   103   am
    14   103   102    1
    15   131   129    1
    16   102   105    1
    17   120   121    1
    18    97    98    2
    19    97    96    1
    20    83    84    1
    21   129   128    1
    22   128   130    1
    23   128   125    1
    24   124   125    1
    25   121   123    1
    26   121   122    1
    27    95    96    1
    28    95    85   am
    29   105   106    1
    30    96    99    1
    31    85    84    1
    32    85    86    2
    33    80    81    2
    34    80    79    1
    35    84    87    1
    36   100    99    1
    37   125   126    1
    38   126   127    2
    39   106   107    1
    40    78    79    1
    41    69    70    2
    42    69    68    1
    43    79    82    1
    44    67    68    1
    45    87    88    1
    46    90    88   ar
    47    90    92   ar
    48    88    89   ar
    49    92    93   ar
    50    89    91   ar
    51    93    91   ar
    52    93    94    1
    53    68    71    1
    54   107   108    1
    55    24    23    1
    56   147   145   ar
    57    71    72    1
    58   138   137    1
    59    74    72   ar
    60    74    76   ar
    61   132   133    1
    62    22    23    1
    63    22    21    1
    64   145   144    1
    65   145   146   ar
    66    72    73   ar
    67   137   136    1
    68   137   139    1
    69    76    77   ar
    70    21    18    1
    71   144   141    1
    72    37    34    1
    73   136   133    1
    74   140   141    1
    75   140   134   am
    76   133   134    1
    77    73    75   ar
    78    44    42    1
    79     5     6    1
    80     5     2    1
    81    77    75   ar
    82     8     7   ar
    83     6     7    1
    84     7     9   ar
    85   141   142    1
    86   134   135    2
    87    18    19    1
    88    18    17    1
    89    20    19    2
    90    34    33    1
    91    34    35    1
    92     4     3    2
    93     3     2    1
    94   142   143    2
    95    38    35   am
    96    38    39    1
    97    35    36    2
    98     2     1    1
    99    42    39    1
   100    42    43    1
   101    17    12   am
   102    32    31    1
   103    39    40    1
   104    29    30    1
   105    29    26    1
   106    31    30    1
   107    27    28    2
   108    27    26    1
   109    53    51   ar
   110    53    54   ar
   111    56    54   ar
   112    56    58   ar
   113    51    50   ar
   114    54    52   ar
   115    58    57   ar
   116    50    52   ar
   117    50    49    1
   118    52    55   ar
   119    57    55   ar
   120    49    46    1
   121    15    14    1
   122    12    13    2
   123    12    11    1
   124    26    25    1
   125    65    63    1
   126    14    11    1
   127    14    16    1
   128    40    41    2
   129    62    61    2
   130    66    64    1
   131    11    10    1
   132    46    45    1
   133    46    47    1
   134    63    64    1
   135    63    60    1
   136    61    60    1
   137    60    59    1
   138    47    48    2
