@<TRIPOS>MOLECULE
tmp/6hryA00.pdb
 131 122 0 0 0
SMALL
GASTEIGER

@<TRIPOS>ATOM
      1  N        -16.3440   22.6180  -16.4210 N.3    60  GLU60      -0.1245
      2  CA       -17.2950   22.0320  -15.4220 C.3    60  GLU60       0.1567
      3  C        -18.4770   22.9910  -15.2430 C.2    60  GLU60       0.2260
      4  O        -19.6330   22.5290  -15.2240 O.2    60  GLU60      -0.2867
      5  CB       -16.6460   21.7690  -14.0650 C.3    60  GLU60       0.0388
      6  CG       -15.6240   20.6730  -14.0950 C.3    60  GLU60       0.1160
      7  CD       -16.1560   19.2590  -13.9410 C.2    60  GLU60       0.3649
      8  OE1      -17.3670   19.0960  -13.7700 O.co2  60  GLU60      -0.2457
      9  OE2      -15.3370   18.3360  -14.0710 O.co2  60  GLU60      -0.2457
     10  N        -20.6430   22.4970  -18.4150 N.3    63  VAL63      -0.1231
     11  CA       -21.3280   21.1830  -18.2380 C.3    63  VAL63       0.1692
     12  C        -22.5660   21.3720  -17.3460 C.2    63  VAL63       0.2591
     13  O        -23.6490   20.8850  -17.7550 O.2    63  VAL63      -0.2718
     14  CB       -20.3500   20.1420  -17.6640 C.3    63  VAL63       0.0266
     15  CG1      -21.0730   18.8950  -17.1610 C.3    63  VAL63       0.0020
     16  CG2      -19.2740   19.7670  -18.6830 C.3    63  VAL63       0.0020
     17  N        -22.4180   22.0150  -16.1760 N.am   64  MET64      -0.1979
     18  CA       -23.5160   22.1790  -15.1930 C.3    64  MET64       0.1605
     19  C        -24.6230   23.0090  -15.8390 C.2    64  MET64       0.2287
     20  O        -25.8040   22.6310  -15.7290 O.2    64  MET64      -0.2864
     21  CB       -23.0730   22.8470  -13.8790 C.3    64  MET64       0.0413
     22  CG       -22.0120   22.0530  -13.0880 C.3    64  MET64       0.0598
     23  SD       -22.4050   20.2790  -12.9130 S.3    64  MET64      -0.1393
     24  CE       -23.7170   20.4370  -11.7010 C.3    64  MET64       0.0692
     25  N        -26.4470   20.9200  -18.5040 N.3    67  MET67      -0.1245
     26  CA       -27.3460   19.9310  -17.8380 C.3    67  MET67       0.1570
     27  C        -28.5950   20.6280  -17.2770 C.2    67  MET67       0.2261
     28  O        -29.7100   20.1240  -17.5230 O.2    67  MET67      -0.2867
     29  CB       -26.6030   19.1660  -16.7280 C.3    67  MET67       0.0387
     30  CG       -25.6560   18.1580  -17.2970 C.3    67  MET67       0.0595
     31  SD       -24.7630   17.2360  -15.9940 S.3    67  MET67      -0.1393
     32  CE       -26.1130   16.4900  -15.0820 C.3    67  MET67       0.0692
     33  N        -26.6630   14.2060  -18.4900 N.3    90  TRP90      -0.1241
     34  CA       -25.2420   13.8680  -18.2320 C.3    90  TRP90       0.1605
     35  C        -24.7110   13.0280  -19.3830 C.2    90  TRP90       0.2264
     36  O        -23.5720   13.2710  -19.8120 O.2    90  TRP90      -0.2867
     37  CB       -25.1090   13.1280  -16.8810 C.3    90  TRP90       0.0550
     38  CG       -23.7520   12.5310  -16.6570 C.ar   90  TRP90       0.0003
     39  CD1      -23.4670   11.2080  -16.4960 C.ar   90  TRP90       0.0946
     40  CD2      -22.4910   13.2220  -16.5780 C.ar   90  TRP90       0.0152
     41  NE1      -22.1140   11.0270  -16.3540 N.ar   90  TRP90      -0.2442
     42  CE2      -21.4900   12.2420  -16.3990 C.ar   90  TRP90       0.0810
     43  CE3      -22.0930   14.5610  -16.7230 C.ar   90  TRP90       0.0012
     44  CZ2      -20.1360   12.5640  -16.3150 C.ar   90  TRP90       0.0191
     45  CZ3      -20.7620   14.8790  -16.5940 C.ar   90  TRP90       0.0001
     46  CH2      -19.7950   13.8910  -16.4260 C.ar   90  TRP90       0.0015
     47  N        -12.4170   16.3630  -19.8440 N.3   103  ILE103     -0.1231
     48  CA       -12.8550   15.9540  -18.4820 C.3   103  ILE103      0.1692
     49  C        -12.6440   14.4540  -18.3060 C.2   103  ILE103      0.2591
     50  O        -12.1730   14.0580  -17.2270 O.2   103  ILE103     -0.2718
     51  CB       -14.3010   16.3770  -18.2060 C.3   103  ILE103      0.0266
     52  CG1      -14.4650   17.8840  -18.3510 C.3   103  ILE103      0.0019
     53  CG2      -14.7560   15.8940  -16.8410 C.3   103  ILE103      0.0020
     54  CD1      -13.5770   18.6990  -17.4230 C.3   103  ILE103      0.0001
     55  N        -12.9930   13.6290  -19.2890 N.am  104  LEU104     -0.1980
     56  CA       -12.9620   12.1610  -19.0620 C.3   104  LEU104      0.1596
     57  C        -11.5520   11.6230  -19.3120 C.2   104  LEU104      0.2287
     58  O        -11.1590   10.6980  -18.5710 O.2   104  LEU104     -0.2864
     59  CB       -14.0390   11.4620  -19.8970 C.3   104  LEU104      0.0297
     60  CG       -15.4790   11.9440  -19.6700 C.3   104  LEU104      0.0022
     61  CD1      -16.4760   11.1080  -20.4920 C.3   104  LEU104      0.0001
     62  CD2      -15.8500   11.8590  -18.1970 C.3   104  LEU104      0.0001
     63  N         -8.4710   15.7120   -9.3870 N.3   116  PHE116     -0.1241
     64  CA        -9.6280   15.4290  -10.2740 C.3   116  PHE116      0.1605
     65  C        -10.8730   15.1210   -9.4330 C.2   116  PHE116      0.2264
     66  O        -11.9730   15.6540   -9.7220 O.2   116  PHE116     -0.2867
     67  CB        -9.2860   14.3170  -11.2610 C.3   116  PHE116      0.0534
     68  CG       -10.4390   13.9400  -12.1420 C.ar  116  PHE116     -0.0203
     69  CD1      -10.9810   14.8730  -12.9990 C.ar  116  PHE116     -0.0042
     70  CD2      -11.0270   12.6940  -12.0450 C.ar  116  PHE116     -0.0042
     71  CE1      -12.0860   14.5570  -13.7750 C.ar  116  PHE116     -0.0003
     72  CE2      -12.1190   12.3740  -12.8350 C.ar  116  PHE116     -0.0003
     73  CZ       -12.6420   13.3090  -13.7000 C.ar  116  PHE116     -0.0000
     74  N        -14.5150   17.1810   -9.4950 N.3   120  ALA120     -0.1245
     75  CA       -15.7260   16.4920   -9.9840 C.3   120  ALA120      0.1562
     76  C        -16.7570   16.4220   -8.8370 C.2   120  ALA120      0.2260
     77  O        -17.9440   16.6840   -9.0880 O.2   120  ALA120     -0.2867
     78  CB       -15.3430   15.1740  -10.5750 C.3   120  ALA120      0.0290
     79  N        -20.5000   17.9730   -8.9260 N.3   124  SER124     -0.1217
     80  CA       -21.5610   16.9320   -9.0060 C.3   124  SER124      0.1889
     81  C        -22.2910   16.7120   -7.6630 C.2   124  SER124      0.2288
     82  O        -23.4890   16.4110   -7.7350 O.2   124  SER124     -0.2866
     83  CB       -20.9870   15.6650   -9.5950 C.3   124  SER124      0.2089
     84  OG       -20.0250   15.1000   -8.7210 O.3   124  SER124     -0.2183
     85  N        -25.5830   19.3330   -6.7940 N.3   127  MET127     -0.1230
     86  CA       -26.7530   19.1320   -7.6920 C.3   127  MET127      0.1702
     87  C        -27.3830   17.7770   -7.3340 C.2   127  MET127      0.2593
     88  O        -28.6210   17.7070   -7.2690 O.2   127  MET127     -0.2718
     89  CB       -26.3870   19.1340   -9.1830 C.3   127  MET127      0.0401
     90  CG       -26.0800   17.7500   -9.7490 C.3   127  MET127      0.0596
     91  SD       -26.3060   17.6010  -11.5290 S.3   127  MET127     -0.1393
     92  CE       -28.0640   17.2850  -11.6180 C.3   127  MET127      0.0692
     93  N        -26.5590   16.7460   -7.1030 N.am  128  THR128     -0.1953
     94  CA       -27.0790   15.3860   -6.8240 C.3   128  THR128      0.1897
     95  C        -27.8510   15.4050   -5.5010 C.2   128  THR128      0.2313
     96  O        -28.9860   14.8760   -5.4580 O.2   128  THR128     -0.2863
     97  CB       -25.9940   14.3200   -6.8630 C.3   128  THR128      0.1794
     98  OG1      -25.3520   14.4150   -8.1300 O.3   128  THR128     -0.2208
     99  CG2      -26.5830   12.9280   -6.7010 C.3   128  THR128      0.0378
    100  N        -23.2940    9.2250   -7.9480 N.3   154  ILE154     -0.1245
    101  CA       -22.1590    9.8850   -8.6580 C.3   154  ILE154      0.1561
    102  C        -21.1960    8.8220   -9.1560 C.2   154  ILE154      0.2260
    103  O        -20.7310    8.9400  -10.3040 O.2   154  ILE154     -0.2867
    104  CB       -21.5200   10.9530   -7.7480 C.3   154  ILE154      0.0252
    105  CG1      -22.4910   12.1160   -7.5900 C.3   154  ILE154      0.0019
    106  CG2      -20.1540   11.3710   -8.2580 C.3   154  ILE154      0.0019
    107  CD1      -22.1090   13.1100   -6.5210 C.3   154  ILE154      0.0001
    108  N        -22.8340    7.2900  -12.2760 N.3   157  LEU157     -0.1231
    109  CA       -22.8310    8.2270  -13.4340 C.3   157  LEU157      0.1693
    110  C        -21.4210    8.4660  -13.9870 C.2   157  LEU157      0.2592
    111  O        -21.2850    8.5510  -15.2480 O.2   157  LEU157     -0.2718
    112  CB       -23.4620    9.5360  -12.9960 C.3   157  LEU157      0.0284
    113  CG       -24.9480    9.4860  -12.6740 C.3   157  LEU157      0.0019
    114  CD1      -25.3710   10.8260  -12.1460 C.3   157  LEU157      0.0001
    115  CD2      -25.7880    9.0960  -13.8860 C.3   157  LEU157      0.0001
    116  N        -20.4050    8.5540  -13.1180 N.am  158  ASP158     -0.1974
    117  CA       -18.9970    8.7310  -13.5320 C.3   158  ASP158      0.1709
    118  C        -18.5720    7.5000  -14.3260 C.2   158  ASP158      0.2293
    119  O        -17.8930    7.6560  -15.3690 O.2   158  ASP158     -0.2864
    120  CB       -18.0520    8.8870  -12.3360 C.3   158  ASP158      0.1436
    121  CG       -18.1650   10.2120  -11.6080 C.2   158  ASP158      0.3671
    122  OD1      -18.8660   11.0830  -12.1000 O.co2 158  ASP158     -0.2456
    123  OD2      -17.5190   10.3400  -10.5400 O.co2 158  ASP158     -0.2456
    124  N        -17.4120    7.0420  -18.3840 N.3   162  MET162     -0.1245
    125  CA       -16.0840    6.4730  -18.7010 C.3   162  MET162      0.1570
    126  C        -16.2780    5.2450  -19.5820 C.2   162  MET162      0.2261
    127  O        -15.4830    5.0710  -20.4860 O.2   162  MET162     -0.2867
    128  CB       -15.3010    6.0630  -17.4510 C.3   162  MET162      0.0387
    129  CG       -14.9100    7.2220  -16.5940 C.3   162  MET162      0.0595
    130  SD       -14.0400    8.5460  -17.5220 S.3   162  MET162     -0.1393
    131  CE       -12.8910    7.6040  -18.5280 C.3   162  MET162      0.0692
@<TRIPOS>BOND
     1    61    60    1
     2   127   126    2
     3    59    60    1
     4    59    56    1
     5    47    48    1
     6    36    35    2
     7    60    62    1
     8   126   125    1
     9    35    34    1
    10    57    56    1
    11    57    58    2
    12    55    56    1
    13    55    49   am
    14   125   124    1
    15   125   128    1
    16    16    14    1
    17   131   130    1
    18    25    26    1
    19    33    34    1
    20    48    49    1
    21    48    51    1
    22    10    11    1
    23    52    51    1
    24    52    54    1
    25    49    50    2
    26    11    14    1
    27    11    12    1
    28    34    37    1
    29    51    53    1
    30    26    27    1
    31    26    29    1
    32    13    12    2
    33    14    15    1
    34    28    27    2
    35   130   129    1
    36   128   129    1
    37    12    17   am
    38    30    29    1
    39    30    31    1
    40    37    38    1
    41    43    45   ar
    42    43    40   ar
    43    38    40   ar
    44    38    39   ar
    45    45    46   ar
    46    40    42   ar
    47    39    41   ar
    48    46    44   ar
    49     1     2    1
    50    42    41   ar
    51    42    44   ar
    52    17    18    1
    53    31    32    1
    54    19    20    2
    55    19    18    1
    56     2     3    1
    57     2     5    1
    58   119   118    2
    59   111   110    2
    60     3     4    2
    61    18    21    1
    62   118   117    1
    63     6     5    1
    64     6     7    1
    65     9     7   ar
    66   110   109    1
    67   110   116   am
    68     7     8   ar
    69   115   113    1
    70    21    22    1
    71    71    73   ar
    72    71    69   ar
    73    73    72   ar
    74   117   116    1
    75   117   120    1
    76   109   112    1
    77   109   108    1
    78    22    23    1
    79    69    68   ar
    80   112   113    1
    81    23    24    1
    82    72    70   ar
    83   113   114    1
    84   120   121    1
    85    68    70   ar
    86    68    67    1
    87   122   121   ar
    88    92    91    1
    89   121   123   ar
    90    91    90    1
    91    67    64    1
    92    78    75    1
    93   103   102    2
    94    64    65    1
    95    64    63    1
    96    75    74    1
    97    75    76    1
    98    90    89    1
    99    66    65    2
   100    83    80    1
   101    83    84    1
   102    89    86    1
   103   102   101    1
   104    77    76    2
   105    80    79    1
   106    80    81    1
   107   101   100    1
   108   101   104    1
   109   106   104    1
   110    98    97    1
   111   104   105    1
   112    82    81    2
   113    86    87    1
   114    86    85    1
   115   105   107    1
   116    87    88    2
   117    87    93   am
   118    93    94    1
   119    97    94    1
   120    97    99    1
   121    94    95    1
   122    95    96    2
