@<TRIPOS>MOLECULE
tmp/6hrzA00.pdb
 116 109 0 0 0
SMALL
GASTEIGER

@<TRIPOS>ATOM
      1  N          5.1110  -18.0930  -10.2850 N.3    71  MET71      -0.1245
      2  CA         4.6790  -19.1790  -11.2130 C.3    71  MET71       0.1570
      3  C          3.7640  -20.1460  -10.4420 C.2    71  MET71       0.2261
      4  O          2.6780  -20.4500  -10.9540 O.2    71  MET71      -0.2867
      5  CB         5.8610  -19.9450  -11.8090 C.3    71  MET71       0.0387
      6  CG         6.5850  -19.1910  -12.9290 C.3    71  MET71       0.0595
      7  SD         5.6470  -18.8560  -14.4060 S.3    71  MET71      -0.1393
      8  CE         5.6680  -20.5300  -15.0550 C.3    71  MET71       0.0692
      9  N          0.6520  -22.9640  -17.0040 N.3    90  ALA90      -0.1245
     10  CA         2.0800  -22.6230  -16.7580 C.3    90  ALA90       0.1562
     11  C          2.6030  -21.7910  -17.9390 C.2    90  ALA90       0.2260
     12  O          3.3800  -20.8600  -17.6810 O.2    90  ALA90      -0.2867
     13  CB         2.9330  -23.8360  -16.5180 C.3    90  ALA90       0.0290
     14  N          4.0290  -18.0560  -17.3850 N.3    94  TRP94      -0.1241
     15  CA         5.4080  -17.6740  -17.7830 C.3    94  TRP94       0.1605
     16  C          5.3770  -16.3840  -18.5900 C.2    94  TRP94       0.2264
     17  O          6.2530  -15.5150  -18.3260 O.2    94  TRP94      -0.2867
     18  CB         6.1010  -18.8100  -18.5220 C.3    94  TRP94       0.0550
     19  CG         7.3950  -18.4220  -19.1510 C.ar   94  TRP94       0.0003
     20  CD1        7.7180  -18.5360  -20.4610 C.ar   94  TRP94       0.0946
     21  CD2        8.5620  -17.9360  -18.4690 C.ar   94  TRP94       0.0152
     22  NE1        9.0020  -18.1000  -20.6680 N.ar   94  TRP94      -0.2442
     23  CE2        9.5480  -17.7600  -19.4700 C.ar   94  TRP94       0.0810
     24  CE3        8.8660  -17.6160  -17.1380 C.ar   94  TRP94       0.0012
     25  CZ2       10.8110  -17.2610  -19.1660 C.ar   94  TRP94       0.0191
     26  CZ3       10.1220  -17.1320  -16.8260 C.ar   94  TRP94       0.0001
     27  CH2       11.1040  -17.0260  -17.8300 C.ar   94  TRP94       0.0015
     28  N         24.2750  -18.9150  -15.7050 N.3   120  PHE120     -0.1227
     29  CA        22.8580  -18.5390  -15.7590 C.3   120  PHE120      0.1736
     30  C         22.0650  -19.8510  -15.8420 C.2   120  PHE120      0.2595
     31  O         21.0550  -19.9810  -15.1740 O.2   120  PHE120     -0.2718
     32  CB        22.5440  -17.5600  -16.8980 C.3   120  PHE120      0.0547
     33  CG        21.0870  -17.4440  -17.2570 C.ar  120  PHE120     -0.0202
     34  CD1       20.2150  -16.6760  -16.4800 C.ar  120  PHE120     -0.0042
     35  CD2       20.5650  -18.1680  -18.3140 C.ar  120  PHE120     -0.0042
     36  CE1       18.8600  -16.5980  -16.7800 C.ar  120  PHE120     -0.0003
     37  CE2       19.2070  -18.1010  -18.6080 C.ar  120  PHE120     -0.0003
     38  CZ        18.3570  -17.3300  -17.8330 C.ar  120  PHE120     -0.0000
     39  N         22.5280  -20.7940  -16.6380 N.am  121  ARG121     -0.1980
     40  CA        21.7340  -22.0260  -16.8630 C.3   121  ARG121      0.1597
     41  C         21.6970  -22.8080  -15.5590 C.2   121  ARG121      0.2287
     42  O         20.6300  -23.3730  -15.2870 O.2   121  ARG121     -0.2864
     43  CB        22.3060  -22.7990  -18.0500 C.3   121  ARG121      0.0334
     44  CG        22.0050  -22.0480  -19.3450 C.3   121  ARG121      0.0492
     45  CD        22.8540  -22.5010  -20.5300 C.3   121  ARG121      0.2205
     46  NE        22.5790  -23.8910  -20.8670 N.pl3 121  ARG121     -0.0865
     47  CZ        21.6110  -24.2860  -21.6940 C.cat 121  ARG121      0.5346
     48  NH1       20.7850  -23.4180  -22.2590 N.pl3 121  ARG121      0.1354
     49  NH2       21.4720  -25.5670  -21.9380 N.pl3 121  ARG121      0.1354
     50  N         19.0240  -21.0640  -13.3500 N.3   124  ALA124     -0.1231
     51  CA        17.6700  -21.2400  -13.9040 C.3   124  ALA124      0.1694
     52  C         17.2040  -22.6670  -13.6080 C.2   124  ALA124      0.2591
     53  O         16.0580  -22.8610  -13.1780 O.2   124  ALA124     -0.2718
     54  CB        17.7020  -20.9160  -15.3780 C.3   124  ALA124      0.0304
     55  N         18.0900  -23.6340  -13.8050 N.am  125  GLN125     -0.1979
     56  CA        17.7530  -25.0710  -13.5750 C.3   125  GLN125      0.1601
     57  C         17.4260  -25.3020  -12.1030 C.2   125  GLN125      0.2287
     58  O         16.3870  -25.9350  -11.7630 O.2   125  GLN125     -0.2864
     59  CB        18.8770  -25.9740  -14.0410 C.3   125  GLN125      0.0394
     60  CG        18.6460  -27.4480  -13.7200 C.3   125  GLN125      0.0908
     61  CD        19.8560  -28.2100  -14.2130 C.2   125  GLN125      0.2608
     62  OE1       20.4070  -27.9040  -15.2630 O.2   125  GLN125     -0.2717
     63  NE2       20.3440  -29.1310  -13.4180 N.am  125  GLN125     -0.0878
     64  N         13.8190  -23.8080  -11.5480 N.3   128  SER128     -0.1217
     65  CA        12.7120  -24.1580  -12.4750 C.3   128  SER128      0.1889
     66  C         12.5240  -25.6680  -12.6420 C.2   128  SER128      0.2288
     67  O         11.4170  -26.0520  -13.0580 O.2   128  SER128     -0.2866
     68  CB        12.8810  -23.5260  -13.8400 C.3   128  SER128      0.2089
     69  OG        13.9940  -24.0490  -14.5400 O.3   128  SER128     -0.2183
     70  N          9.5100  -27.7310  -10.6400 N.3   131  MET131     -0.1230
     71  CA         8.1420  -27.4650  -11.1470 C.3   131  MET131      0.1702
     72  C          8.0000  -28.1180  -12.5220 C.2   131  MET131      0.2593
     73  O          6.9330  -28.7300  -12.8050 O.2   131  MET131     -0.2718
     74  CB         7.8020  -25.9690  -11.2930 C.3   131  MET131      0.0401
     75  CG         6.4050  -25.7390  -11.9420 C.3   131  MET131      0.0596
     76  SD         5.7660  -24.0570  -12.4660 S.3   131  MET131     -0.1393
     77  CE         4.0260  -24.3300  -12.1320 C.3   131  MET131      0.0692
     78  N          8.9720  -27.9280  -13.4030 N.am  132  THR132     -0.1953
     79  CA         8.8350  -28.3520  -14.8110 C.3   132  THR132      0.1897
     80  C          8.6930  -29.8840  -14.8570 C.2   132  THR132      0.2313
     81  O          7.7740  -30.3840  -15.5770 O.2   132  THR132     -0.2863
     82  CB        10.0000  -27.8940  -15.6740 C.3   132  THR132      0.1794
     83  OG1       10.0590  -26.4760  -15.5590 O.3   132  THR132     -0.2208
     84  CG2        9.8400  -28.2960  -17.1180 C.3   132  THR132      0.0378
     85  N          5.2900  -31.1480  -13.4330 N.3   135  LEU135     -0.1245
     86  CA         4.1780  -30.8960  -14.3950 C.3   135  LEU135      0.1561
     87  C          4.2110  -32.0130  -15.4540 C.2   135  LEU135      0.2260
     88  O          3.1400  -32.5890  -15.7970 O.2   135  LEU135     -0.2867
     89  CB         4.3310  -29.5680  -15.1410 C.3   135  LEU135      0.0270
     90  CG         3.8620  -28.2860  -14.4550 C.3   135  LEU135      0.0019
     91  CD1        4.5070  -27.0670  -15.1240 C.3   135  LEU135      0.0001
     92  CD2        2.3620  -28.1530  -14.5380 C.3   135  LEU135      0.0001
     93  N         11.7840  -26.0730  -22.4490 N.3   158  ILE158     -0.1245
     94  CA        12.4610  -24.8900  -21.8520 C.3   158  ILE158      0.1561
     95  C         13.1170  -24.0750  -22.9810 C.2   158  ILE158      0.2260
     96  O         13.0100  -22.8440  -22.9100 O.2   158  ILE158     -0.2867
     97  CB        13.3970  -25.3520  -20.7200 C.3   158  ILE158      0.0252
     98  CG1       12.5430  -25.7630  -19.5000 C.3   158  ILE158      0.0019
     99  CG2       14.4540  -24.3010  -20.4220 C.3   158  ILE158      0.0019
    100  CD1       13.2810  -26.4950  -18.3980 C.3   158  ILE158      0.0001
    101  N         10.2970  -22.0620  -24.5140 N.3   161  LEU161     -0.1231
    102  CA         9.7260  -21.0620  -23.5830 C.3   161  LEU161      0.1693
    103  C         10.7090  -19.9060  -23.3640 C.2   161  LEU161      0.2592
    104  O         10.2540  -18.7480  -23.2630 O.2   161  LEU161     -0.2718
    105  CB         9.4150  -21.7480  -22.2450 C.3   161  LEU161      0.0284
    106  CG         8.2510  -22.7010  -22.3190 C.3   161  LEU161      0.0019
    107  CD1        8.3210  -23.7220  -21.1900 C.3   161  LEU161      0.0001
    108  CD2        6.9620  -21.9030  -22.2860 C.3   161  LEU161      0.0001
    109  N         12.0090  -20.1950  -23.3210 N.am  162  ASP162     -0.1974
    110  CA        13.0350  -19.1430  -23.1160 C.3   162  ASP162      0.1709
    111  C         13.0510  -18.2430  -24.3530 C.2   162  ASP162      0.2293
    112  O         13.1160  -17.0250  -24.1940 O.2   162  ASP162     -0.2864
    113  CB        14.4190  -19.7410  -22.8470 C.3   162  ASP162      0.1436
    114  CG        14.6120  -20.1100  -21.3830 C.2   162  ASP162      0.3671
    115  OD1       13.7250  -19.8080  -20.5700 O.co2 162  ASP162     -0.2456
    116  OD2       15.6180  -20.7350  -21.0830 O.co2 162  ASP162     -0.2456
@<TRIPOS>BOND
     1   101   102    1
     2   111   112    2
     3   111   110    1
     4   102   103    1
     5   102   105    1
     6   103   109   am
     7   103   104    2
     8   109   110    1
     9   110   113    1
    10    95    96    2
    11    95    94    1
    12   113   114    1
    13    93    94    1
    14   106   108    1
    15   106   105    1
    16   106   107    1
    17    48    47    1
    18    49    47    1
    19    94    97    1
    20    47    46    2
    21   114   116   ar
    22   114   115   ar
    23    46    45    1
    24    97    99    1
    25    97    98    1
    26    22    20   ar
    27    22    23   ar
    28    45    44    1
    29    20    19   ar
    30    98   100    1
    31    23    25   ar
    32    23    21   ar
    33    44    43    1
    34    25    27   ar
    35    19    18    1
    36    19    21   ar
    37    37    35   ar
    38    37    38   ar
    39    16    17    2
    40    16    15    1
    41    18    15    1
    42    21    24   ar
    43    35    33   ar
    44    43    40    1
    45    11    12    2
    46    11    10    1
    47    38    36   ar
    48    27    26   ar
    49    15    14    1
    50    33    32    1
    51    33    34   ar
    52    24    26   ar
    53    84    82    1
    54     9    10    1
    55    32    29    1
    56    40    39    1
    57    40    41    1
    58    36    34   ar
    59    10    13    1
    60    39    30   am
    61    30    29    1
    62    30    31    2
    63    88    87    2
    64    29    28    1
    65    82    83    1
    66    82    79    1
    67    81    80    2
    68    41    42    2
    69    87    86    1
    70    54    51    1
    71    62    61    2
    72    89    90    1
    73    89    86    1
    74    91    90    1
    75     8     7    1
    76    80    79    1
    77    79    78    1
    78    69    68    1
    79    92    90    1
    80     7     6    1
    81    86    85    1
    82    61    60    1
    83    61    63   am
    84    59    60    1
    85    59    56    1
    86    51    52    1
    87    51    50    1
    88    68    65    1
    89    55    52   am
    90    55    56    1
    91    52    53    2
    92    56    57    1
    93    78    72   am
    94    67    66    2
    95     6     5    1
    96    73    72    2
    97    66    65    1
    98    72    71    1
    99    65    64    1
   100    76    77    1
   101    76    75    1
   102    57    58    2
   103    75    74    1
   104     5     2    1
   105    74    71    1
   106     2     3    1
   107     2     1    1
   108    71    70    1
   109     4     3    2
