@<TRIPOS>MOLECULE
tmp/6hrzA01.pdb
 119 113 0 0 0
SMALL
GASTEIGER

@<TRIPOS>ATOM
      1  N         14.8540  -14.7940   -8.9020 N.3    64  GLU64      -0.1245
      2  CA        14.4880  -16.1990   -9.2760 C.3    64  GLU64       0.1567
      3  C         13.5330  -16.7730   -8.2460 C.2    64  GLU64       0.2260
      4  O         12.5340  -17.3900   -8.6620 O.2    64  GLU64      -0.2867
      5  CB        15.7170  -17.0580   -9.4390 C.3    64  GLU64       0.0388
      6  CG        16.5530  -16.7860  -10.6660 C.3    64  GLU64       0.1160
      7  CD        16.0030  -17.3610  -11.9620 C.2    64  GLU64       0.3649
      8  OE1       14.9660  -18.0400  -11.8910 O.co2  64  GLU64      -0.2457
      9  OE2       16.6210  -17.1860  -12.9940 O.co2  64  GLU64      -0.2457
     10  N         10.2450  -15.3330   -9.0970 N.3    67  VAL67      -0.1231
     11  CA         9.7090  -15.9300  -10.3470 C.3    67  VAL67       0.1692
     12  C          9.0480  -17.2830   -9.9730 C.2    67  VAL67       0.2591
     13  O          7.9260  -17.5530  -10.3950 O.2    67  VAL67      -0.2718
     14  CB        10.8180  -16.0900  -11.4060 C.3    67  VAL67       0.0266
     15  CG1       10.3360  -16.9810  -12.5500 C.3    67  VAL67       0.0020
     16  CG2       11.2810  -14.7550  -11.9500 C.3    67  VAL67       0.0020
     17  N          9.8090  -18.1410   -9.3200 N.am   68  MET68      -0.1979
     18  CA         9.3450  -19.5050   -8.9270 C.3    68  MET68       0.1605
     19  C          8.0460  -19.3860   -8.0920 C.2    68  MET68       0.2287
     20  O          7.0430  -20.0800   -8.4150 O.2    68  MET68      -0.2864
     21  CB        10.4520  -20.1980   -8.1530 C.3    68  MET68       0.0413
     22  CG        10.0810  -21.5630   -7.5900 C.3    68  MET68       0.0598
     23  SD        11.4770  -22.3280   -6.6740 S.3    68  MET68      -0.1393
     24  CE        11.6130  -21.2950   -5.2160 C.3    68  MET68       0.0692
     25  N          5.1110  -18.0930  -10.2850 N.3    71  MET71      -0.1245
     26  CA         4.6790  -19.1790  -11.2130 C.3    71  MET71       0.1570
     27  C          3.7640  -20.1460  -10.4420 C.2    71  MET71       0.2261
     28  O          2.6780  -20.4500  -10.9540 O.2    71  MET71      -0.2867
     29  CB         5.8610  -19.9450  -11.8090 C.3    71  MET71       0.0387
     30  CG         6.5850  -19.1910  -12.9290 C.3    71  MET71       0.0595
     31  SD         5.6470  -18.8560  -14.4060 S.3    71  MET71      -0.1393
     32  CE         5.6680  -20.5300  -15.0550 C.3    71  MET71       0.0692
     33  N          4.0290  -18.0560  -17.3850 N.3    94  TRP94      -0.1241
     34  CA         5.4080  -17.6740  -17.7830 C.3    94  TRP94       0.1605
     35  C          5.3770  -16.3840  -18.5900 C.2    94  TRP94       0.2264
     36  O          6.2530  -15.5150  -18.3260 O.2    94  TRP94      -0.2867
     37  CB         6.1010  -18.8100  -18.5220 C.3    94  TRP94       0.0550
     38  CG         7.3950  -18.4220  -19.1510 C.ar   94  TRP94       0.0003
     39  CD1        7.7180  -18.5360  -20.4610 C.ar   94  TRP94       0.0946
     40  CD2        8.5620  -17.9360  -18.4690 C.ar   94  TRP94       0.0152
     41  NE1        9.0020  -18.1000  -20.6680 N.ar   94  TRP94      -0.2442
     42  CE2        9.5480  -17.7600  -19.4700 C.ar   94  TRP94       0.0810
     43  CE3        8.8660  -17.6160  -17.1380 C.ar   94  TRP94       0.0012
     44  CZ2       10.8110  -17.2610  -19.1660 C.ar   94  TRP94       0.0191
     45  CZ3       10.1220  -17.1320  -16.8260 C.ar   94  TRP94       0.0001
     46  CH2       11.1040  -17.0260  -17.8300 C.ar   94  TRP94       0.0015
     47  N         16.5330  -10.9450  -15.4520 N.3   107  ILE107     -0.1231
     48  CA        16.5950  -12.4090  -15.7560 C.3   107  ILE107      0.1692
     49  C         16.7080  -12.6510  -17.2480 C.2   107  ILE107      0.2591
     50  O         17.5900  -13.4370  -17.6900 O.2   107  ILE107     -0.2718
     51  CB        15.3990  -13.1450  -15.1620 C.3   107  ILE107      0.0266
     52  CG1       15.3290  -12.9260  -13.6520 C.3   107  ILE107      0.0019
     53  CG2       15.4430  -14.6260  -15.5410 C.3   107  ILE107      0.0020
     54  CD1       16.5590  -13.3240  -12.8770 C.3   107  ILE107      0.0001
     55  N         15.9120  -11.9750  -18.0710 N.am  108  LEU108     -0.1980
     56  CA        15.9300  -12.2950  -19.5090 C.3   108  LEU108      0.1596
     57  C         17.1210  -11.6220  -20.1810 C.2   108  LEU108      0.2287
     58  O         17.7240  -12.2660  -21.0090 O.2   108  LEU108     -0.2864
     59  CB        14.6410  -11.8760  -20.1770 C.3   108  LEU108      0.0297
     60  CG        13.3560  -12.4710  -19.6210 C.3   108  LEU108      0.0022
     61  CD1       12.2000  -12.0040  -20.4760 C.3   108  LEU108      0.0001
     62  CD2       13.4010  -13.9790  -19.5870 C.3   108  LEU108      0.0001
     63  N         24.2750  -18.9150  -15.7050 N.3   120  PHE120     -0.1241
     64  CA        22.8580  -18.5390  -15.7590 C.3   120  PHE120      0.1605
     65  C         22.0650  -19.8510  -15.8420 C.2   120  PHE120      0.2264
     66  O         21.0550  -19.9810  -15.1740 O.2   120  PHE120     -0.2867
     67  CB        22.5440  -17.5600  -16.8980 C.3   120  PHE120      0.0534
     68  CG        21.0870  -17.4440  -17.2570 C.ar  120  PHE120     -0.0203
     69  CD1       20.2150  -16.6760  -16.4800 C.ar  120  PHE120     -0.0042
     70  CD2       20.5650  -18.1680  -18.3140 C.ar  120  PHE120     -0.0042
     71  CE1       18.8600  -16.5980  -16.7800 C.ar  120  PHE120     -0.0003
     72  CE2       19.2070  -18.1010  -18.6080 C.ar  120  PHE120     -0.0003
     73  CZ        18.3570  -17.3300  -17.8330 C.ar  120  PHE120     -0.0000
     74  N         19.0240  -21.0640  -13.3500 N.3   124  ALA124     -0.1245
     75  CA        17.6700  -21.2400  -13.9040 C.3   124  ALA124      0.1562
     76  C         17.2040  -22.6670  -13.6080 C.2   124  ALA124      0.2260
     77  O         16.0580  -22.8610  -13.1780 O.2   124  ALA124     -0.2867
     78  CB        17.7020  -20.9160  -15.3780 C.3   124  ALA124      0.0290
     79  N         16.1020  -23.3100   -9.9490 N.3   127  TYR127     -0.1227
     80  CA        14.8040  -22.7220   -9.5540 C.3   127  TYR127      0.1736
     81  C         13.6060  -23.2960  -10.3450 C.2   127  TYR127      0.2596
     82  O         12.4300  -23.1880   -9.8440 O.2   127  TYR127     -0.2718
     83  CB        14.8560  -21.1980   -9.6550 C.3   127  TYR127      0.0548
     84  CG        15.5680  -20.5700   -8.4910 C.ar  127  TYR127     -0.0200
     85  CD1       14.8880  -20.3200   -7.3240 C.ar  127  TYR127     -0.0009
     86  CD2       16.9040  -20.1910   -8.5780 C.ar  127  TYR127     -0.0009
     87  CE1       15.5290  -19.7550   -6.2330 C.ar  127  TYR127      0.0417
     88  CE2       17.5650  -19.6530   -7.4830 C.ar  127  TYR127      0.0417
     89  CZ        16.8580  -19.3980   -6.3240 C.ar  127  TYR127      0.1957
     90  OH        17.5410  -18.8260   -5.2530 O.3   127  TYR127     -0.2866
     91  N         13.8190  -23.8080  -11.5480 N.am  128  SER128     -0.1952
     92  CA        12.7120  -24.1580  -12.4750 C.3   128  SER128      0.1924
     93  C         12.5240  -25.6680  -12.6420 C.2   128  SER128      0.2314
     94  O         11.4170  -26.0520  -13.0580 O.2   128  SER128     -0.2863
     95  CB        12.8810  -23.5260  -13.8400 C.3   128  SER128      0.2116
     96  OG        13.9940  -24.0490  -14.5400 O.3   128  SER128     -0.2180
     97  N          9.5100  -27.7310  -10.6400 N.3   131  MET131     -0.1230
     98  CA         8.1420  -27.4650  -11.1470 C.3   131  MET131      0.1702
     99  C          8.0000  -28.1180  -12.5220 C.2   131  MET131      0.2593
    100  O          6.9330  -28.7300  -12.8050 O.2   131  MET131     -0.2718
    101  CB         7.8020  -25.9690  -11.2930 C.3   131  MET131      0.0401
    102  CG         6.4050  -25.7390  -11.9420 C.3   131  MET131      0.0596
    103  SD         5.7660  -24.0570  -12.4660 S.3   131  MET131     -0.1393
    104  CE         4.0260  -24.3300  -12.1320 C.3   131  MET131      0.0692
    105  N          8.9720  -27.9280  -13.4030 N.am  132  THR132     -0.1953
    106  CA         8.8350  -28.3520  -14.8110 C.3   132  THR132      0.1897
    107  C          8.6930  -29.8840  -14.8570 C.2   132  THR132      0.2313
    108  O          7.7740  -30.3840  -15.5770 O.2   132  THR132     -0.2863
    109  CB        10.0000  -27.8940  -15.6740 C.3   132  THR132      0.1794
    110  OG1       10.0590  -26.4760  -15.5590 O.3   132  THR132     -0.2208
    111  CG2        9.8400  -28.2960  -17.1180 C.3   132  THR132      0.0378
    112  N         12.0090  -20.1950  -23.3210 N.3   162  ASP162     -0.1239
    113  CA        13.0350  -19.1430  -23.1160 C.3   162  ASP162      0.1674
    114  C         13.0510  -18.2430  -24.3530 C.2   162  ASP162      0.2266
    115  O         13.1160  -17.0250  -24.1940 O.2   162  ASP162     -0.2867
    116  CB        14.4190  -19.7410  -22.8470 C.3   162  ASP162      0.1410
    117  CG        14.6120  -20.1100  -21.3830 C.2   162  ASP162      0.3668
    118  OD1       13.7250  -19.8080  -20.5700 O.co2 162  ASP162     -0.2456
    119  OD2       15.6180  -20.7350  -21.0830 O.co2 162  ASP162     -0.2456
@<TRIPOS>BOND
     1   114   115    2
     2   114   113    1
     3   112   113    1
     4   113   116    1
     5   116   117    1
     6   117   119   ar
     7   117   118   ar
     8    58    57    2
     9    41    39   ar
    10    41    42   ar
    11    61    60    1
    12    39    38   ar
    13    57    56    1
    14    59    60    1
    15    59    56    1
    16    60    62    1
    17    56    55    1
    18    42    44   ar
    19    42    40   ar
    20    44    46   ar
    21    38    37    1
    22    38    40   ar
    23    72    70   ar
    24    72    73   ar
    25    35    36    2
    26    35    34    1
    27    37    34    1
    28    40    43   ar
    29    70    68   ar
    30    55    49   am
    31    73    71   ar
    32    46    45   ar
    33    34    33    1
    34    50    49    2
    35    68    67    1
    36    68    69   ar
    37    49    48    1
    38    43    45   ar
    39   111   109    1
    40    67    64    1
    41    71    69   ar
    42    65    64    1
    43    65    66    2
    44    64    63    1
    45    48    47    1
    46    48    51    1
    47   109   110    1
    48   109   106    1
    49   108   107    2
    50    53    51    1
    51    78    75    1
    52    51    52    1
    53    32    31    1
    54   107   106    1
    55   106   105    1
    56    96    95    1
    57    31    30    1
    58    75    76    1
    59    75    74    1
    60    95    92    1
    61    52    54    1
    62    76    77    2
    63   105    99   am
    64    94    93    2
    65     9     7   ar
    66    30    29    1
    67   100    99    2
    68    93    92    1
    69    15    14    1
    70    99    98    1
    71    92    91    1
    72   103   104    1
    73   103   102    1
    74     7     8   ar
    75     7     6    1
    76    16    14    1
    77   102   101    1
    78    29    26    1
    79    91    81   am
    80    14    11    1
    81   101    98    1
    82    26    27    1
    83    26    25    1
    84    98    97    1
    85    28    27    2
    86     6     5    1
    87    13    12    2
    88    11    12    1
    89    11    10    1
    90    81    82    2
    91    81    80    1
    92    12    17   am
    93    79    80    1
    94    83    80    1
    95    83    84    1
    96     5     2    1
    97    17    18    1
    98     2     1    1
    99     2     3    1
   100    18    21    1
   101    18    19    1
   102     4     3    2
   103    86    84   ar
   104    86    88   ar
   105    84    85   ar
   106    20    19    2
   107    21    22    1
   108    22    23    1
   109    88    89   ar
   110    85    87   ar
   111    23    24    1
   112    89    87   ar
   113    89    90    1
