@<TRIPOS>MOLECULE
tmp/6hs0B00.pdb
 127 118 0 0 0
SMALL
GASTEIGER

@<TRIPOS>ATOM
      1  N         26.2490  -25.0610  -42.1300 N.3    74  MET74      -0.1245
      2  CA        25.0010  -24.7360  -42.8640 C.3    74  MET74       0.1570
      3  C         25.0870  -25.3040  -44.2770 C.2    74  MET74       0.2261
      4  O         24.0400  -25.8100  -44.7680 O.2    74  MET74      -0.2867
      5  CB        24.7620  -23.2360  -42.8690 C.3    74  MET74       0.0387
      6  CG        24.6150  -22.6830  -41.4420 C.3    74  MET74       0.0595
      7  SD        23.4750  -23.5650  -40.3210 S.3    74  MET74      -0.1393
      8  CE        21.9610  -23.4370  -41.2560 C.3    74  MET74       0.0692
      9  N         24.3770  -29.0700  -43.8720 N.3    77  MET77      -0.1245
     10  CA        22.9310  -29.2830  -43.6190 C.3    77  MET77       0.1570
     11  C         22.1650  -29.1360  -44.9320 C.2    77  MET77       0.2261
     12  O         21.2910  -29.9680  -45.1840 O.2    77  MET77      -0.2867
     13  CB        22.4090  -28.3150  -42.5600 C.3    77  MET77       0.0387
     14  CG        22.8910  -28.7550  -41.1930 C.3    77  MET77       0.0595
     15  SD        22.1940  -27.7170  -39.8910 S.3    77  MET77      -0.1393
     16  CE        20.4560  -28.0510  -40.1860 C.3    77  MET77       0.0692
     17  N         11.6450  -30.2990  -43.5860 N.3    93  ILE93      -0.1245
     18  CA        11.8610  -29.9040  -42.1710 C.3    93  ILE93       0.1561
     19  C         12.3060  -31.1180  -41.3830 C.2    93  ILE93       0.2260
     20  O         13.2560  -30.9920  -40.5950 O.2    93  ILE93      -0.2867
     21  CB        10.5920  -29.2900  -41.5770 C.3    93  ILE93       0.0252
     22  CG1       10.3670  -27.8980  -42.1530 C.3    93  ILE93       0.0019
     23  CG2       10.6480  -29.2520  -40.0670 C.3    93  ILE93       0.0019
     24  CD1        8.9950  -27.3510  -41.9790 C.3    93  ILE93       0.0001
     25  N         15.8650  -31.7310  -42.1520 N.3    96  ALA96      -0.1231
     26  CA        16.7170  -30.6840  -41.5730 C.3    96  ALA96       0.1694
     27  C         16.9780  -31.0200  -40.1010 C.2    96  ALA96       0.2591
     28  O         18.0920  -30.8010  -39.6270 O.2    96  ALA96      -0.2718
     29  CB        16.0960  -29.3450  -41.7360 C.3    96  ALA96       0.0304
     30  N         15.9920  -31.5050  -39.3760 N.am   97  VAL97      -0.1980
     31  CA        16.1950  -31.9630  -37.9720 C.3    97  VAL97       0.1595
     32  C         17.2230  -33.0730  -37.9780 C.2    97  VAL97       0.2287
     33  O         18.1910  -33.0140  -37.1870 O.2    97  VAL97      -0.2864
     34  CB        14.9000  -32.3940  -37.3030 C.3    97  VAL97       0.0276
     35  CG1       15.2820  -32.9470  -35.9130 C.3    97  VAL97       0.0022
     36  CG2       13.9640  -31.2120  -37.2370 C.3    97  VAL97       0.0022
     37  N         20.6680  -31.6100  -38.6630 N.3   100  TRP100     -0.1241
     38  CA        21.2180  -30.8640  -37.5100 C.3   100  TRP100      0.1605
     39  C         21.8150  -31.8420  -36.4840 C.2   100  TRP100      0.2264
     40  O         22.9060  -31.5550  -35.9570 O.2   100  TRP100     -0.2867
     41  CB        20.1540  -29.9560  -36.9260 C.3   100  TRP100      0.0550
     42  CG        20.5440  -29.2740  -35.6500 C.ar  100  TRP100      0.0003
     43  CD1       19.8110  -29.2410  -34.5000 C.ar  100  TRP100      0.0946
     44  CD2       21.6770  -28.4260  -35.4250 C.ar  100  TRP100      0.0152
     45  NE1       20.4580  -28.4930  -33.5610 N.ar  100  TRP100     -0.2442
     46  CE2       21.5960  -27.9590  -34.0970 C.ar  100  TRP100      0.0810
     47  CE3       22.7680  -28.0610  -36.2080 C.ar  100  TRP100      0.0012
     48  CZ2       22.5400  -27.0970  -33.5640 C.ar  100  TRP100      0.0191
     49  CZ3       23.7160  -27.2470  -35.6380 C.ar  100  TRP100      0.0001
     50  CH2       23.6300  -26.8180  -34.3270 C.ar  100  TRP100      0.0015
     51  N         21.4420  -19.4810  -38.3130 N.3   134  SER134     -0.1217
     52  CA        20.2140  -20.3240  -38.2120 C.3   134  SER134      0.1889
     53  C         18.9930  -19.6710  -38.8440 C.2   134  SER134      0.2288
     54  O         18.1290  -20.3990  -39.3790 O.2   134  SER134     -0.2866
     55  CB        19.8440  -20.6150  -36.7820 C.3   134  SER134      0.2089
     56  OG        20.8320  -21.4120  -36.1490 O.3   134  SER134     -0.2183
     57  N         17.7370  -20.2260  -42.8630 N.3   137  MET137     -0.1230
     58  CA        17.3730  -21.6010  -43.2310 C.3   137  MET137      0.1702
     59  C         16.0420  -21.9400  -42.5360 C.2   137  MET137      0.2593
     60  O         15.1250  -22.4590  -43.1840 O.2   137  MET137     -0.2718
     61  CB        18.4280  -22.6310  -42.8210 C.3   137  MET137      0.0401
     62  CG        17.9530  -24.0300  -43.0840 C.3   137  MET137      0.0596
     63  SD        19.2530  -25.2620  -42.7340 S.3   137  MET137     -0.1393
     64  CE        20.3750  -24.9890  -44.0970 C.3   137  MET137      0.0692
     65  N         15.9040  -21.5890  -41.2790 N.am  138  THR138     -0.1953
     66  CA        14.6800  -21.9000  -40.5090 C.3   138  THR138      0.1897
     67  C         13.4990  -21.1530  -41.0980 C.2   138  THR138      0.2313
     68  O         12.4300  -21.7650  -41.3430 O.2   138  THR138     -0.2863
     69  CB        14.8770  -21.5390  -39.0330 C.3   138  THR138      0.1794
     70  OG1       16.0810  -22.1470  -38.5760 O.3   138  THR138     -0.2208
     71  CG2       13.7150  -21.9970  -38.2040 C.3   138  THR138      0.0378
     72  N         12.4060  -22.7480  -44.4680 N.3   141  LEU141     -0.1231
     73  CA        11.7300  -24.0470  -44.3110 C.3   141  LEU141      0.1693
     74  C         10.2960  -23.7940  -43.8570 C.2   141  LEU141      0.2591
     75  O          9.3670  -24.4680  -44.3470 O.2   141  LEU141     -0.2718
     76  CB        12.4680  -24.8870  -43.2780 C.3   141  LEU141      0.0284
     77  CG        13.7570  -25.5240  -43.7480 C.3   141  LEU141      0.0019
     78  CD1       14.5370  -26.0140  -42.5750 C.3   141  LEU141      0.0001
     79  CD2       13.5350  -26.6350  -44.7630 C.3   141  LEU141      0.0001
     80  N         10.0740  -22.8590  -42.9600 N.am  142  ILE142     -0.1980
     81  CA         8.7200  -22.5190  -42.4600 C.3   142  ILE142      0.1595
     82  C          7.9000  -21.9170  -43.5970 C.2   142  ILE142      0.2287
     83  O          6.7460  -22.3320  -43.7870 O.2   142  ILE142     -0.2864
     84  CB         8.8030  -21.5720  -41.2540 C.3   142  ILE142      0.0276
     85  CG1        9.3530  -22.3140  -40.0410 C.3   142  ILE142      0.0022
     86  CG2        7.4520  -20.9460  -40.9950 C.3   142  ILE142      0.0022
     87  CD1        9.8430  -21.4130  -38.9440 C.3   142  ILE142      0.0001
     88  N         11.6160  -22.3690  -32.4560 N.3   163  LEU163     -0.1231
     89  CA        12.1710  -23.6430  -32.9540 C.3   163  LEU163      0.1693
     90  C         13.6860  -23.5790  -32.8410 C.2   163  LEU163      0.2591
     91  O         14.2860  -24.5870  -32.4610 O.2   163  LEU163     -0.2718
     92  CB        11.7590  -23.9220  -34.4020 C.3   163  LEU163      0.0284
     93  CG        10.2970  -24.2750  -34.6190 C.3   163  LEU163      0.0019
     94  CD1       10.0880  -24.4850  -36.1090 C.3   163  LEU163      0.0001
     95  CD2        9.8740  -25.5210  -33.8730 C.3   163  LEU163      0.0001
     96  N         14.3430  -22.4790  -33.1700 N.am  164  ILE164     -0.1980
     97  CA        15.8150  -22.3940  -33.0590 C.3   164  ILE164      0.1595
     98  C         16.1690  -22.6350  -31.5780 C.2   164  ILE164      0.2287
     99  O         17.1340  -23.3660  -31.3320 O.2   164  ILE164     -0.2864
    100  CB        16.2860  -21.0420  -33.5980 C.3   164  ILE164      0.0276
    101  CG1       16.2100  -21.0490  -35.1180 C.3   164  ILE164      0.0022
    102  CG2       17.6700  -20.7510  -33.0900 C.3   164  ILE164      0.0022
    103  CD1       16.3050  -19.6560  -35.7640 C.3   164  ILE164      0.0001
    104  N         15.8300  -26.3990  -30.9230 N.3   167  LEU167     -0.1231
    105  CA        16.8300  -27.1930  -31.6590 C.3   167  LEU167      0.1693
    106  C         18.2230  -26.9590  -31.1040 C.2   167  LEU167      0.2592
    107  O         19.0470  -27.9310  -31.0460 O.2   167  LEU167     -0.2718
    108  CB        16.7580  -26.8560  -33.1420 C.3   167  LEU167      0.0284
    109  CG        15.4910  -27.3470  -33.8190 C.3   167  LEU167      0.0019
    110  CD1       15.2230  -26.5530  -35.0900 C.3   167  LEU167      0.0001
    111  CD2       15.6640  -28.8120  -34.1270 C.3   167  LEU167      0.0001
    112  N         18.5670  -25.7340  -30.7300 N.am  168  ASP168     -0.1974
    113  CA        19.9190  -25.4920  -30.2020 C.3   168  ASP168      0.1709
    114  C         20.0060  -26.1470  -28.8330 C.2   168  ASP168      0.2293
    115  O         21.1100  -26.7190  -28.5350 O.2   168  ASP168     -0.2864
    116  CB        20.1750  -23.9880  -30.1930 C.3   168  ASP168      0.1436
    117  CG        20.5350  -23.4350  -31.5590 C.2   168  ASP168      0.3671
    118  OD1       20.8970  -24.2280  -32.4630 O.co2 168  ASP168     -0.2456
    119  OD2       20.5400  -22.1700  -31.6490 O.co2 168  ASP168     -0.2456
    120  N          7.9030  -31.7690  -33.7280 N.3   195  ILE195     -0.1245
    121  CA         7.7410  -31.3870  -35.1630 C.3   195  ILE195      0.1561
    122  C          6.4850  -32.0460  -35.7150 C.2   195  ILE195      0.2260
    123  O          5.6920  -31.3490  -36.3800 O.2   195  ILE195     -0.2867
    124  CB         8.9810  -31.8080  -35.9750 C.3   195  ILE195      0.0252
    125  CG1       10.1880  -30.9840  -35.5220 C.3   195  ILE195      0.0019
    126  CG2        8.7520  -31.7460  -37.4730 C.3   195  ILE195      0.0019
    127  CD1       10.0850  -29.5220  -35.8470 C.3   195  ILE195      0.0001
@<TRIPOS>BOND
     1    12    11    2
     2    11    10    1
     3     4     3    2
     4    79    77    1
     5    72    73    1
     6    75    74    2
     7    73    74    1
     8    73    76    1
     9     3     2    1
    10    64    63    1
    11     9    10    1
    12    74    80   am
    13    83    82    2
    14    77    76    1
    15    77    78    1
    16    10    13    1
    17    82    81    1
    18    17    18    1
    19    58    57    1
    20    58    61    1
    21    58    59    1
    22    60    59    2
    23    62    61    1
    24    62    63    1
    25    80    81    1
    26     5     2    1
    27     5     6    1
    28     2     1    1
    29    13    14    1
    30    59    65   am
    31    81    84    1
    32    18    21    1
    33    18    19    1
    34    22    24    1
    35    22    21    1
    36    25    26    1
    37    29    26    1
    38    21    23    1
    39    26    27    1
    40     6     7    1
    41    19    20    2
    42    68    67    2
    43    65    66    1
    44     8     7    1
    45    84    86    1
    46    84    85    1
    47    14    15    1
    48    67    66    1
    49    66    69    1
    50    16    15    1
    51    27    28    2
    52    27    30   am
    53    85    87    1
    54    54    53    2
    55    30    31    1
    56    69    70    1
    57    69    71    1
    58    53    52    1
    59    37    38    1
    60    51    52    1
    61    52    55    1
    62    32    31    1
    63    32    33    2
    64    31    34    1
    65    38    41    1
    66    38    39    1
    67   126   124    1
    68    34    36    1
    69    34    35    1
    70    41    42    1
    71    55    56    1
    72    39    40    2
    73   123   122    2
    74    47    49   ar
    75    47    44   ar
    76    94    93    1
    77   124   125    1
    78   124   121    1
    79   127   125    1
    80   103   101    1
    81   122   121    1
    82    42    44   ar
    83    42    43   ar
    84    49    50   ar
    85    44    46   ar
    86   121   120    1
    87   101   100    1
    88   110   109    1
    89    93    92    1
    90    93    95    1
    91    43    45   ar
    92    92    89    1
    93    50    48   ar
    94   111   109    1
    95    46    48   ar
    96    46    45   ar
    97   109   108    1
    98   100   102    1
    99   100    97    1
   100    96    97    1
   101    96    90   am
   102   108   105    1
   103    97    98    1
   104    89    90    1
   105    89    88    1
   106    90    91    2
   107   118   117   ar
   108   105   106    1
   109   105   104    1
   110   119   117   ar
   111    98    99    2
   112   117   116    1
   113   106   107    2
   114   106   112   am
   115   112   113    1
   116   113   116    1
   117   113   114    1
   118   114   115    2
