@<TRIPOS>MOLECULE
tmp/6hs1B00.pdb
 171 161 0 0 0
SMALL
GASTEIGER

@<TRIPOS>ATOM
      1  N        -17.4090   22.6790  -15.8440 N.3    60  GLU60      -0.1245
      2  CA       -18.3620   22.0390  -14.8990 C.3    60  GLU60       0.1567
      3  C        -19.4290   23.0590  -14.4680 C.2    60  GLU60       0.2260
      4  O        -20.6200   22.6760  -14.3890 O.2    60  GLU60      -0.2867
      5  CB       -17.5930   21.3610  -13.7570 C.3    60  GLU60       0.0388
      6  CG       -16.8510   20.1320  -14.2580 C.3    60  GLU60       0.1160
      7  CD       -16.6730   18.9180  -13.3500 C.2    60  GLU60       0.3649
      8  OE1      -17.3720   18.8230  -12.3340 O.co2  60  GLU60      -0.2457
      9  OE2      -15.7570   18.1040  -13.6340 O.co2  60  GLU60      -0.2457
     10  N        -21.8160   23.0130  -17.3820 N.3    63  VAL63      -0.1231
     11  CA       -22.5670   21.7320  -17.3860 C.3    63  VAL63       0.1692
     12  C        -23.7280   21.8220  -16.3920 C.2    63  VAL63       0.2591
     13  O        -24.8670   21.4930  -16.7520 O.2    63  VAL63      -0.2718
     14  CB       -21.6390   20.5350  -17.1180 C.3    63  VAL63       0.0266
     15  CG1      -22.4570   19.3050  -16.7960 C.3    63  VAL63       0.0020
     16  CG2      -20.7630   20.2570  -18.3200 C.3    63  VAL63       0.0020
     17  N        -23.4800   22.2860  -15.1800 N.am   64  MET64      -0.1979
     18  CA       -24.5140   22.3250  -14.1110 C.3    64  MET64       0.1605
     19  C        -25.5940   23.3630  -14.4680 C.2    64  MET64       0.2287
     20  O        -26.7840   23.0730  -14.2400 O.2    64  MET64      -0.2864
     21  CB       -23.8920   22.6410  -12.7540 C.3    64  MET64       0.0413
     22  CG       -22.8610   21.5860  -12.3530 C.3    64  MET64       0.0598
     23  SD       -23.5760   19.9360  -12.1320 S.3    64  MET64      -0.1393
     24  CE       -23.4240   19.1440  -13.7160 C.3    64  MET64       0.0692
     25  N        -27.7250   21.7520  -17.2610 N.3    67  MET67      -0.1245
     26  CA       -28.6330   20.7440  -16.6790 C.3    67  MET67       0.1570
     27  C        -29.8030   21.4120  -15.9600 C.2    67  MET67       0.2261
     28  O        -30.9370   20.9540  -16.1800 O.2    67  MET67      -0.2867
     29  CB       -27.8560   19.8340  -15.7400 C.3    67  MET67       0.0387
     30  CG       -27.0740   18.8580  -16.5790 C.3    67  MET67       0.0595
     31  SD       -26.2810   17.6230  -15.5820 S.3    67  MET67      -0.1393
     32  CE       -27.6590   17.1990  -14.5150 C.3    67  MET67       0.0692
     33  N        -36.0740   14.2650  -10.7860 N.3    83  ILE83      -0.1245
     34  CA       -34.8850   13.3650  -10.7490 C.3    83  ILE83       0.1561
     35  C        -34.7230   12.6710  -12.1070 C.2    83  ILE83       0.2260
     36  O        -33.5870   12.6140  -12.6410 O.2    83  ILE83      -0.2867
     37  CB       -35.0180   12.3660   -9.5780 C.3    83  ILE83       0.0252
     38  CG1      -34.7690   13.0800   -8.2590 C.3    83  ILE83       0.0019
     39  CG2      -34.0880   11.1720   -9.7720 C.3    83  ILE83       0.0019
     40  CD1      -35.1940   12.2550   -7.0560 C.3    83  ILE83       0.0001
     41  N        -33.4300   15.1220  -14.5860 N.3    86  ALA86      -0.1231
     42  CA       -32.0050   15.4460  -14.2930 C.3    86  ALA86       0.1694
     43  C        -31.0780   14.3600  -14.8620 C.2    86  ALA86       0.2591
     44  O        -30.0070   14.6790  -15.3920 O.2    86  ALA86      -0.2718
     45  CB       -31.7980   15.6090  -12.8110 C.3    86  ALA86       0.0304
     46  N        -31.4690   13.0940  -14.7440 N.am   87  VAL87      -0.1980
     47  CA       -30.6800   11.9750  -15.3130 C.3    87  VAL87       0.1595
     48  C        -30.6360   12.1100  -16.8440 C.2    87  VAL87       0.2287
     49  O        -29.5580   12.0520  -17.4100 O.2    87  VAL87      -0.2864
     50  CB       -31.2710   10.6210  -14.8640 C.3    87  VAL87       0.0276
     51  CG1      -30.6510    9.4710  -15.6380 C.3    87  VAL87       0.0022
     52  CG2      -31.1040   10.4260  -13.3680 C.3    87  VAL87       0.0022
     53  N        -28.3660   14.9800  -17.8090 N.3    90  TRP90      -0.1241
     54  CA       -26.9330   14.5980  -17.7630 C.3    90  TRP90       0.1605
     55  C        -26.5380   13.7610  -18.9900 C.2    90  TRP90       0.2264
     56  O        -25.4950   14.0260  -19.5660 O.2    90  TRP90      -0.2867
     57  CB       -26.6120   13.9010  -16.4460 C.3    90  TRP90       0.0550
     58  CG       -25.2410   13.3080  -16.4150 C.ar   90  TRP90       0.0003
     59  CD1      -24.9450   12.0250  -16.0720 C.ar   90  TRP90       0.0946
     60  CD2      -23.9870   13.9400  -16.7460 C.ar   90  TRP90       0.0152
     61  NE1      -23.5980   11.8180  -16.1330 N.ar   90  TRP90      -0.2442
     62  CE2      -22.9860   12.9630  -16.5760 C.ar   90  TRP90       0.0810
     63  CE3      -23.6110   15.2160  -17.2000 C.ar   90  TRP90       0.0012
     64  CZ2      -21.6460   13.2230  -16.8420 C.ar   90  TRP90       0.0191
     65  CZ3      -22.2870   15.4660  -17.4800 C.ar   90  TRP90       0.0001
     66  CH2      -21.3190   14.4720  -17.3130 C.ar   90  TRP90       0.0015
     67  N        -14.2370   16.4620  -19.7570 N.3   103  ILE103     -0.1231
     68  CA       -14.7250   16.0280  -18.4190 C.3   103  ILE103      0.1692
     69  C        -14.6360   14.5040  -18.3650 C.2   103  ILE103      0.2591
     70  O        -14.2040   13.9750  -17.3560 O.2   103  ILE103     -0.2718
     71  CB       -16.1170   16.5940  -18.0960 C.3   103  ILE103      0.0266
     72  CG1      -16.1260   18.1330  -18.1080 C.3   103  ILE103      0.0019
     73  CG2      -16.6370   16.0350  -16.7730 C.3   103  ILE103      0.0020
     74  CD1      -15.0040   18.7790  -17.3730 C.3   103  ILE103      0.0001
     75  N        -15.0640   13.7960  -19.3990 N.am  104  LEU104     -0.1980
     76  CA       -15.1890   12.3270  -19.2740 C.3   104  LEU104      0.1596
     77  C        -13.8520   11.6600  -19.6180 C.2   104  LEU104      0.2287
     78  O        -13.5740   10.5980  -19.0020 O.2   104  LEU104     -0.2864
     79  CB       -16.3550   11.8540  -20.1440 C.3   104  LEU104      0.0297
     80  CG       -17.6940   12.4720  -19.7570 C.3   104  LEU104      0.0022
     81  CD1      -18.7690   11.9420  -20.6860 C.3   104  LEU104      0.0001
     82  CD2      -18.0500   12.1780  -18.2950 C.3   104  LEU104      0.0001
     83  N        -10.7390   14.3640   -9.6270 N.3   116  PHE116     -0.1241
     84  CA       -11.9980   14.3260  -10.3980 C.3   116  PHE116      0.1605
     85  C        -13.1920   14.3200   -9.4480 C.2   116  PHE116      0.2264
     86  O        -14.1720   15.0550   -9.6490 O.2   116  PHE116     -0.2867
     87  CB       -12.0190   13.1210  -11.3530 C.3   116  PHE116      0.0534
     88  CG       -13.2970   12.9990  -12.1290 C.ar  116  PHE116     -0.0203
     89  CD1      -14.4040   12.3440  -11.6080 C.ar  116  PHE116     -0.0042
     90  CD2      -13.4040   13.5700  -13.3850 C.ar  116  PHE116     -0.0042
     91  CE1      -15.6000   12.2980  -12.3070 C.ar  116  PHE116     -0.0003
     92  CE2      -14.5800   13.4770  -14.1010 C.ar  116  PHE116     -0.0003
     93  CZ       -15.6740   12.8350  -13.5680 C.ar  116  PHE116     -0.0000
     94  N        -16.2610   16.9880   -9.1560 N.3   120  ALA120     -0.1245
     95  CA       -17.6130   16.4360   -9.3690 C.3   120  ALA120      0.1562
     96  C        -18.5200   16.7920   -8.1980 C.2   120  ALA120      0.2260
     97  O        -19.6410   17.2750   -8.4030 O.2   120  ALA120     -0.2867
     98  CB       -17.5500   14.9350   -9.5760 C.3   120  ALA120      0.0290
     99  N        -19.3870   20.5880   -7.7140 N.3   123  TYR123     -0.1227
    100  CA       -20.3390   21.1270   -8.7050 C.3   123  TYR123      0.1736
    101  C        -21.7000   20.4480   -8.6270 C.2   123  TYR123      0.2596
    102  O        -22.6590   21.1460   -8.9610 O.2   123  TYR123     -0.2718
    103  CB       -19.7470   21.0970  -10.1130 C.3   123  TYR123      0.0548
    104  CG       -18.8080   22.2660  -10.2910 C.ar  123  TYR123     -0.0200
    105  CD1      -19.2990   23.5530  -10.4110 C.ar  123  TYR123     -0.0009
    106  CD2      -17.4440   22.0920  -10.1540 C.ar  123  TYR123     -0.0009
    107  CE1      -18.4420   24.6380  -10.4760 C.ar  123  TYR123      0.0417
    108  CE2      -16.5750   23.1610  -10.1750 C.ar  123  TYR123      0.0417
    109  CZ       -17.0840   24.4410  -10.3830 C.ar  123  TYR123      0.1957
    110  OH       -16.2040   25.4820  -10.4580 O.3   123  TYR123     -0.2866
    111  N        -21.8090   19.1860   -8.2250 N.am  124  SER124     -0.1952
    112  CA       -23.0940   18.4470   -8.3820 C.3   124  SER124      0.1924
    113  C        -23.7290   18.0570   -7.0410 C.2   124  SER124      0.2314
    114  O        -24.9240   17.6890   -7.0540 O.2   124  SER124     -0.2863
    115  CB       -22.8810   17.2260   -9.2610 C.3   124  SER124      0.2116
    116  OG       -22.0900   16.2630   -8.5980 O.3   124  SER124     -0.2180
    117  N        -27.0360   20.2540   -6.0490 N.3   127  MET127     -0.1230
    118  CA       -28.2390   20.0140   -6.8820 C.3   127  MET127      0.1702
    119  C        -28.7730   18.6060   -6.5440 C.2   127  MET127      0.2593
    120  O        -29.9940   18.4340   -6.3900 O.2   127  MET127     -0.2718
    121  CB       -27.9540   20.1230   -8.3860 C.3   127  MET127      0.0401
    122  CG       -28.9490   19.3580   -9.3070 C.3   127  MET127      0.0596
    123  SD       -28.7500   19.8770  -11.0620 S.3   127  MET127     -0.1393
    124  CE       -30.3650   19.6220  -11.7960 C.3   127  MET127      0.0692
    125  N        -27.8840   17.6290   -6.4290 N.am  128  THR128     -0.1953
    126  CA       -28.2710   16.2130   -6.1680 C.3   128  THR128      0.1897
    127  C        -28.9500   16.1190   -4.8020 C.2   128  THR128      0.2313
    128  O        -30.0070   15.4540   -4.7130 O.2   128  THR128     -0.2863
    129  CB       -27.0730   15.2690   -6.2720 C.3   128  THR128      0.1794
    130  OG1      -26.5060   15.4720   -7.5610 O.3   128  THR128     -0.2208
    131  CG2      -27.4530   13.8160   -6.1680 C.3   128  THR128      0.0378
    132  N        -32.5120   17.5920   -5.0210 N.3   131  LEU131     -0.1245
    133  CA       -33.4530   16.6750   -5.7220 C.3   131  LEU131      0.1561
    134  C        -33.9130   15.5780   -4.7570 C.2   131  LEU131      0.2260
    135  O        -35.1290   15.2450   -4.7460 O.2   131  LEU131     -0.2867
    136  CB       -32.7890   16.0490   -6.9510 C.3   131  LEU131      0.0270
    137  CG       -32.5920   16.9620   -8.1570 C.3   131  LEU131      0.0019
    138  CD1      -31.7390   16.2570   -9.1970 C.3   131  LEU131      0.0001
    139  CD2      -33.9010   17.3840   -8.7780 C.3   131  LEU131      0.0001
    140  N        -25.1960    8.0590   -6.1290 N.3   153  LEU153     -0.1231
    141  CA       -25.8570    8.3980   -7.4150 C.3   153  LEU153      0.1693
    142  C        -24.8840    9.1780   -8.2990 C.2   153  LEU153      0.2591
    143  O        -24.8460    8.9230   -9.5240 O.2   153  LEU153     -0.2718
    144  CB       -27.1290    9.1860   -7.1710 C.3   153  LEU153      0.0284
    145  CG       -28.2930    8.4020   -6.5800 C.3   153  LEU153      0.0019
    146  CD1      -29.4930    9.3260   -6.3550 C.3   153  LEU153      0.0001
    147  CD2      -28.6780    7.2090   -7.4420 C.3   153  LEU153      0.0001
    148  N        -24.1510   10.1390   -7.7340 N.am  154  ILE154     -0.1980
    149  CA       -23.1630   10.8970   -8.5420 C.3   154  ILE154      0.1595
    150  C        -22.1420    9.9060   -9.1400 C.2   154  ILE154      0.2287
    151  O        -21.7880   10.0230  -10.3310 O.2   154  ILE154     -0.2864
    152  CB       -22.5190   12.0160   -7.7130 C.3   154  ILE154      0.0276
    153  CG1      -23.5290   13.1420   -7.5340 C.3   154  ILE154      0.0022
    154  CG2      -21.2230   12.4980   -8.3510 C.3   154  ILE154      0.0022
    155  CD1      -23.2290   14.0700   -6.3600 C.3   154  ILE154      0.0001
    156  N        -23.7980    7.9570  -11.9770 N.3   157  LEU157     -0.1231
    157  CA       -24.0700    8.7690  -13.2010 C.3   157  LEU157      0.1693
    158  C        -22.7710    9.1630  -13.9260 C.2   157  LEU157      0.2592
    159  O        -22.7380    9.1730  -15.1960 O.2   157  LEU157     -0.2718
    160  CB       -24.8700    9.9950  -12.7970 C.3   157  LEU157      0.0284
    161  CG       -26.2800    9.7270  -12.3100 C.3   157  LEU157      0.0019
    162  CD1      -26.7970   10.9280  -11.5390 C.3   157  LEU157      0.0001
    163  CD2      -27.1750    9.3860  -13.4910 C.3   157  LEU157      0.0001
    164  N        -21.7090    9.4830  -13.1780 N.am  158  ASP158     -0.1974
    165  CA       -20.3850    9.7760  -13.7860 C.3   158  ASP158      0.1709
    166  C        -19.8590    8.5190  -14.4970 C.2   158  ASP158      0.2293
    167  O        -19.3810    8.6270  -15.6440 O.2   158  ASP158     -0.2864
    168  CB       -19.3940   10.3410  -12.7750 C.3   158  ASP158      0.1436
    169  CG       -19.7180   11.7790  -12.3440 C.2   158  ASP158      0.3671
    170  OD1      -20.5370   12.4490  -13.0430 O.co2 158  ASP158     -0.2456
    171  OD2      -19.1610   12.2370  -11.3030 O.co2 158  ASP158     -0.2456
@<TRIPOS>BOND
     1    81    80    1
     2    79    80    1
     3    79    76    1
     4    80    82    1
     5    67    68    1
     6    77    76    1
     7    77    78    2
     8    56    55    2
     9    75    76    1
    10    75    69   am
    11    55    54    1
    12    68    69    1
    13    68    71    1
    14    69    70    2
    15    16    14    1
    16    72    71    1
    17    72    74    1
    18    71    73    1
    19    53    54    1
    20    54    57    1
    21    65    66   ar
    22    65    63   ar
    23    49    48    2
    24    11    10    1
    25    11    14    1
    26    11    12    1
    27    66    64   ar
    28    25    26    1
    29    63    60   ar
    30    14    15    1
    31    48    47    1
    32    64    62   ar
    33    13    12    2
    34    60    62   ar
    35    60    58   ar
    36    26    27    1
    37    26    29    1
    38    30    29    1
    39    30    31    1
    40    62    61   ar
    41    57    58    1
    42    58    59   ar
    43    12    17   am
    44    28    27    2
    45    61    59   ar
    46     1     2    1
    47   167   166    2
    48    51    50    1
    49    31    32    1
    50    44    43    2
    51    47    50    1
    52    47    46    1
    53   159   158    2
    54    17    18    1
    55     2     3    1
    56     2     5    1
    57    50    52    1
    58    43    46   am
    59    43    42    1
    60    41    42    1
    61   166   165    1
    62    19    20    2
    63    19    18    1
    64     3     4    2
    65    42    45    1
    66     6     5    1
    67     6     7    1
    68    18    21    1
    69    92    93   ar
    70    92    90   ar
    71   158   157    1
    72   158   164   am
    73   165   164    1
    74   165   168    1
    75    24    23    1
    76     9     7   ar
    77    93    91   ar
    78   163   161    1
    79    90    88   ar
    80     7     8   ar
    81   157   160    1
    82   157   156    1
    83   170   169   ar
    84   160   161    1
    85   168   169    1
    86    21    22    1
    87    36    35    2
    88    22    23    1
    89   169   171   ar
    90   161   162    1
    91    91    89   ar
    92    88    89   ar
    93    88    87    1
    94    35    34    1
    95   124   123    1
    96    87    84    1
    97   123   122    1
    98    33    34    1
    99    34    37    1
   100   107   105   ar
   101   107   109   ar
   102   110   109    1
   103   105   104   ar
   104    84    83    1
   105    84    85    1
   106   109   108   ar
   107   151   150    2
   108   104   106   ar
   109   104   103    1
   110   108   106   ar
   111   103   100    1
   112    39    37    1
   113    86    85    2
   114    37    38    1
   115    98    95    1
   116   143   142    2
   117    95    94    1
   118    95    96    1
   119   122   121    1
   120   115   116    1
   121   115   112    1
   122   138   137    1
   123   150   149    1
   124   102   101    2
   125   139   137    1
   126   100   101    1
   127   100    99    1
   128   101   111   am
   129   149   148    1
   130   149   152    1
   131    97    96    2
   132   121   118    1
   133   112   111    1
   134   112   113    1
   135   154   152    1
   136   142   148   am
   137   142   141    1
   138    38    40    1
   139   137   136    1
   140   152   153    1
   141   130   129    1
   142   153   155    1
   143   147   145    1
   144   141   144    1
   145   141   140    1
   146   144   145    1
   147   114   113    2
   148   136   133    1
   149   118   119    1
   150   118   117    1
   151   145   146    1
   152   119   125   am
   153   119   120    2
   154   125   126    1
   155   129   131    1
   156   129   126    1
   157   126   127    1
   158   133   132    1
   159   133   134    1
   160   127   128    2
   161   134   135    2
