@<TRIPOS>MOLECULE
tmp/6hs2B00.pdb
 171 161 0 0 0
SMALL
GASTEIGER

@<TRIPOS>ATOM
      1  N         17.4200   22.6630   15.9160 N.3    60  GLU60      -0.1245
      2  CA        18.3660   21.9740   14.9950 C.3    60  GLU60       0.1567
      3  C         19.4490   22.9530   14.5570 C.2    60  GLU60       0.2260
      4  O         20.6170   22.5460   14.4580 O.2    60  GLU60      -0.2867
      5  CB        17.6130   21.3490   13.8230 C.3    60  GLU60       0.0388
      6  CG        16.8270   20.1390   14.2940 C.3    60  GLU60       0.1160
      7  CD        16.6080   18.9740   13.3520 C.2    60  GLU60       0.3649
      8  OE1       17.2320   18.9690   12.2800 O.co2  60  GLU60      -0.2457
      9  OE2       15.7470   18.0920   13.6990 O.co2  60  GLU60      -0.2457
     10  N         21.7480   22.9880   17.5030 N.3    63  VAL63      -0.1231
     11  CA        22.4790   21.6970   17.5550 C.3    63  VAL63       0.1692
     12  C         23.6650   21.7550   16.6040 C.2    63  VAL63       0.2591
     13  O         24.7730   21.3800   17.0070 O.2    63  VAL63      -0.2718
     14  CB        21.5470   20.5110   17.2430 C.3    63  VAL63       0.0266
     15  CG1       22.3370   19.2650   16.9140 C.3    63  VAL63       0.0020
     16  CG2       20.6180   20.2380   18.4150 C.3    63  VAL63       0.0020
     17  N         23.4450   22.1700   15.3690 N.am   64  MET64      -0.1979
     18  CA        24.5100   22.1770   14.3430 C.3    64  MET64       0.1605
     19  C         25.5820   23.2130   14.7330 C.2    64  MET64       0.2287
     20  O         26.7630   22.9240   14.5220 O.2    64  MET64      -0.2864
     21  CB        23.9270   22.4850   12.9580 C.3    64  MET64       0.0413
     22  CG        22.8850   21.4570   12.4990 C.3    64  MET64       0.0598
     23  SD        23.5630   19.7870   12.3930 S.3    64  MET64      -0.1393
     24  CE        23.3530   19.2040   14.0610 C.3    64  MET64       0.0692
     25  N         27.6510   21.6600   17.4750 N.3    67  MET67      -0.1245
     26  CA        28.5480   20.6260   16.9030 C.3    67  MET67       0.1570
     27  C         29.7570   21.2850   16.2350 C.2    67  MET67       0.2261
     28  O         30.8500   20.8050   16.4800 O.2    67  MET67      -0.2867
     29  CB        27.8000   19.7390   15.9130 C.3    67  MET67       0.0387
     30  CG        26.8860   18.7870   16.6660 C.3    67  MET67       0.0595
     31  SD        26.0220   17.6730   15.5680 S.3    67  MET67      -0.1393
     32  CE        27.4370   17.0740   14.6420 C.3    67  MET67       0.0692
     33  N         35.8220   14.2150   11.0640 N.3    83  ILE83      -0.1245
     34  CA        34.6120   13.3450   10.9610 C.3    83  ILE83       0.1561
     35  C         34.4250   12.6490   12.3090 C.2    83  ILE83       0.2260
     36  O         33.2980   12.6380   12.8330 O.2    83  ILE83      -0.2867
     37  CB        34.7100   12.3520    9.7790 C.3    83  ILE83       0.0252
     38  CG1       34.5750   13.0740    8.4430 C.3    83  ILE83       0.0019
     39  CG2       33.6600   11.2570    9.9250 C.3    83  ILE83       0.0019
     40  CD1       34.9040   12.2500    7.2220 C.3    83  ILE83       0.0001
     41  N         33.1160   15.1460   14.7880 N.3    86  ALA86      -0.1231
     42  CA        31.7020   15.5210   14.5150 C.3    86  ALA86       0.1694
     43  C         30.7650   14.4310   15.0470 C.2    86  ALA86       0.2591
     44  O         29.6950   14.7380   15.6080 O.2    86  ALA86      -0.2718
     45  CB        31.4920   15.7430   13.0410 C.3    86  ALA86       0.0304
     46  N         31.1660   13.1730   14.8830 N.am   87  VAL87      -0.1980
     47  CA        30.3800   12.0350   15.4160 C.3    87  VAL87       0.1595
     48  C         30.3340   12.1470   16.9450 C.2    87  VAL87       0.2287
     49  O         29.2380   12.0960   17.4960 O.2    87  VAL87      -0.2864
     50  CB        30.9580   10.6930   14.9240 C.3    87  VAL87       0.0276
     51  CG1       30.3150    9.5050   15.6320 C.3    87  VAL87       0.0022
     52  CG2       30.8160   10.5680   13.4170 C.3    87  VAL87       0.0022
     53  N         28.0390   15.0760   17.9770 N.3    90  TRP90      -0.1241
     54  CA        26.6160   14.6520   17.9120 C.3    90  TRP90       0.1605
     55  C         26.2580   13.7760   19.1170 C.2    90  TRP90       0.2264
     56  O         25.2030   14.0070   19.7010 O.2    90  TRP90      -0.2867
     57  CB        26.2950   13.9430   16.6040 C.3    90  TRP90       0.0550
     58  CG        24.9170   13.3630   16.5480 C.ar   90  TRP90       0.0003
     59  CD1       24.6170   12.0840   16.1960 C.ar   90  TRP90       0.0946
     60  CD2       23.6620   13.9960   16.8500 C.ar   90  TRP90       0.0152
     61  NE1       23.2670   11.8750   16.2410 N.ar   90  TRP90      -0.2442
     62  CE2       22.6530   13.0270   16.6350 C.ar   90  TRP90       0.0810
     63  CE3       23.2740   15.2800   17.2650 C.ar   90  TRP90       0.0012
     64  CZ2       21.3040   13.2820   16.8670 C.ar   90  TRP90       0.0191
     65  CZ3       21.9370   15.5280   17.4990 C.ar   90  TRP90       0.0001
     66  CH2       20.9670   14.5350   17.3160 C.ar   90  TRP90       0.0015
     67  N         14.0580   16.5250   19.7750 N.3   103  ILE103     -0.1231
     68  CA        14.5490   16.0210   18.4630 C.3   103  ILE103      0.1692
     69  C         14.4320   14.4940   18.4020 C.2   103  ILE103      0.2591
     70  O         14.0550   13.9740   17.3440 O.2   103  ILE103     -0.2718
     71  CB        15.9770   16.5120   18.1940 C.3   103  ILE103      0.0266
     72  CG1       16.0220   18.0440   18.2220 C.3   103  ILE103      0.0019
     73  CG2       16.4850   15.9510   16.8770 C.3   103  ILE103      0.0020
     74  CD1       14.9170   18.6970   17.4580 C.3   103  ILE103      0.0001
     75  N         14.8070   13.7820   19.4540 N.am  104  LEU104     -0.1980
     76  CA        14.9390   12.3080   19.3390 C.3   104  LEU104      0.1596
     77  C         13.6020   11.6420   19.6730 C.2   104  LEU104      0.2287
     78  O         13.2860   10.6050   19.0520 O.2   104  LEU104     -0.2864
     79  CB        16.0880   11.8020   20.2150 C.3   104  LEU104      0.0297
     80  CG        17.4520   12.4310   19.9250 C.3   104  LEU104      0.0022
     81  CD1       18.5110   11.8010   20.7950 C.3   104  LEU104      0.0001
     82  CD2       17.8670   12.3260   18.4640 C.3   104  LEU104      0.0001
     83  N         10.7460   14.4110    9.5470 N.3   116  PHE116     -0.1241
     84  CA        11.9770   14.3520   10.3710 C.3   116  PHE116      0.1605
     85  C         13.2000   14.3300    9.4430 C.2   116  PHE116      0.2264
     86  O         14.1340   15.1110    9.6400 O.2   116  PHE116     -0.2867
     87  CB        11.9240   13.1690   11.3500 C.3   116  PHE116      0.0534
     88  CG        13.1940   13.0300   12.1410 C.ar  116  PHE116     -0.0203
     89  CD1       14.3220   12.4510   11.5690 C.ar  116  PHE116     -0.0042
     90  CD2       13.2930   13.5580   13.4160 C.ar  116  PHE116     -0.0042
     91  CE1       15.5210   12.3950   12.2640 C.ar  116  PHE116     -0.0003
     92  CE2       14.4900   13.4990   14.1160 C.ar  116  PHE116     -0.0003
     93  CZ        15.5940   12.9020   13.5480 C.ar  116  PHE116     -0.0000
     94  N         16.2390   17.0200    9.2260 N.3   120  ALA120     -0.1245
     95  CA        17.5940   16.4510    9.4230 C.3   120  ALA120      0.1562
     96  C         18.5240   16.8070    8.2470 C.2   120  ALA120      0.2260
     97  O         19.6690   17.2640    8.4840 O.2   120  ALA120     -0.2867
     98  CB        17.4970   14.9500    9.6220 C.3   120  ALA120      0.0290
     99  N         19.3870   20.6330    7.7670 N.3   123  TYR123     -0.1227
    100  CA        20.3440   21.1500    8.7840 C.3   123  TYR123      0.1736
    101  C         21.7060   20.4600    8.7000 C.2   123  TYR123      0.2596
    102  O         22.6790   21.1200    9.0970 O.2   123  TYR123     -0.2718
    103  CB        19.7280   21.1310   10.1880 C.3   123  TYR123      0.0548
    104  CG        18.7690   22.2840   10.3470 C.ar  123  TYR123     -0.0200
    105  CD1       19.2430   23.5740   10.4910 C.ar  123  TYR123     -0.0009
    106  CD2       17.4050   22.1060   10.1920 C.ar  123  TYR123     -0.0009
    107  CE1       18.3850   24.6530   10.5760 C.ar  123  TYR123      0.0417
    108  CE2       16.5270   23.1740   10.2650 C.ar  123  TYR123      0.0417
    109  CZ        17.0280   24.4530   10.4550 C.ar  123  TYR123      0.1957
    110  OH        16.1810   25.5120   10.5140 O.3   123  TYR123     -0.2866
    111  N         21.8320   19.2300    8.2020 N.am  124  SER124     -0.1952
    112  CA        23.1260   18.5190    8.3340 C.3   124  SER124      0.1924
    113  C         23.7360   18.0790    7.0080 C.2   124  SER124      0.2314
    114  O         24.9450   17.7200    7.0370 O.2   124  SER124     -0.2863
    115  CB        22.9980   17.3440    9.2850 C.3   124  SER124      0.2116
    116  OG        22.0870   16.3870    8.7880 O.3   124  SER124     -0.2180
    117  N         27.0230   20.2970    5.8310 N.3   127  MET127     -0.1230
    118  CA        28.2150   20.0600    6.6730 C.3   127  MET127      0.1702
    119  C         28.7240   18.6170    6.4370 C.2   127  MET127      0.2593
    120  O         29.9430   18.4130    6.3350 O.2   127  MET127     -0.2718
    121  CB        27.8710   20.3520    8.1400 C.3   127  MET127      0.0401
    122  CG        27.5590   19.1560    8.9960 C.3   127  MET127      0.0596
    123  SD        29.0550   18.6170    9.8230 S.3   127  MET127     -0.1393
    124  CE        28.9190   19.5750   11.3400 C.3   127  MET127      0.0692
    125  N         27.8330   17.6290    6.3350 N.am  128  THR128     -0.1953
    126  CA        28.2330   16.2110    6.1340 C.3   128  THR128      0.1897
    127  C         28.9160   16.0560    4.7750 C.2   128  THR128      0.2313
    128  O         29.9780   15.4360    4.7430 O.2   128  THR128     -0.2863
    129  CB        27.0530   15.2460    6.2900 C.3   128  THR128      0.1794
    130  OG1       26.4500   15.5090    7.5530 O.3   128  THR128     -0.2208
    131  CG2       27.4930   13.8060    6.3110 C.3   128  THR128      0.0378
    132  N         32.4990   17.5770    4.9990 N.3   131  LEU131     -0.1245
    133  CA        33.4610   16.6820    5.7010 C.3   131  LEU131      0.1561
    134  C         33.8870   15.5510    4.7650 C.2   131  LEU131      0.2260
    135  O         35.0950   15.2310    4.7050 O.2   131  LEU131     -0.2867
    136  CB        32.8080   16.0950    6.9540 C.3   131  LEU131      0.0270
    137  CG        32.6530   17.0410    8.1410 C.3   131  LEU131      0.0019
    138  CD1       31.7950   16.3920    9.1950 C.3   131  LEU131      0.0001
    139  CD2       33.9990   17.4140    8.7240 C.3   131  LEU131      0.0001
    140  N         25.0370    8.0770    6.2540 N.3   153  LEU153     -0.1231
    141  CA        25.6850    8.4600    7.5290 C.3   153  LEU153      0.1693
    142  C         24.6990    9.2430    8.3920 C.2   153  LEU153      0.2591
    143  O         24.6230    8.9540    9.6090 O.2   153  LEU153     -0.2718
    144  CB        26.9210    9.3020    7.2560 C.3   153  LEU153      0.0284
    145  CG        28.1640    8.5620    6.7840 C.3   153  LEU153      0.0019
    146  CD1       29.3020    9.5560    6.6550 C.3   153  LEU153      0.0001
    147  CD2       28.5610    7.4420    7.7390 C.3   153  LEU153      0.0001
    148  N         23.9890   10.2090    7.8130 N.am  154  ILE154     -0.1980
    149  CA        22.9650   11.0040    8.5660 C.3   154  ILE154      0.1595
    150  C         21.9310   10.0360    9.1620 C.2   154  ILE154      0.2287
    151  O         21.6370   10.1240   10.4000 O.2   154  ILE154     -0.2864
    152  CB        22.3370   12.1030    7.6860 C.3   154  ILE154      0.0276
    153  CG1       23.3450   13.2310    7.4420 C.3   154  ILE154      0.0022
    154  CG2       21.0600   12.6400    8.3040 C.3   154  ILE154      0.0022
    155  CD1       23.0520   14.1060    6.2410 C.3   154  ILE154      0.0001
    156  N         23.5760    7.9670   12.0210 N.3   157  LEU157     -0.1231
    157  CA        23.8910    8.7770   13.2340 C.3   157  LEU157      0.1693
    158  C         22.6100    9.1980   13.9670 C.2   157  LEU157      0.2592
    159  O         22.5800    9.1850   15.2350 O.2   157  LEU157     -0.2718
    160  CB        24.7400    9.9710   12.8020 C.3   157  LEU157      0.0284
    161  CG        26.1700    9.6360   12.3920 C.3   157  LEU157      0.0019
    162  CD1       26.8180   10.8060   11.6850 C.3   157  LEU157      0.0001
    163  CD2       26.9890    9.2370   13.6050 C.3   157  LEU157      0.0001
    164  N         21.5730    9.5660   13.2230 N.am  158  ASP158     -0.1974
    165  CA        20.2420    9.8960   13.7970 C.3   158  ASP158      0.1709
    166  C         19.6950    8.6500   14.5180 C.2   158  ASP158      0.2293
    167  O         19.1950    8.7720   15.6630 O.2   158  ASP158     -0.2864
    168  CB        19.3080   10.4920   12.7380 C.3   158  ASP158      0.1436
    169  CG        19.6440   11.9360   12.3410 C.2   158  ASP158      0.3671
    170  OD1       20.4300   12.5980   13.0710 O.co2 158  ASP158     -0.2456
    171  OD2       19.1330   12.4050   11.2980 O.co2 158  ASP158     -0.2456
@<TRIPOS>BOND
     1   135   134    2
     2   128   127    2
     3   134   133    1
     4   127   126    1
     5   132   133    1
     6   133   136    1
     7   117   118    1
     8   126   129    1
     9   126   125    1
    10   155   153    1
    11   140   141    1
    12   129   131    1
    13   129   130    1
    14   125   119   am
    15   120   119    2
    16   119   118    1
    17   146   145    1
    18   118   121    1
    19   145   144    1
    20   145   147    1
    21   136   137    1
    22   113   114    2
    23   113   112    1
    24    40    38    1
    25   144   141    1
    26   153   152    1
    27   141   142    1
    28   152   154    1
    29   152   149    1
    30    99   100    1
    31   148   142   am
    32   148   149    1
    33   121   122    1
    34   137   139    1
    35   137   138    1
    36   111   112    1
    37   111   101   am
    38    96    97    2
    39    96    95    1
    40   112   115    1
    41   142   143    2
    42    38    37    1
    43   149   150    1
    44   101   100    1
    45   101   102    2
    46   100   103    1
    47   116   115    1
    48   122   123    1
    49   150   151    2
    50    94    95    1
    51    95    98    1
    52    85    86    2
    53    85    84    1
    54    83    84    1
    55    37    39    1
    56    37    34    1
    57   123   124    1
    58   103   104    1
    59   106   108   ar
    60   106   104   ar
    61   108   109   ar
    62   104   105   ar
    63    84    87    1
    64   109   110    1
    65   109   107   ar
    66   105   107   ar
    67    34    33    1
    68    34    35    1
    69   171   169   ar
    70    87    88    1
    71    89    88   ar
    72    89    91   ar
    73   162   161    1
    74   156   157    1
    75    88    90   ar
    76    91    93   ar
    77     8     7   ar
    78    35    36    2
    79   169   168    1
    80   169   170   ar
    81   161   160    1
    82   161   163    1
    83    23    22    1
    84    23    24    1
    85    22    21    1
    86   168   165    1
    87   160   157    1
    88    21    18    1
    89    45    42    1
    90   164   165    1
    91   164   158   am
    92   157   158    1
    93     7     9   ar
    94     7     6    1
    95    90    92   ar
    96    52    50    1
    97    93    92   ar
    98   165   166    1
    99     5     6    1
   100     5     2    1
   101   158   159    2
   102    18    19    1
   103    18    17    1
   104     4     3    2
   105    42    41    1
   106    42    43    1
   107   166   167    2
   108    20    19    2
   109     3     2    1
   110    32    31    1
   111    46    43   am
   112    46    47    1
   113    50    47    1
   114    50    51    1
   115     2     1    1
   116    43    44    2
   117    17    12   am
   118    47    48    1
   119    31    30    1
   120    29    30    1
   121    29    26    1
   122    59    61   ar
   123    59    58   ar
   124    27    28    2
   125    27    26    1
   126    61    62   ar
   127    58    57    1
   128    58    60   ar
   129    12    13    2
   130    12    11    1
   131    57    54    1
   132    62    60   ar
   133    62    64   ar
   134    60    63   ar
   135    64    66   ar
   136    73    71    1
   137    26    25    1
   138    15    14    1
   139    48    49    2
   140    14    11    1
   141    14    16    1
   142    63    65   ar
   143    66    65   ar
   144    70    69    2
   145    74    72    1
   146    10    11    1
   147    54    53    1
   148    54    55    1
   149    71    72    1
   150    71    68    1
   151    69    68    1
   152    69    75   am
   153    68    67    1
   154    82    80    1
   155    78    77    2
   156    55    56    2
   157    76    75    1
   158    76    77    1
   159    76    79    1
   160    80    79    1
   161    80    81    1
