@<TRIPOS>MOLECULE
tmp/6hs4A03.pdb
 98 92 0 0 0
SMALL
GASTEIGER

@<TRIPOS>ATOM
      1  N        -49.4360   26.7500   -1.4770 N.3    31  THR31      -0.1203
      2  CA       -50.0450   26.1750   -2.6700 C.3    31  THR31       0.1994
      3  C        -49.1620   25.1100   -3.3100 C.2    31  THR31       0.2617
      4  O        -49.6600   24.3210   -4.1190 O.2    31  THR31      -0.2717
      5  CB       -50.3660   27.2570   -3.7070 C.3    31  THR31       0.1784
      6  OG1      -49.1840   28.0110   -4.0080 O.3    31  THR31      -0.2211
      7  CG2      -51.4510   28.1920   -3.1910 C.3    31  THR31       0.0376
      8  N        -47.8710   25.0640   -2.9600 N.am   32  ASN32      -0.1974
      9  CA       -46.9840   24.0100   -3.4470 C.3    32  ASN32       0.1688
     10  C        -47.3880   22.6290   -2.9570 C.2    32  ASN32       0.2292
     11  O        -47.0150   21.6360   -3.5850 O.2    32  ASN32      -0.2864
     12  CB       -45.5400   24.2790   -3.0170 C.3    32  ASN32       0.1181
     13  CG       -44.9300   25.4570   -3.7330 C.2    32  ASN32       0.2629
     14  OD1      -45.3280   25.7900   -4.8500 O.2    32  ASN32      -0.2716
     15  ND2      -43.9550   26.0970   -3.0990 N.am   32  ASN32      -0.0877
     16  N        -50.3240   21.4870   -3.0280 N.3    34  LEU34      -0.1231
     17  CA       -51.3930   21.0260   -3.9030 C.3    34  LEU34       0.1693
     18  C        -50.8080   20.6240   -5.2460 C.2    34  LEU34       0.2592
     19  O        -49.9460   21.3200   -5.7880 O.2    34  LEU34      -0.2718
     20  CB       -52.4520   22.1130   -4.0980 C.3    34  LEU34       0.0284
     21  CG       -53.1890   22.5070   -2.8110 C.3    34  LEU34       0.0019
     22  CD1      -53.9070   23.8340   -2.9920 C.3    34  LEU34       0.0001
     23  CD2      -54.1790   21.4190   -2.4150 C.3    34  LEU34       0.0001
     24  N        -51.2790   19.4950   -5.7830 N.am   35  ARG35      -0.1966
     25  CA       -50.7440   18.9780   -7.0330 C.3    35  ARG35       0.1729
     26  C        -51.8640   18.4220   -7.8910 C.2    35  ARG35       0.2617
     27  O        -52.8460   17.8720   -7.3800 O.2    35  ARG35      -0.2715
     28  CB       -49.6890   17.8850   -6.7930 C.3    35  ARG35       0.0348
     29  CG       -48.4930   18.3440   -5.9610 C.3    35  ARG35       0.0492
     30  CD       -47.5960   19.3110   -6.7280 C.3    35  ARG35       0.2205
     31  NE       -46.6550   19.9920   -5.8410 N.pl3  35  ARG35      -0.0865
     32  CZ       -45.5310   19.4480   -5.3830 C.cat  35  ARG35       0.5346
     33  NH1      -45.2010   18.2110   -5.7290 N.pl3  35  ARG35       0.1354
     34  NH2      -44.7370   20.1380   -4.5750 N.pl3  35  ARG35       0.1354
     35  N        -51.7060   18.5750   -9.2000 N.am   36  SER36      -0.1936
     36  CA       -52.5840   17.9590  -10.1840 C.3    36  SER36       0.2055
     37  C        -51.7410   17.0090  -11.0120 C.2    36  SER36       0.2642
     38  O        -50.6180   17.3400  -11.4020 O.2    36  SER36      -0.2714
     39  CB       -53.2420   18.9930  -11.0810 C.3    36  SER36       0.2130
     40  OG       -52.2470   19.7340  -11.7620 O.3    36  SER36      -0.2179
     41  N        -52.2800   15.8300  -11.2840 N.am   37  VAL37      -0.1977
     42  CA       -51.5120   14.7430  -11.8640 C.3    37  VAL37       0.1596
     43  C        -52.3720   13.9810  -12.8590 C.2    37  VAL37       0.2287
     44  O        -53.5420   13.6980  -12.5830 O.2    37  VAL37      -0.2864
     45  CB       -51.0180   13.8100  -10.7530 C.3    37  VAL37       0.0276
     46  CG1      -50.7600   12.4700  -11.3290 C.3    37  VAL37       0.0022
     47  CG2      -49.7870   14.4040  -10.0860 C.3    37  VAL37       0.0022
     48  N        -52.8680   10.4500  -14.8700 N.3    39  LEU39      -0.1245
     49  CA       -52.5720    9.0240  -14.8270 C.3    39  LEU39       0.1561
     50  C        -53.0760    8.3760  -16.1080 C.2    39  LEU39       0.2260
     51  O        -54.1530    8.7200  -16.5990 O.2    39  LEU39      -0.2867
     52  CB       -53.2350    8.3360  -13.6270 C.3    39  LEU39       0.0270
     53  CG       -52.6470    8.5550  -12.2290 C.3    39  LEU39       0.0019
     54  CD1      -51.1470    8.2830  -12.2100 C.3    39  LEU39       0.0001
     55  CD2      -52.9530    9.9680  -11.7680 C.3    39  LEU39       0.0001
     56  N        -50.0980   19.1130  -13.7920 N.3    71  GLU71      -0.1231
     57  CA       -48.7080   19.5220  -13.6020 C.3    71  GLU71       0.1699
     58  C        -47.6980   18.4170  -13.8660 C.2    71  GLU71       0.2592
     59  O        -46.5430   18.7120  -14.1920 O.2    71  GLU71      -0.2718
     60  CB       -48.4990   20.0420  -12.1740 C.3    71  GLU71       0.0402
     61  CG       -49.3340   21.2720  -11.8600 C.3    71  GLU71       0.1161
     62  CD       -49.4130   21.5660  -10.3620 C.2    71  GLU71       0.3649
     63  OE1      -49.4930   22.7540   -9.9850 O.co2  71  GLU71      -0.2457
     64  OE2      -49.3720   20.6080   -9.5610 O.co2  71  GLU71      -0.2457
     65  N        -48.0970   17.1590  -13.7310 N.am   72  ALA72      -0.1966
     66  CA       -47.1790   16.0360  -13.8240 C.3    72  ALA72       0.1728
     67  C        -47.9260   14.8680  -14.4360 C.2    72  ALA72       0.2617
     68  O        -49.1300   14.7090  -14.2240 O.2    72  ALA72      -0.2715
     69  CB       -46.6230   15.6390  -12.4420 C.3    72  ALA72       0.0334
     70  N        -47.2050   14.0480  -15.1960 N.am   73  GLY73      -0.1940
     71  CA       -47.8060   12.8950  -15.8270 C.3    73  GLY73       0.2014
     72  C        -46.9230   11.6730  -15.7100 C.2    73  GLY73       0.2638
     73  O        -45.8640   11.6980  -15.0840 O.2    73  GLY73      -0.2714
     74  N        -47.3820   10.6060  -16.3510 N.am   74  GLU74      -0.1977
     75  CA       -46.7590    9.2980  -16.3030 C.3    74  GLU74       0.1602
     76  C        -46.1600    8.9940  -17.6700 C.2    74  GLU74       0.2287
     77  O        -46.7600    9.3240  -18.6950 O.2    74  GLU74      -0.2864
     78  CB       -47.8160    8.2540  -15.9110 C.3    74  GLU74       0.0415
     79  CG       -47.3730    6.8110  -15.9220 C.3    74  GLU74       0.1163
     80  CD       -48.4330    5.8860  -15.3340 C.2    74  GLU74       0.3649
     81  OE1      -48.0670    4.7810  -14.8800 O.co2  74  GLU74      -0.2457
     82  OE2      -49.6310    6.2660  -15.3250 O.co2  74  GLU74      -0.2457
     83  N        -54.3030   16.3930   -5.5060 N.3   155  LEU155     -0.1245
     84  CA       -53.7280   15.9170   -4.2540 C.3   155  LEU155      0.1561
     85  C        -53.3570   17.0780   -3.3510 C.2   155  LEU155      0.2260
     86  O        -52.8850   18.1210   -3.8120 O.2   155  LEU155     -0.2867
     87  CB       -52.4590   15.0960   -4.4900 C.3   155  LEU155      0.0270
     88  CG       -52.5180   13.8100   -5.2840 C.3   155  LEU155      0.0019
     89  CD1      -51.1020   13.4260   -5.6820 C.3   155  LEU155      0.0001
     90  CD2      -53.1540   12.7180   -4.4420 C.3   155  LEU155      0.0001
     91  N        -50.5880   17.2360   -0.5450 N.3   157  LEU157     -0.1245
     92  CA       -49.4840   16.4560   -0.0060 C.3   157  LEU157      0.1561
     93  C        -49.2490   16.7830    1.4680 C.2   157  LEU157      0.2260
     94  O        -49.4550   17.9190    1.9010 O.2   157  LEU157     -0.2867
     95  CB       -48.2090   16.7330   -0.7910 C.3   157  LEU157      0.0270
     96  CG       -48.3020   16.5610   -2.3070 C.3   157  LEU157      0.0019
     97  CD1      -46.9680   16.9010   -2.9640 C.3   157  LEU157      0.0001
     98  CD2      -48.7320   15.1420   -2.6490 C.3   157  LEU157      0.0001
@<TRIPOS>BOND
     1    77    76    2
     2    76    75    1
     3    51    50    2
     4    74    75    1
     5    74    72   am
     6    75    78    1
     7    50    49    1
     8    79    78    1
     9    79    80    1
    10    71    72    1
    11    71    70    1
    12    72    73    2
    13    80    82   ar
    14    80    81   ar
    15    70    67   am
    16    48    49    1
    17    49    52    1
    18    67    68    2
    19    67    66    1
    20    59    58    2
    21    58    65   am
    22    58    57    1
    23    66    65    1
    24    66    69    1
    25    56    57    1
    26    52    53    1
    27    57    60    1
    28    43    44    2
    29    43    42    1
    30    53    54    1
    31    53    55    1
    32    60    61    1
    33    42    41    1
    34    42    45    1
    35    61    62    1
    36    40    39    1
    37    38    37    2
    38    46    45    1
    39    41    37   am
    40    39    36    1
    41    37    36    1
    42    45    47    1
    43    62    63   ar
    44    62    64   ar
    45    36    35    1
    46    35    26   am
    47    26    27    2
    48    26    25    1
    49    25    28    1
    50    25    24    1
    51    28    29    1
    52    30    29    1
    53    30    31    1
    54    31    32    2
    55    19    18    2
    56    24    18   am
    57    33    32    1
    58    89    88    1
    59    83    84    1
    60    32    34    1
    61    88    87    1
    62    88    90    1
    63    18    17    1
    64    14    13    2
    65    87    84    1
    66    84    85    1
    67     4     3    2
    68    20    17    1
    69    20    21    1
    70     6     5    1
    71    17    16    1
    72    86    85    2
    73    13    15   am
    74    13    12    1
    75     5     7    1
    76     5     2    1
    77    11    10    2
    78     9    12    1
    79     9     8    1
    80     9    10    1
    81     3     8   am
    82     3     2    1
    83    22    21    1
    84    97    96    1
    85    21    23    1
    86     2     1    1
    87    98    96    1
    88    96    95    1
    89    95    92    1
    90    91    92    1
    91    92    93    1
    92    93    94    2
