@<TRIPOS>MOLECULE
tmp/6hsfD00.pdb
 129 125 0 0 0
SMALL
GASTEIGER

@<TRIPOS>ATOM
      1  N         47.7500   38.7390   25.3080 N.3    19  LYS19      -0.1245
      2  CA        48.6980   39.5580   24.5560 C.3    19  LYS19       0.1561
      3  C         49.3570   38.7750   23.4250 C.2    19  LYS19       0.2260
      4  O         49.5210   39.3000   22.3150 O.2    19  LYS19      -0.2867
      5  CB        49.7740   40.1090   25.4950 C.3    19  LYS19       0.0271
      6  CG        50.2680   41.5040   25.1550 C.3    19  LYS19       0.0035
      7  CD        49.2280   42.5680   25.5170 C.3    19  LYS19       0.0206
      8  CE        48.8700   42.5180   27.0000 C.3    19  LYS19       0.1093
      9  NZ        48.0710   43.6890   27.4560 N.3    19  LYS19      -0.1314
     10  N         50.3210   46.9280   31.8930 N.3    99  ASP99      -0.1239
     11  CA        50.7380   46.0150   30.8420 C.3    99  ASP99       0.1674
     12  C         50.9270   44.5840   31.3370 C.2    99  ASP99       0.2266
     13  O         51.1930   43.7010   30.5140 O.2    99  ASP99      -0.2867
     14  CB        52.0180   46.5230   30.1780 C.3    99  ASP99       0.1410
     15  CG        51.7460   47.6000   29.1540 C.2    99  ASP99       0.3668
     16  OD1       50.6670   47.5560   28.5180 O.co2  99  ASP99      -0.2456
     17  OD2       52.6090   48.4870   28.9840 O.co2  99  ASP99      -0.2456
     18  N         61.5830   35.6630   28.8010 N.3   139  TRP139     -0.1227
     19  CA        60.8080   36.7630   29.4170 C.3   139  TRP139      0.1737
     20  C         61.7090   37.6440   30.2970 C.2   139  TRP139      0.2595
     21  O         61.6150   37.7060   31.5400 O.2   139  TRP139     -0.2718
     22  CB        59.5980   36.1820   30.1730 C.3   139  TRP139      0.0564
     23  CG        58.7630   35.4390   29.2140 C.ar  139  TRP139      0.0003
     24  CD1       58.4770   34.1070   29.2320 C.ar  139  TRP139      0.0946
     25  CD2       58.1860   35.9550   27.9860 C.ar  139  TRP139      0.0152
     26  NE1       57.7280   33.7640   28.1210 N.ar  139  TRP139     -0.2442
     27  CE2       57.5310   34.8780   27.3480 C.ar  139  TRP139      0.0810
     28  CE3       58.1470   37.2300   27.3760 C.ar  139  TRP139      0.0012
     29  CZ2       56.8500   35.0270   26.1240 C.ar  139  TRP139      0.0191
     30  CZ3       57.4740   37.3740   26.1620 C.ar  139  TRP139      0.0001
     31  CH2       56.8320   36.2810   25.5540 C.ar  139  TRP139      0.0015
     32  N         62.5530   38.4140   29.6050 N.am  140  HIS140     -0.1961
     33  CA        63.7330   39.0200   30.2150 C.3   140  HIS140      0.1787
     34  C         63.4370   40.2550   31.0710 C.2   140  HIS140      0.2620
     35  O         64.3480   40.7380   31.7510 O.2   140  HIS140     -0.2715
     36  CB        64.7610   39.3750   29.1260 C.3   140  HIS140      0.0785
     37  CG        64.2200   40.2420   28.0290 C.ar  140  HIS140      0.0821
     38  ND1       65.0360   40.9080   27.1430 N.ar  140  HIS140     -0.2267
     39  CD2       62.9480   40.5590   27.6800 C.ar  140  HIS140      0.1154
     40  CE1       64.2910   41.5910   26.2880 C.ar  140  HIS140      0.1986
     41  NE2       63.0200   41.3980   26.5930 N.ar  140  HIS140     -0.2212
     42  N         62.2060   40.7570   31.0920 N.am  141  HIS141     -0.1973
     43  CA        61.8950   41.9610   31.8590 C.3   141  HIS141      0.1656
     44  C         61.4270   41.7070   33.2930 C.2   141  HIS141      0.2291
     45  O         61.2690   42.6820   34.0360 O.2   141  HIS141     -0.2864
     46  CB        60.7870   42.7620   31.1740 C.3   141  HIS141      0.0771
     47  CG        61.1900   43.3700   29.8680 C.ar  141  HIS141      0.0820
     48  ND1       62.3160   44.1570   29.7250 N.ar  141  HIS141     -0.2267
     49  CD2       60.5870   43.3420   28.6540 C.ar  141  HIS141      0.1154
     50  CE1       62.3960   44.5770   28.4750 C.ar  141  HIS141      0.1986
     51  NE2       61.3620   44.0960   27.8050 N.ar  141  HIS141     -0.2212
     52  N         56.5380   44.5400   31.4290 N.3   149  GLY149     -0.1225
     53  CA        56.5580   44.3230   29.9920 C.3   149  GLY149      0.1811
     54  C         56.0200   42.9760   29.5710 C.2   149  GLY149      0.2280
     55  O         56.6580   42.2610   28.7880 O.2   149  GLY149     -0.2866
     56  N         56.0610   40.3840   31.1840 N.3   151  CYS151     -0.1235
     57  CA        56.8820   39.3190   31.7540 C.3   151  CYS151      0.1677
     58  C         56.5350   39.1650   33.2330 C.2   151  CYS151      0.2270
     59  O         56.7240   40.0990   34.0170 O.2   151  CYS151     -0.2867
     60  CB        58.3710   39.6290   31.5860 C.3   151  CYS151      0.0956
     61  SG        58.9120   39.8140   29.8540 S.3   151  CYS151     -0.0801
     62  N         66.7470   41.0150   21.5480 N.3   175  ASP175     -0.1239
     63  CA        65.4340   41.6400   21.5210 C.3   175  ASP175      0.1674
     64  C         65.5530   43.1420   21.2590 C.2   175  ASP175      0.2266
     65  O         66.5390   43.7820   21.6210 O.2   175  ASP175     -0.2867
     66  CB        64.7220   41.4140   22.8560 C.3   175  ASP175      0.1410
     67  CG        63.2650   41.7260   22.8070 C.2   175  ASP175      0.3668
     68  OD1       62.9220   42.9140   22.9870 O.co2 175  ASP175     -0.2456
     69  OD2       62.4470   40.7820   22.6720 O.co2 175  ASP175     -0.2456
     70  N         64.1810   45.3560   22.8020 N.3   177  HIS177     -0.1241
     71  CA        64.1750   46.0050   24.1100 C.3   177  HIS177      0.1621
     72  C         65.3390   45.5520   24.9910 C.2   177  HIS177      0.2264
     73  O         65.8120   44.4210   24.9140 O.2   177  HIS177     -0.2867
     74  CB        62.8500   45.7380   24.8300 C.3   177  HIS177      0.0745
     75  CG        61.6460   46.2040   24.0650 C.ar  177  HIS177      0.0817
     76  ND1       60.9310   45.3760   23.2270 N.ar  177  HIS177     -0.2268
     77  CD2       61.0350   47.4140   24.0060 C.ar  177  HIS177      0.1154
     78  CE1       59.9260   46.0480   22.6920 C.ar  177  HIS177      0.1986
     79  NE2       59.9720   47.2910   23.1390 N.ar  177  HIS177     -0.2212
     80  N         60.3810   52.1250   26.2470 N.3   205  PHE205     -0.1241
     81  CA        60.4400   51.0270   27.2160 C.3   205  PHE205      0.1605
     82  C         61.7190   50.2180   27.0920 C.2   205  PHE205      0.2264
     83  O         62.2140   50.0630   25.9870 O.2   205  PHE205     -0.2867
     84  CB        59.2430   50.0820   27.0240 C.3   205  PHE205      0.0534
     85  CG        59.0820   49.0870   28.1360 C.ar  205  PHE205     -0.0203
     86  CD1       58.3200   49.3980   29.2550 C.ar  205  PHE205     -0.0042
     87  CD2       59.7110   47.8520   28.0820 C.ar  205  PHE205     -0.0042
     88  CE1       58.1600   48.4800   30.2800 C.ar  205  PHE205     -0.0003
     89  CE2       59.5640   46.9430   29.1260 C.ar  205  PHE205     -0.0003
     90  CZ        58.7920   47.2660   30.2160 C.ar  205  PHE205     -0.0000
     91  N         61.0990   41.3560   17.6970 N.3   268  ASP268     -0.1239
     92  CA        60.5120   42.6700   17.4720 C.3   268  ASP268      0.1674
     93  C         61.4540   43.6420   16.7760 C.2   268  ASP268      0.2266
     94  O         61.0700   44.8070   16.5780 O.2   268  ASP268     -0.2867
     95  CB        59.9850   43.2940   18.7800 C.3   268  ASP268      0.1410
     96  CG        60.7990   42.9030   20.0360 C.2   268  ASP268      0.3668
     97  OD1       61.9200   42.3610   19.9770 O.co2 268  ASP268     -0.2456
     98  OD2       60.2680   43.1590   21.1180 O.co2 268  ASP268     -0.2456
     99  N         54.9890   45.3770   14.1280 N.3   274  PRO274     -0.2102
    100  CA        54.2010   46.6040   14.3550 C.3   274  PRO274      0.1504
    101  C         54.9540   47.6810   15.1240 C.2   274  PRO274      0.2575
    102  O         54.6750   48.8670   14.9240 O.2   274  PRO274     -0.2718
    103  CB        52.9740   46.1000   15.1380 C.3   274  PRO274      0.0282
    104  CG        53.3040   44.6760   15.5360 C.3   274  PRO274      0.0208
    105  CD        54.2380   44.1680   14.4960 C.3   274  PRO274      0.0893
    106  N         55.9060   47.3050   15.9900 N.am  275  MET275     -0.1980
    107  CA        56.7840   48.2960   16.6140 C.3   275  MET275      0.1605
    108  C         57.4230   49.2030   15.5710 C.2   275  MET275      0.2287
    109  O         57.5600   50.4130   15.7890 O.2   275  MET275     -0.2864
    110  CB        57.8760   47.6010   17.4290 C.3   275  MET275      0.0413
    111  CG        57.3930   46.6710   18.5440 C.3   275  MET275      0.0598
    112  SD        57.2000   47.3480   20.2090 S.3   275  MET275     -0.1393
    113  CE        58.6430   48.3950   20.3860 C.3   275  MET275      0.0692
    114  N         60.0310   38.9650   22.5530 N.3   310  GLY310     -0.1225
    115  CA        59.0660   39.7850   21.8450 C.3   310  GLY310      0.1811
    116  C         58.8510   39.3060   20.4140 C.2   310  GLY310      0.2280
    117  O         59.5880   38.4970   19.8570 O.2   310  GLY310     -0.2866
    118  N         55.4660   40.6370   17.7660 N.3   312  TYR312     -0.1241
    119  CA        54.0560   40.9880   17.7670 C.3   312  TYR312      0.1605
    120  C         53.4130   40.8690   16.3950 C.2   312  TYR312      0.2264
    121  O         52.1890   40.9860   16.2790 O.2   312  TYR312     -0.2867
    122  CB        53.9020   42.4040   18.3450 C.3   312  TYR312      0.0534
    123  CG        54.6100   42.4390   19.6720 C.ar  312  TYR312     -0.0201
    124  CD1       54.0090   41.8810   20.8010 C.ar  312  TYR312     -0.0009
    125  CD2       55.9130   42.9230   19.7870 C.ar  312  TYR312     -0.0009
    126  CE1       54.6620   41.8430   22.0170 C.ar  312  TYR312      0.0417
    127  CE2       56.5770   42.8900   21.0150 C.ar  312  TYR312      0.0417
    128  CZ        55.9340   42.3480   22.1210 C.ar  312  TYR312      0.1957
    129  OH        56.5490   42.3000   23.3420 O.3   312  TYR312     -0.2866
@<TRIPOS>BOND
     1    99   100    1
     2    99   105    1
     3   100   101    1
     4   100   103    1
     5   105   104    1
     6   102   101    2
     7   101   106   am
     8   103   104    1
     9   108   109    2
    10   108   107    1
    11   106   107    1
    12   121   120    2
    13   120   119    1
    14    94    93    2
    15   107   110    1
    16    93    92    1
    17   110   111    1
    18    92    91    1
    19    92    95    1
    20   118   119    1
    21   119   122    1
    22   122   123    1
    23   111   112    1
    24    95    96    1
    25   123   125   ar
    26   123   124   ar
    27   125   127   ar
    28   117   116    2
    29    97    96   ar
    30    96    98   ar
    31   112   113    1
    32   116   115    1
    33   124   126   ar
    34   127   128   ar
    35    64    63    1
    36    64    65    2
    37    63    62    1
    38    63    66    1
    39   115   114    1
    40   126   128   ar
    41   128   129    1
    42     4     3    2
    43    69    67   ar
    44    78    79   ar
    45    78    76   ar
    46    70    71    1
    47    67    66    1
    48    67    68   ar
    49    79    77   ar
    50    76    75   ar
    51     3     2    1
    52    77    75   ar
    53    75    74    1
    54    71    74    1
    55    71    72    1
    56     2     1    1
    57     2     5    1
    58    73    72    2
    59     6     5    1
    60     6     7    1
    61     7     8    1
    62    31    29   ar
    63    31    30   ar
    64    83    82    2
    65    29    27   ar
    66    30    28   ar
    67    80    81    1
    68    40    41   ar
    69    40    38   ar
    70    41    39   ar
    71     8     9    1
    72    84    81    1
    73    84    85    1
    74    82    81    1
    75    38    37   ar
    76    27    25   ar
    77    27    26   ar
    78    28    25   ar
    79    39    37   ar
    80    51    50   ar
    81    51    49   ar
    82    25    23   ar
    83    37    36    1
    84    87    85   ar
    85    87    89   ar
    86    26    24   ar
    87    85    86   ar
    88    50    48   ar
    89    16    15   ar
    90    49    47   ar
    91    55    54    2
    92    18    19    1
    93    17    15   ar
    94    36    33    1
    95    89    90   ar
    96    15    14    1
    97    23    24   ar
    98    23    22    1
    99    86    88   ar
   100    19    22    1
   101    19    20    1
   102    54    53    1
   103    32    33    1
   104    32    20   am
   105    48    47   ar
   106    61    60    1
   107    47    46    1
   108    53    52    1
   109    14    11    1
   110    33    34    1
   111    90    88   ar
   112    20    21    2
   113    13    12    2
   114    11    12    1
   115    11    10    1
   116    34    42   am
   117    34    35    2
   118    42    43    1
   119    46    43    1
   120    56    57    1
   121    60    57    1
   122    57    58    1
   123    43    44    1
   124    58    59    2
   125    44    45    2
