@<TRIPOS>MOLECULE
tmp/6hshC01.pdb
 109 108 0 0 0
SMALL
GASTEIGER

@<TRIPOS>ATOM
      1  N         50.2760    5.8230   28.1040 N.3   141  LYS141     -0.1245
      2  CA        49.3660    6.2110   27.0310 C.3   141  LYS141      0.1561
      3  C         49.5540    5.2900   25.8330 C.2   141  LYS141      0.2260
      4  O         50.4870    4.4820   25.7900 O.2   141  LYS141     -0.2867
      5  CB        49.5990    7.6630   26.5900 C.3   141  LYS141      0.0271
      6  CG        49.6810    8.6630   27.7490 C.3   141  LYS141      0.0035
      7  CD        48.3740    8.7150   28.4950 C.3   141  LYS141      0.0206
      8  CE        48.3640    9.8810   29.4790 C.3   141  LYS141      0.1093
      9  NZ        48.4890   11.1750   28.7410 N.3   141  LYS141     -0.1314
     10  N         45.4550    9.6300   34.6950 N.3   180  ASP180     -0.1239
     11  CA        45.1950   10.2540   33.3960 C.3   180  ASP180      0.1674
     12  C         45.1840    9.2420   32.2510 C.2   180  ASP180      0.2266
     13  O         44.3670    9.3620   31.3290 O.2   180  ASP180     -0.2867
     14  CB        46.2190   11.3610   33.1320 C.3   180  ASP180      0.1410
     15  CG        47.6790   10.8640   33.1290 C.2   180  ASP180      0.3668
     16  OD1       47.9940    9.7520   33.6290 O.co2 180  ASP180     -0.2456
     17  OD2       48.5360   11.6320   32.6460 O.co2 180  ASP180     -0.2456
     18  N         41.8190    7.3360   32.2550 N.3   183  GLU183     -0.1231
     19  CA        40.7590    8.2740   31.8970 C.3   183  GLU183      0.1699
     20  C         40.7630    8.5790   30.4010 C.2   183  GLU183      0.2592
     21  O         39.7170    8.5480   29.7420 O.2   183  GLU183     -0.2718
     22  CB        40.9500    9.5520   32.6940 C.3   183  GLU183      0.0402
     23  CG        39.9910   10.6490   32.3270 C.3   183  GLU183      0.1161
     24  CD        40.2300   11.8910   33.1640 C.2   183  GLU183      0.3649
     25  OE1       40.9230   12.8170   32.6960 O.co2 183  GLU183     -0.2457
     26  OE2       39.7660   11.8930   34.3220 O.co2 183  GLU183     -0.2457
     27  N         41.9450    8.8530   29.8520 N.am  184  GLU184     -0.1979
     28  CA        42.0720    9.1810   28.4340 C.3   184  GLU184      0.1602
     29  C         41.6540    8.0180   27.5410 C.2   184  GLU184      0.2287
     30  O         41.0020    8.2230   26.5030 O.2   184  GLU184     -0.2864
     31  CB        43.5170    9.5750   28.1400 C.3   184  GLU184      0.0415
     32  CG        43.7760   10.0090   26.7070 C.3   184  GLU184      0.1163
     33  CD        45.2580   10.1890   26.4430 C.2   184  GLU184      0.3649
     34  OE1       45.7300    9.7650   25.3690 O.co2 184  GLU184     -0.2457
     35  OE2       45.9530   10.7400   27.3240 O.co2 184  GLU184     -0.2457
     36  N         37.8550    7.9690   27.4820 N.3   187  TRP187     -0.1227
     37  CA        37.2360    9.2950   27.4430 C.3   187  TRP187      0.1737
     38  C         35.9490    9.3130   26.6260 C.2   187  TRP187      0.2595
     39  O         35.0370   10.1030   26.9110 O.2   187  TRP187     -0.2718
     40  CB        38.2480   10.2690   26.8610 C.3   187  TRP187      0.0564
     41  CG        37.9030   11.7420   26.9600 C.ar  187  TRP187      0.0003
     42  CD1       37.4820   12.5710   25.9440 C.ar  187  TRP187      0.0946
     43  CD2       38.0140   12.5650   28.1260 C.ar  187  TRP187      0.0152
     44  NE1       37.3230   13.8520   26.4190 N.ar  187  TRP187     -0.2442
     45  CE2       37.6410   13.8710   27.7560 C.ar  187  TRP187      0.0810
     46  CE3       38.3870   12.3160   29.4560 C.ar  187  TRP187      0.0012
     47  CZ2       37.6330   14.9270   28.6670 C.ar  187  TRP187      0.0191
     48  CZ3       38.3860   13.3490   30.3420 C.ar  187  TRP187      0.0001
     49  CH2       38.0010   14.6440   29.9540 C.ar  187  TRP187      0.0015
     50  N         35.8520    8.4590   25.6040 N.am  188  TYR188     -0.1976
     51  CA        34.6980    8.4090   24.7100 C.3   188  TYR188      0.1639
     52  C         33.8040    7.2070   24.9700 C.2   188  TYR188      0.2290
     53  O         32.9110    6.9290   24.1620 O.2   188  TYR188     -0.2864
     54  CB        35.1640    8.3920   23.2500 C.3   188  TYR188      0.0560
     55  CG        35.9570    9.6290   22.8850 C.ar  188  TYR188     -0.0198
     56  CD1       35.3120   10.8300   22.6130 C.ar  188  TYR188     -0.0009
     57  CD2       37.3440    9.6060   22.8400 C.ar  188  TYR188     -0.0009
     58  CE1       36.0310   11.9730   22.2950 C.ar  188  TYR188      0.0417
     59  CE2       38.0690   10.7480   22.5210 C.ar  188  TYR188      0.0417
     60  CZ        37.4050   11.9260   22.2500 C.ar  188  TYR188      0.1957
     61  OH        38.1070   13.0650   21.9340 O.3   188  TYR188     -0.2866
     62  N         49.0490   17.0660   36.0570 N.3   207  GLY207     -0.1210
     63  CA        48.4470   18.3660   35.8010 C.3   207  GLY207      0.1956
     64  C         46.9990   18.3270   35.3750 C.2   207  GLY207      0.2612
     65  O         46.3500   19.3800   35.3330 O.2   207  GLY207     -0.2717
     66  N         46.4670   17.1540   35.0430 N.am  208  THR208     -0.1952
     67  CA        45.0810   16.9850   34.6560 C.3   208  THR208      0.1897
     68  C         44.2320   16.5760   35.8710 C.2   208  THR208      0.2313
     69  O         44.7150   16.4760   37.0020 O.2   208  THR208     -0.2863
     70  CB        44.9880   15.9470   33.5380 C.3   208  THR208      0.1794
     71  OG1       45.8890   14.8740   33.8350 O.3   208  THR208     -0.2208
     72  CG2       45.3670   16.5710   32.1790 C.3   208  THR208      0.0378
     73  N         41.5480   18.2950   36.9600 N.3   210  THR210     -0.1203
     74  CA        41.1040   19.4910   37.6740 C.3   210  THR210      0.1994
     75  C         40.6910   20.5130   36.6180 C.2   210  THR210      0.2618
     76  O         40.6590   20.2070   35.4240 O.2   210  THR210     -0.2717
     77  CB        42.2080   20.0320   38.5850 C.3   210  THR210      0.1784
     78  OG1       41.6890   21.1140   39.3880 O.3   210  THR210     -0.2211
     79  CG2       43.3670   20.5470   37.7320 C.3   210  THR210      0.0376
     80  N         40.3440   21.7250   37.0630 N.am  211  TRP211     -0.1961
     81  CA        39.9440   22.7800   36.1210 C.3   211  TRP211      0.1771
     82  C         41.0550   23.0280   35.1020 C.2   211  TRP211      0.2620
     83  O         42.2180   23.1760   35.4820 O.2   211  TRP211     -0.2715
     84  CB        39.6430   24.0630   36.8940 C.3   211  TRP211      0.0590
     85  CG        38.7480   23.8310   38.0640 C.ar  211  TRP211      0.0006
     86  CD1       39.1230   23.5320   39.3440 C.ar  211  TRP211      0.0946
     87  CD2       37.3240   23.8580   38.0570 C.ar  211  TRP211      0.0152
     88  NE1       38.0130   23.3800   40.1380 N.ar  211  TRP211     -0.2442
     89  CE2       36.8940   23.5790   39.3690 C.ar  211  TRP211      0.0810
     90  CE3       36.3660   24.1090   37.0680 C.ar  211  TRP211      0.0012
     91  CZ2       35.5460   23.5290   39.7160 C.ar  211  TRP211      0.0191
     92  CZ3       35.0350   24.0660   37.4150 C.ar  211  TRP211      0.0001
     93  CH2       34.6370   23.7710   38.7310 C.ar  211  TRP211      0.0015
     94  N         40.7120   23.0540   33.8080 N.am  212  ASN212     -0.1958
     95  CA        41.7210   23.1240   32.7430 C.3   212  ASN212      0.1819
     96  C         41.3750   24.1980   31.7180 C.2   212  ASN212      0.2621
     97  O         40.2030   24.4550   31.4310 O.2   212  ASN212     -0.2715
     98  CB        41.8870   21.7830   31.9650 C.3   212  ASN212      0.1195
     99  CG        42.7860   20.7580   32.6820 C.2   212  ASN212      0.2630
    100  OD1       42.8970   19.6110   32.2370 O.2   212  ASN212     -0.2716
    101  ND2       43.4260   21.1640   33.7760 N.am  212  ASN212     -0.0877
    102  N         42.4140   24.7830   31.1230 N.am  213  MET213     -0.1977
    103  CA        42.2330   25.7100   30.0100 C.3   213  MET213      0.1605
    104  C         41.9480   24.9400   28.7250 C.2   213  MET213      0.2287
    105  O         42.5720   23.9120   28.4470 O.2   213  MET213     -0.2864
    106  CB        43.4740   26.5910   29.8310 C.3   213  MET213      0.0413
    107  CG        43.7140   27.5490   30.9890 C.3   213  MET213      0.0598
    108  SD        42.3150   28.6670   31.2650 S.3   213  MET213     -0.1393
    109  CE        42.2800   29.5950   29.7190 C.3   213  MET213      0.0692
@<TRIPOS>BOND
     1    61    60    1
     2    60    58   ar
     3    60    59   ar
     4    58    56   ar
     5    59    57   ar
     6    56    55   ar
     7    57    55   ar
     8    55    54    1
     9    54    51    1
    10    53    52    2
    11    51    52    1
    12    51    50    1
    13    34    33   ar
    14    50    38   am
    15     4     3    2
    16     3     2    1
    17    42    44   ar
    18    42    41   ar
    19    44    45   ar
    20    33    32    1
    21    33    35   ar
    22    30    29    2
    23     5     2    1
    24     5     6    1
    25    38    39    2
    26    38    37    1
    27    32    31    1
    28    40    41    1
    29    40    37    1
    30    41    43   ar
    31     2     1    1
    32    37    36    1
    33    29    28    1
    34     6     7    1
    35    45    43   ar
    36    45    47   ar
    37    43    46   ar
    38    31    28    1
    39    28    27    1
    40   105   104    2
    41     7     8    1
    42    47    49   ar
    43   104   103    1
    44     9     8    1
    45    46    48   ar
    46   109   108    1
    47    21    20    2
    48   106   103    1
    49   106   107    1
    50    27    20   am
    51    49    48   ar
    52   103   102    1
    53    20    19    1
    54   107   108    1
    55   102    96   am
    56    13    12    2
    57    97    96    2
    58    96    95    1
    59    19    18    1
    60    19    22    1
    61    98    99    1
    62    98    95    1
    63    72    70    1
    64   100    99    2
    65    12    11    1
    66    23    22    1
    67    23    24    1
    68    17    15   ar
    69    99   101   am
    70    25    24   ar
    71    95    94    1
    72    15    14    1
    73    15    16   ar
    74    14    11    1
    75    24    26   ar
    76    11    10    1
    77    70    71    1
    78    70    67    1
    79    94    82   am
    80    67    66    1
    81    67    68    1
    82    66    64   am
    83    82    83    2
    84    82    81    1
    85    65    64    2
    86    64    63    1
    87    76    75    2
    88    63    62    1
    89    68    69    2
    90    81    84    1
    91    81    80    1
    92    75    80   am
    93    75    74    1
    94    84    85    1
    95    73    74    1
    96    90    92   ar
    97    90    87   ar
    98    92    93   ar
    99    74    77    1
   100    79    77    1
   101    87    85   ar
   102    87    89   ar
   103    85    86   ar
   104    77    78    1
   105    93    91   ar
   106    86    88   ar
   107    89    91   ar
   108    89    88   ar
