@<TRIPOS>MOLECULE
tmp/6hshB00.pdb
 124 122 0 0 0
SMALL
GASTEIGER

@<TRIPOS>ATOM
      1  N         79.2470   23.9250   80.7800 N.3    95  TYR95      -0.1227
      2  CA        79.4000   23.3390   79.4550 C.3    95  TYR95       0.1736
      3  C         79.8500   24.3430   78.3990 C.2    95  TYR95       0.2595
      4  O         80.4160   23.9290   77.3870 O.2    95  TYR95      -0.2718
      5  CB        78.1050   22.6560   79.0320 C.3    95  TYR95       0.0548
      6  CG        77.8920   21.3430   79.7540 C.ar   95  TYR95      -0.0200
      7  CD1       78.3860   20.1530   79.2340 C.ar   95  TYR95      -0.0009
      8  CD2       77.2220   21.2980   80.9700 C.ar   95  TYR95      -0.0009
      9  CE1       78.2000   18.9440   79.8990 C.ar   95  TYR95       0.0417
     10  CE2       77.0290   20.0990   81.6420 C.ar   95  TYR95       0.0417
     11  CZ        77.5180   18.9230   81.1030 C.ar   95  TYR95       0.1957
     12  OH        77.3260   17.7290   81.7710 O.3    95  TYR95      -0.2866
     13  N         79.6360   25.6480   78.6060 N.am   96  ASP96      -0.1974
     14  CA        80.1260   26.6250   77.6390 C.3    96  ASP96       0.1709
     15  C         81.5970   26.9630   77.8510 C.2    96  ASP96       0.2293
     16  O         82.3010   27.3010   76.8900 O.2    96  ASP96      -0.2864
     17  CB        79.2700   27.8860   77.7040 C.3    96  ASP96       0.1436
     18  CG        77.8520   27.6220   77.2600 C.2    96  ASP96       0.3671
     19  OD1       77.6970   26.9700   76.2020 O.co2  96  ASP96      -0.2456
     20  OD2       76.9060   28.0280   77.9720 O.co2  96  ASP96      -0.2456
     21  N         87.1660   38.8540   75.6310 N.3   137  HIS137     -0.1226
     22  CA        86.4540   40.0000   76.1900 C.3   137  HIS137      0.1752
     23  C         85.3020   39.6390   77.1330 C.2   137  HIS137      0.2596
     24  O         84.8490   40.5180   77.8630 O.2   137  HIS137     -0.2718
     25  CB        85.9530   40.9360   75.0440 C.3   137  HIS137      0.0759
     26  CG        85.0750   40.2890   73.9850 C.ar  137  HIS137      0.0818
     27  ND1       84.4290   41.0370   73.0160 N.ar  137  HIS137     -0.2268
     28  CD2       84.7760   38.9910   73.7100 C.ar  137  HIS137      0.1154
     29  CE1       83.7490   40.2320   72.2120 C.ar  137  HIS137      0.1986
     30  NE2       83.9500   38.9830   72.6080 N.ar  137  HIS137     -0.2212
     31  N         84.8060   38.3990   77.1700 N.am  138  HIS138     -0.1975
     32  CA        83.6260   38.1210   77.9990 C.3   138  HIS138      0.1656
     33  C         83.9370   37.7470   79.4420 C.2   138  HIS138      0.2291
     34  O         83.0230   37.7840   80.2800 O.2   138  HIS138     -0.2864
     35  CB        82.7850   36.9830   77.4040 C.3   138  HIS138      0.0771
     36  CG        82.2090   37.2980   76.0610 C.ar  138  HIS138      0.0820
     37  ND1       81.4480   38.4260   75.8280 N.ar  138  HIS138     -0.2267
     38  CD2       82.2600   36.6240   74.8880 C.ar  138  HIS138      0.1154
     39  CE1       81.0770   38.4460   74.5610 C.ar  138  HIS138      0.1986
     40  NE2       81.5580   37.3630   73.9690 N.ar  138  HIS138     -0.2212
     41  N         81.2720   32.7560   77.7120 N.3   146  GLY146     -0.1210
     42  CA        81.4230   32.8930   76.2720 C.3   146  GLY146      0.1956
     43  C         82.7260   32.3600   75.7160 C.2   146  GLY146      0.2612
     44  O         83.3200   32.9870   74.8280 O.2   146  GLY146     -0.2717
     45  N         83.1710   31.2010   76.1970 N.am  147  PHE147     -0.1962
     46  CA        84.4380   30.5770   75.8220 C.3   147  PHE147      0.1771
     47  C         85.6550   31.3560   76.3280 C.2   147  PHE147      0.2619
     48  O         86.7800   31.0540   75.9090 O.2   147  PHE147     -0.2715
     49  CB        84.5680   30.3820   74.2930 C.3   147  PHE147      0.0574
     50  CG        83.2480   30.0730   73.5790 C.ar  147  PHE147     -0.0200
     51  CD1       82.3060   29.2220   74.1410 C.ar  147  PHE147     -0.0042
     52  CD2       82.9650   30.6440   72.3410 C.ar  147  PHE147     -0.0042
     53  CE1       81.1080   28.9550   73.4830 C.ar  147  PHE147     -0.0003
     54  CE2       81.7740   30.3670   71.6770 C.ar  147  PHE147     -0.0003
     55  CZ        80.8470   29.5240   72.2510 C.ar  147  PHE147     -0.0000
     56  N         85.4680   32.3440   77.2140 N.am  148  CYS148     -0.1968
     57  CA        86.5530   33.1400   77.7970 C.3   148  CYS148      0.1712
     58  C         86.7110   32.7940   79.2760 C.2   148  CYS148      0.2296
     59  O         85.7360   32.8430   80.0310 O.2   148  CYS148     -0.2864
     60  CB        86.2790   34.6470   77.6760 C.3   148  CYS148      0.0983
     61  SG        86.0030   35.2140   75.9810 S.3   148  CYS148     -0.0798
     62  N         84.3720   42.7880   67.5730 N.3   173  ASP173     -0.1239
     63  CA        83.7680   41.4630   67.5800 C.3   173  ASP173      0.1674
     64  C         82.2890   41.5270   67.2130 C.2   173  ASP173      0.2266
     65  O         81.6050   42.5110   67.4750 O.2   173  ASP173     -0.2867
     66  CB        83.9200   40.8500   68.9750 C.3   173  ASP173      0.1410
     67  CG        83.8080   39.3370   68.9810 C.2   173  ASP173      0.3668
     68  OD1       82.6740   38.8430   69.0410 O.co2 173  ASP173     -0.2456
     69  OD2       84.8540   38.6520   68.9690 O.co2 173  ASP173     -0.2456
     70  N         80.1130   40.1460   68.8450 N.3   175  HIS175     -0.1241
     71  CA        79.4140   40.1880   70.1280 C.3   175  HIS175      0.1621
     72  C         79.8130   41.3950   70.9830 C.2   175  HIS175      0.2264
     73  O         80.9270   41.9160   70.9090 O.2   175  HIS175     -0.2867
     74  CB        79.6490   38.8820   70.9010 C.3   175  HIS175      0.0745
     75  CG        79.1900   37.6680   70.1470 C.ar  175  HIS175      0.0817
     76  ND1       79.9890   37.0170   69.2300 N.ar  175  HIS175     -0.2268
     77  CD2       77.9920   37.0360   70.1170 C.ar  175  HIS175      0.1154
     78  CE1       79.3150   36.0140   68.6940 C.ar  175  HIS175      0.1986
     79  NE2       78.1020   36.0010   69.2200 N.ar  175  HIS175     -0.2212
     80  N         73.6880   36.1710   72.2680 N.3   203  PHE203     -0.1241
     81  CA        74.7030   36.3270   73.3220 C.3   203  PHE203      0.1605
     82  C         75.4830   37.6420   73.1930 C.2   203  PHE203      0.2264
     83  O         75.7670   38.0750   72.0820 O.2   203  PHE203     -0.2867
     84  CB        75.6620   35.1350   73.2610 C.3   203  PHE203      0.0534
     85  CG        76.6880   35.1390   74.3370 C.ar  203  PHE203     -0.0203
     86  CD1       76.3980   34.6100   75.5810 C.ar  203  PHE203     -0.0042
     87  CD2       77.9550   35.6520   74.1040 C.ar  203  PHE203     -0.0042
     88  CE1       77.3460   34.6150   76.5870 C.ar  203  PHE203     -0.0003
     89  CE2       78.9010   35.6580   75.1030 C.ar  203  PHE203     -0.0003
     90  CZ        78.6000   35.1380   76.3410 C.ar  203  PHE203     -0.0000
     91  N         84.3400   37.1650   63.8640 N.3   264  ASP264     -0.1239
     92  CA        83.0590   36.5050   63.6360 C.3   264  ASP264      0.1674
     93  C         82.0290   37.3950   62.9420 C.2   264  ASP264      0.2266
     94  O         80.8860   36.9550   62.7590 O.2   264  ASP264     -0.2867
     95  CB        82.4930   35.9420   64.9450 C.3   264  ASP264      0.1410
     96  CG        82.7150   36.8450   66.1420 C.2   264  ASP264      0.3668
     97  OD1       83.1940   37.9930   66.0160 O.co2 264  ASP264     -0.2456
     98  OD2       82.3800   36.3610   67.2390 O.co2 264  ASP264     -0.2456
     99  N         78.3670   31.8850   62.3980 N.3   271  HIS271     -0.1241
    100  CA        77.2650   32.6840   62.9340 C.3   271  HIS271      0.1621
    101  C         76.3810   33.2310   61.8270 C.2   271  HIS271      0.2264
    102  O         75.1610   33.3340   61.9980 O.2   271  HIS271     -0.2867
    103  CB        77.7750   33.8480   63.7900 C.3   271  HIS271      0.0745
    104  CG        78.1730   33.4430   65.1740 C.ar  271  HIS271      0.0817
    105  ND1       79.4620   33.0830   65.4990 N.ar  271  HIS271     -0.2268
    106  CD2       77.4500   33.3280   66.3150 C.ar  271  HIS271      0.1154
    107  CE1       79.5170   32.7580   66.7810 C.ar  271  HIS271      0.1986
    108  NE2       78.3110   32.8990   67.2990 N.ar  271  HIS271     -0.2212
    109  N         86.8740   36.2660   68.8160 N.3   306  GLY306     -0.1225
    110  CA        86.0500   35.2820   68.1370 C.3   306  GLY306      0.1811
    111  C         86.5020   35.0700   66.7070 C.2   306  GLY306      0.2280
    112  O         87.3480   35.7730   66.1690 O.2   306  GLY306     -0.2866
    113  N         85.1830   31.6380   64.0380 N.3   308  TYR308     -0.1241
    114  CA        84.9580   30.2060   64.1170 C.3   308  TYR308      0.1605
    115  C         85.0910   29.5220   62.7680 C.2   308  TYR308      0.2264
    116  O         84.9650   28.2980   62.6920 O.2   308  TYR308     -0.2867
    117  CB        83.5880   29.9530   64.7690 C.3   308  TYR308      0.0534
    118  CG        83.5600   30.6850   66.0800 C.ar  308  TYR308     -0.0201
    119  CD1       84.0330   30.0870   67.2380 C.ar  308  TYR308     -0.0009
    120  CD2       83.1350   32.0190   66.1510 C.ar  308  TYR308     -0.0009
    121  CE1       84.0490   30.7810   68.4450 C.ar  308  TYR308      0.0417
    122  CE2       83.1590   32.7180   67.3450 C.ar  308  TYR308      0.0417
    123  CZ        83.6200   32.0930   68.4890 C.ar  308  TYR308      0.1957
    124  OH        83.6430   32.8000   69.6750 O.3   308  TYR308     -0.2866
@<TRIPOS>BOND
     1   101   102    2
     2   101   100    1
     3    99   100    1
     4   116   115    2
     5    94    93    2
     6   115   114    1
     7   100   103    1
     8    93    92    1
     9    92    91    1
    10    92    95    1
    11   103   104    1
    12   113   114    1
    13   114   117    1
    14   117   118    1
    15    95    96    1
    16   104   105   ar
    17   104   106   ar
    18   105   107   ar
    19    97    96   ar
    20   118   120   ar
    21   118   119   ar
    22    96    98   ar
    23   120   122   ar
    24   112   111    2
    25   106   108   ar
    26   111   110    1
    27   107   108   ar
    28    64    65    2
    29    64    63    1
    30   119   121   ar
    31   122   123   ar
    32    62    63    1
    33    63    66    1
    34   110   109    1
    35   121   123   ar
    36   123   124    1
    37    78    79   ar
    38    78    76   ar
    39    70    71    1
    40    69    67   ar
    41    66    67    1
    42    67    68   ar
    43    79    77   ar
    44    76    75   ar
    45    77    75   ar
    46    71    74    1
    47    71    72    1
    48    75    74    1
    49    73    72    2
    50    54    55   ar
    51    54    52   ar
    52    83    82    2
    53    29    30   ar
    54    29    27   ar
    55    55    53   ar
    56    80    81    1
    57    52    50   ar
    58    30    28   ar
    59    27    26   ar
    60    82    81    1
    61    84    81    1
    62    84    85    1
    63    53    51   ar
    64    50    51   ar
    65    50    49    1
    66    28    26   ar
    67    40    39   ar
    68    40    38   ar
    69    26    25    1
    70    87    85   ar
    71    87    89   ar
    72    49    46    1
    73    85    86   ar
    74    39    37   ar
    75    44    43    2
    76    38    36   ar
    77    25    22    1
    78    89    90   ar
    79    86    88   ar
    80    21    22    1
    81    43    45   am
    82    43    42    1
    83    46    45    1
    84    46    47    1
    85    37    36   ar
    86    48    47    2
    87    61    60    1
    88    36    35    1
    89    22    23    1
    90    19    18   ar
    91    42    41    1
    92    47    56   am
    93    90    88   ar
    94    16    15    2
    95    23    31   am
    96    23    24    2
    97    31    32    1
    98    56    57    1
    99    18    17    1
   100    18    20   ar
   101     4     3    2
   102    35    32    1
   103    14    17    1
   104    14    15    1
   105    14    13    1
   106    60    57    1
   107    57    58    1
   108    32    33    1
   109     3    13   am
   110     3     2    1
   111     5     2    1
   112     5     6    1
   113     7     6   ar
   114     7     9   ar
   115    58    59    2
   116    33    34    2
   117     2     1    1
   118     6     8   ar
   119     9    11   ar
   120     8    10   ar
   121    11    10   ar
   122    11    12    1
