@<TRIPOS>MOLECULE
tmp/6hsjB00.pdb
 210 202 0 0 0
SMALL
GASTEIGER

@<TRIPOS>ATOM
      1  N         18.6920   28.4210   49.9360 N.3    15  LYS15      -0.1245
      2  CA        19.1210   29.6100   49.1680 C.3    15  LYS15       0.1561
      3  C         20.5320   29.9890   49.5910 C.2    15  LYS15       0.2260
      4  O         20.8440   29.9750   50.7830 O.2    15  LYS15      -0.2867
      5  CB        18.1810   30.7970   49.4200 C.3    15  LYS15       0.0271
      6  CG        18.3960   31.9420   48.4410 C.3    15  LYS15       0.0035
      7  CD        17.1870   32.8450   48.2950 C.3    15  LYS15       0.0206
      8  CE        17.0870   33.9190   49.3520 C.3    15  LYS15       0.1093
      9  NZ        17.4850   35.2330   48.7960 N.3    15  LYS15      -0.1314
     10  N         27.2200   28.3070   46.0210 N.3   111  MET111     -0.1245
     11  CA        26.8230   29.0230   44.7700 C.3   111  MET111      0.1570
     12  C         26.4850   30.4760   45.1210 C.2   111  MET111      0.2261
     13  O         26.8570   30.8930   46.2510 O.2   111  MET111     -0.2867
     14  CB        25.6090   28.3330   44.1210 C.3   111  MET111      0.0387
     15  CG        25.9760   26.9910   43.4390 C.3   111  MET111      0.0595
     16  SD        24.6060   26.1220   42.5970 S.3   111  MET111     -0.1393
     17  CE        24.6160   26.9800   41.0160 C.3   111  MET111      0.0692
     18  N         19.7200   34.6270   31.2200 N.3   138  PRO138     -0.2116
     19  CA        20.8150   33.6700   31.3760 C.3   138  PRO138      0.1372
     20  C         20.7300   32.5580   30.3210 C.2   138  PRO138      0.2244
     21  O         19.6440   32.2680   29.8510 O.2   138  PRO138     -0.2868
     22  CB        20.6240   33.1590   32.8120 C.3   138  PRO138      0.0268
     23  CG        19.9690   34.3430   33.5010 C.3   138  PRO138      0.0207
     24  CD        19.0040   34.9040   32.4770 C.3   138  PRO138      0.0892
     25  N         21.1340   29.1760   30.5600 N.3   140  ALA140     -0.1231
     26  CA        20.5230   27.8530   30.8490 C.3   140  ALA140      0.1679
     27  C         19.0410   27.8460   30.4790 C.2   140  ALA140      0.2434
     28  O         18.5710   26.9620   29.7770 O.2   140  ALA140     -0.2733
     29  CB        20.7480   27.4390   32.2830 C.3   140  ALA140      0.0304
     30  N         18.1910   28.7820   30.9430 N.am  141  PRO141     -0.2729
     31  CA        16.7810   28.7180   30.5650 C.3   141  PRO141      0.1401
     32  C         16.5530   28.8590   29.0540 C.2   141  PRO141      0.2269
     33  O         15.6170   28.3090   28.5330 O.2   141  PRO141     -0.2865
     34  CB        16.1150   29.8770   31.3090 C.3   141  PRO141      0.0296
     35  CG        17.2300   30.6900   31.8650 C.3   141  PRO141      0.0237
     36  CD        18.4770   29.8550   31.9050 C.3   141  PRO141      0.0939
     37  N         17.2960   25.1520   27.5020 N.3   144  PHE144     -0.1241
     38  CA        16.2230   24.1700   27.7690 C.3   144  PHE144      0.1605
     39  C         14.8690   24.6950   27.2950 C.2   144  PHE144      0.2264
     40  O         14.0660   23.9190   26.7940 O.2   144  PHE144     -0.2867
     41  CB        16.2380   23.7770   29.2400 C.3   144  PHE144      0.0534
     42  CG        17.4730   23.0140   29.5920 C.ar  144  PHE144     -0.0203
     43  CD1       17.5230   21.6380   29.3950 C.ar  144  PHE144     -0.0042
     44  CD2       18.6060   23.6630   30.0460 C.ar  144  PHE144     -0.0042
     45  CE1       18.6870   20.9330   29.6400 C.ar  144  PHE144     -0.0003
     46  CE2       19.7570   22.9500   30.3290 C.ar  144  PHE144     -0.0003
     47  CZ        19.7850   21.5780   30.1580 C.ar  144  PHE144     -0.0000
     48  N          6.3470   20.8200   42.3530 N.3   170  HIS170     -0.1241
     49  CA         6.0840   21.6310   43.5670 C.3   170  HIS170      0.1621
     50  C          5.1000   20.9080   44.4820 C.2   170  HIS170      0.2264
     51  O          5.2790   21.0070   45.7150 O.2   170  HIS170     -0.2867
     52  CB         5.5820   23.0270   43.1860 C.3   170  HIS170      0.0745
     53  CG         6.6470   23.8930   42.6360 C.ar  170  HIS170      0.0817
     54  ND1        7.6470   24.4490   43.4120 N.ar  170  HIS170     -0.2268
     55  CD2        6.8230   24.3530   41.3900 C.ar  170  HIS170      0.1154
     56  CE1        8.4140   25.1950   42.6190 C.ar  170  HIS170      0.1986
     57  NE2        7.9230   25.1520   41.3910 N.ar  170  HIS170     -0.2212
     58  N         14.4570   23.3500   49.1300 N.3   180  GLN180     -0.1231
     59  CA        14.4990   24.8190   49.3300 C.3   180  GLN180      0.1698
     60  C         13.0660   25.3480   49.3640 C.2   180  GLN180      0.2592
     61  O         12.7280   26.1310   50.2990 O.2   180  GLN180     -0.2718
     62  CB        15.3570   25.5280   48.2740 C.3   180  GLN180      0.0381
     63  CG        15.3660   27.0220   48.5780 C.3   180  GLN180      0.0905
     64  CD        16.0630   27.9850   47.6520 C.2   180  GLN180      0.2608
     65  OE1       15.7210   29.1710   47.6590 O.2   180  GLN180     -0.2717
     66  NE2       17.0470   27.5250   46.8920 N.am  180  GLN180     -0.0878
     67  N         12.2510   24.9260   48.4040 N.am  181  PHE181     -0.1976
     68  CA        10.8290   25.3180   48.3240 C.3   181  PHE181      0.1639
     69  C          9.9570   24.1220   48.6750 C.2   181  PHE181      0.2290
     70  O         10.1460   23.0260   48.1120 O.2   181  PHE181     -0.2864
     71  CB        10.5650   25.9020   46.9460 C.3   181  PHE181      0.0560
     72  CG        11.2940   27.2070   46.7630 C.ar  181  PHE181     -0.0200
     73  CD1       10.9130   28.3170   47.5040 C.ar  181  PHE181     -0.0042
     74  CD2       12.4010   27.3020   45.9510 C.ar  181  PHE181     -0.0042
     75  CE1       11.5810   29.5220   47.3640 C.ar  181  PHE181     -0.0003
     76  CE2       13.0690   28.5150   45.8100 C.ar  181  PHE181     -0.0003
     77  CZ        12.6620   29.6130   46.5240 C.ar  181  PHE181     -0.0000
     78  N          1.6830   24.9400   44.5700 N.3   185  TYR185     -0.1241
     79  CA         1.0560   26.0140   43.7720 C.3   185  TYR185      0.1605
     80  C         -0.0730   25.3960   42.9810 C.2   185  TYR185      0.2264
     81  O         -0.0280   24.2010   42.6540 O.2   185  TYR185     -0.2867
     82  CB         2.0980   26.6690   42.8700 C.3   185  TYR185      0.0534
     83  CG         3.1890   27.3770   43.6250 C.ar  185  TYR185     -0.0201
     84  CD1        3.0340   28.7020   44.0140 C.ar  185  TYR185     -0.0009
     85  CD2        4.3650   26.7350   43.9820 C.ar  185  TYR185     -0.0009
     86  CE1        4.0330   29.3670   44.7030 C.ar  185  TYR185      0.0417
     87  CE2        5.3650   27.3790   44.7000 C.ar  185  TYR185      0.0417
     88  CZ         5.2040   28.7120   45.0450 C.ar  185  TYR185      0.1957
     89  OH         6.1750   29.3810   45.7310 O.3   185  TYR185     -0.2866
     90  N          6.4830   34.8970   37.2070 N.3   194  ARG194     -0.1245
     91  CA         7.3000   35.8300   36.3820 C.3   194  ARG194      0.1563
     92  C          7.8550   35.0910   35.1540 C.2   194  ARG194      0.2260
     93  O          8.4460   34.0220   35.3460 O.2   194  ARG194     -0.2867
     94  CB         8.4020   36.4270   37.2660 C.3   194  ARG194      0.0307
     95  CG         9.5830   37.0320   36.5200 C.3   194  ARG194      0.0489
     96  CD        10.4990   37.8710   37.4000 C.3   194  ARG194      0.2205
     97  NE        11.6120   37.1630   38.0520 N.pl3 194  ARG194     -0.0865
     98  CZ        11.6770   36.8590   39.3530 C.cat 194  ARG194      0.5346
     99  NH1       10.6740   37.1520   40.1630 N.pl3 194  ARG194      0.1354
    100  NH2       12.7400   36.2430   39.8450 N.pl3 194  ARG194      0.1354
    101  N         10.5080   34.0070   32.5580 N.3   196  VAL196     -0.1245
    102  CA        11.9940   33.9250   32.5420 C.3   196  VAL196      0.1561
    103  C         12.4490   33.8730   31.0780 C.2   196  VAL196      0.2260
    104  O         13.3210   34.6790   30.6910 O.2   196  VAL196     -0.2867
    105  CB        12.4880   32.7030   33.3370 C.3   196  VAL196      0.0252
    106  CG1       13.9770   32.4570   33.1240 C.3   196  VAL196      0.0019
    107  CG2       12.1530   32.8680   34.8100 C.3   196  VAL196      0.0019
    108  N          9.0050   31.4620   36.3010 N.3   202  LEU202     -0.1231
    109  CA         9.9450   31.2610   37.4270 C.3   202  LEU202      0.1693
    110  C          9.7230   29.9000   38.1000 C.2   202  LEU202      0.2591
    111  O         10.7520   29.2430   38.4280 O.2   202  LEU202     -0.2718
    112  CB         9.7630   32.4070   38.4230 C.3   202  LEU202      0.0284
    113  CG        10.7450   32.4210   39.5910 C.3   202  LEU202      0.0019
    114  CD1       12.1700   32.6310   39.1110 C.3   202  LEU202      0.0001
    115  CD2       10.3400   33.4780   40.6050 C.3   202  LEU202      0.0001
    116  N          8.4700   29.4760   38.2890 N.am  203  LEU203     -0.1980
    117  CA         8.1600   28.2320   39.0380 C.3   203  LEU203      0.1596
    118  C          8.4310   27.0010   38.1710 C.2   203  LEU203      0.2287
    119  O          8.2750   25.8890   38.6760 O.2   203  LEU203     -0.2864
    120  CB         6.7260   28.3020   39.5670 C.3   203  LEU203      0.0297
    121  CG         6.5090   29.3390   40.6730 C.3   203  LEU203      0.0022
    122  CD1        5.0440   29.4070   41.0330 C.3   203  LEU203      0.0001
    123  CD2        7.3440   29.0610   41.8930 C.3   203  LEU203      0.0001
    124  N         11.5410   26.7870   36.7270 N.3   205  CYS205     -0.1221
    125  CA        13.0160   26.8990   36.6810 C.3   205  CYS205      0.1808
    126  C         13.5970   26.5020   38.0300 C.2   205  CYS205      0.2601
    127  O         13.1040   26.9650   39.0570 O.2   205  CYS205     -0.2717
    128  CB        13.4620   28.3200   36.3790 C.3   205  CYS205      0.0970
    129  SG        12.8590   28.9530   34.8000 S.3   205  CYS205     -0.0800
    130  N         14.6810   25.7290   38.0430 N.am  206  CYS206     -0.1956
    131  CA        15.3360   25.3740   39.3120 C.3   206  CYS206      0.1828
    132  C         15.9830   26.6360   39.8510 C.2   206  CYS206      0.2467
    133  O         16.5050   27.4650   39.0930 O.2   206  CYS206     -0.2730
    134  CB        16.2950   24.1990   39.1460 C.3   206  CYS206      0.0996
    135  SG        17.8040   24.5490   38.2040 S.3   206  CYS206     -0.0797
    136  N         15.8960   26.8450   41.1760 N.am  207  PRO207     -0.2715
    137  CA        16.7000   27.8710   41.8400 C.3   207  PRO207      0.1536
    138  C         18.1120   27.3590   42.1010 C.2   207  PRO207      0.2599
    139  O         18.3350   26.1410   42.0280 O.2   207  PRO207     -0.2715
    140  CB        15.8910   28.1280   43.1230 C.3   207  PRO207      0.0310
    141  CG        15.2160   26.7770   43.4400 C.3   207  PRO207      0.0237
    142  CD        14.9690   26.1420   42.0850 C.3   207  PRO207      0.0939
    143  N         19.0360   28.2940   42.3510 N.am  208  THR208     -0.1951
    144  CA        20.3640   28.0040   42.9440 C.3   208  THR208      0.1897
    145  C         20.1450   27.6790   44.4320 C.2   208  THR208      0.2313
    146  O         19.3950   28.3400   45.1200 O.2   208  THR208     -0.2863
    147  CB        21.3740   29.1210   42.6480 C.3   208  THR208      0.1794
    148  OG1       20.9930   30.2900   43.3730 O.3   208  THR208     -0.2208
    149  CG2       21.4760   29.4450   41.1760 C.3   208  THR208      0.0378
    150  N         16.5030   14.7700   35.8790 N.3   286  HIS286     -0.1241
    151  CA        17.1830   16.0790   35.8890 C.3   286  HIS286      0.1621
    152  C         16.2290   17.1900   35.4140 C.2   286  HIS286      0.2264
    153  O         16.3670   17.6780   34.2860 O.2   286  HIS286     -0.2867
    154  CB        18.4600   15.9490   35.0730 C.3   286  HIS286      0.0745
    155  CG        19.4160   17.0400   35.3930 C.ar  286  HIS286      0.0817
    156  ND1       20.4190   16.8720   36.3170 N.ar  286  HIS286     -0.2268
    157  CD2       19.4380   18.3390   35.0250 C.ar  286  HIS286      0.1154
    158  CE1       21.0680   18.0070   36.4610 C.ar  286  HIS286      0.1986
    159  NE2       20.4770   18.9370   35.6830 N.ar  286  HIS286     -0.2212
    160  N         16.0630   20.3960   35.6340 N.3   288  CYS288     -0.1221
    161  CA        16.6170   21.7630   35.8120 C.3   288  CYS288      0.1808
    162  C         15.5780   22.8000   35.3550 C.2   288  CYS288      0.2601
    163  O         15.5170   23.8870   35.9360 O.2   288  CYS288     -0.2717
    164  CB        17.9440   21.9080   35.0730 C.3   288  CYS288      0.0970
    165  SG        17.9040   21.2990   33.3590 S.3   288  CYS288     -0.0800
    166  N         14.8040   22.4460   34.3390 N.am  289  PHE289     -0.1976
    167  CA        13.6360   23.2060   33.8300 C.3   289  PHE289      0.1639
    168  C         12.5550   22.2060   33.5140 C.2   289  PHE289      0.2290
    169  O         12.8660   21.0460   33.1710 O.2   289  PHE289     -0.2864
    170  CB        14.0120   24.0590   32.6090 C.3   289  PHE289      0.0560
    171  CG        15.1500   25.0070   32.9130 C.ar  289  PHE289     -0.0200
    172  CD1       16.4800   24.6110   32.8020 C.ar  289  PHE289     -0.0042
    173  CD2       14.9040   26.2600   33.4620 C.ar  289  PHE289     -0.0042
    174  CE1       17.5080   25.4670   33.1630 C.ar  289  PHE289     -0.0003
    175  CE2       15.9400   27.1260   33.8030 C.ar  289  PHE289     -0.0003
    176  CZ        17.2420   26.7050   33.6980 C.ar  289  PHE289     -0.0000
    177  N         13.4760   21.5250   40.4450 N.3   332  ILE332     -0.1245
    178  CA        12.5690   22.7010   40.3620 C.3   332  ILE332      0.1561
    179  C         12.2040   23.1900   41.7720 C.2   332  ILE332      0.2260
    180  O         12.0930   24.4250   41.9570 O.2   332  ILE332     -0.2867
    181  CB        11.3470   22.3100   39.5260 C.3   332  ILE332      0.0252
    182  CG1       11.6880   22.4650   38.0480 C.3   332  ILE332      0.0019
    183  CG2       10.1140   23.1290   39.8950 C.3   332  ILE332      0.0019
    184  CD1       10.6590   21.8760   37.1320 C.3   332  ILE332      0.0001
    185  N         19.4540   23.3350   43.1480 N.3   336  HIS336     -0.1241
    186  CA        20.4420   22.5830   42.3640 C.3   336  HIS336      0.1621
    187  C         21.8170   23.0760   42.7440 C.2   336  HIS336      0.2264
    188  O         22.3570   23.9350   42.0760 O.2   336  HIS336     -0.2867
    189  CB        20.0560   22.7870   40.9170 C.3   336  HIS336      0.0745
    190  CG        20.9250   22.1080   39.9440 C.ar  336  HIS336      0.0817
    191  ND1       21.5690   20.9210   40.2040 N.ar  336  HIS336     -0.2268
    192  CD2       21.2110   22.4400   38.6730 C.ar  336  HIS336      0.1154
    193  CE1       22.2670   20.5730   39.1440 C.ar  336  HIS336      0.1986
    194  NE2       22.0480   21.4780   38.1750 N.ar  336  HIS336     -0.2212
    195  N         25.3060   22.2670   42.2570 N.3   338  LEU338     -0.1245
    196  CA        25.7700   21.4320   41.1170 C.3   338  LEU338      0.1561
    197  C         26.4150   20.1300   41.6180 C.2   338  LEU338      0.2260
    198  O         25.9880   19.0500   41.1600 O.2   338  LEU338     -0.2867
    199  CB        26.7480   22.2150   40.2430 C.3   338  LEU338      0.0270
    200  CG        26.2150   23.5430   39.7010 C.3   338  LEU338      0.0019
    201  CD1       27.1630   24.0350   38.6340 C.3   338  LEU338      0.0001
    202  CD2       24.7950   23.4490   39.1650 C.3   338  LEU338      0.0001
    203  N         25.6750   19.6780   31.1020 N.3   375  LEU375     -0.1245
    204  CA        26.0990   20.0350   29.7350 C.3   375  LEU375      0.1561
    205  C         27.6140   20.2160   29.6920 C.2   375  LEU375      0.2260
    206  O         28.2240   20.5700   30.7090 O.2   375  LEU375     -0.2867
    207  CB        25.3210   21.2620   29.2680 C.3   375  LEU375      0.0270
    208  CG        23.8140   21.0020   29.0940 C.3   375  LEU375      0.0019
    209  CD1       23.1950   21.9790   28.1180 C.3   375  LEU375      0.0001
    210  CD2       23.4690   19.5800   28.6400 C.3   375  LEU375      0.0001
@<TRIPOS>BOND
     1    40    39    2
     2    39    38    1
     3    37    38    1
     4    38    41    1
     5   209   208    1
     6    33    32    2
     7   210   208    1
     8    32    31    1
     9   208   207    1
    10    41    42    1
    11   207   204    1
    12    43    42   ar
    13    43    45   ar
    14    42    44   ar
    15    45    47   ar
    16   205   204    1
    17   205   206    2
    18   204   203    1
    19    28    27    2
    20    21    20    2
    21    44    46   ar
    22    47    46   ar
    23    20    19    1
    24    27    26    1
    25    27    30   am
    26    25    26    1
    27    31    30    1
    28    31    34    1
    29   104   103    2
    30    26    29    1
    31    30    36    1
    32   103   102    1
    33    18    19    1
    34    18    24    1
    35    34    35    1
    36    19    22    1
    37    35    36    1
    38    24    23    1
    39   102   101    1
    40   102   105    1
    41   170   171    1
    42   170   167    1
    43   172   171   ar
    44   172   174   ar
    45    22    23    1
    46   171   173   ar
    47   106   105    1
    48   174   176   ar
    49   169   168    2
    50   105   107    1
    51   165   164    1
    52   173   175   ar
    53   168   167    1
    54   176   175   ar
    55   167   166    1
    56   153   152    2
    57   166   162   am
    58   129   128    1
    59   157   155   ar
    60   157   159   ar
    61   164   161    1
    62   154   155    1
    63   154   151    1
    64    92    93    2
    65    92    91    1
    66   162   161    1
    67   162   163    2
    68   155   156   ar
    69   152   151    1
    70   160   161    1
    71   159   158   ar
    72   150   151    1
    73   108   109    1
    74   156   158   ar
    75   128   125    1
    76    91    90    1
    77    91    94    1
    78    95    94    1
    79    95    96    1
    80   125   124    1
    81   125   126    1
    82   184   182    1
    83    96    97    1
    84   109   110    1
    85   109   112    1
    86   126   130   am
    87   126   127    2
    88   130   131    1
    89   182   181    1
    90    97    98    2
    91   110   116   am
    92   110   111    2
    93   118   119    2
    94   118   117    1
    95   194   192   ar
    96   194   193   ar
    97   135   134    1
    98   116   117    1
    99   112   113    1
   100   201   200    1
   101   192   190   ar
   102   117   120    1
   103   133   132    2
   104   114   113    1
   105   193   191   ar
   106   134   131    1
   107   202   200    1
   108   131   132    1
   109    98   100    1
   110    98    99    1
   111   181   183    1
   112   181   178    1
   113   120   121    1
   114   113   115    1
   115   200   199    1
   116   132   136   am
   117   190   191   ar
   118   190   189    1
   119   199   196    1
   120   178   177    1
   121   178   179    1
   122   121   122    1
   123   121   123    1
   124   189   186    1
   125    17    16    1
   126   196   197    1
   127   196   195    1
   128   198   197    2
   129   149   147    1
   130   136   137    1
   131   136   142    1
   132    55    57   ar
   133    55    53   ar
   134    57    56   ar
   135   179   180    2
   136   137   138    1
   137   137   140    1
   138   139   138    2
   139   188   187    2
   140   142   141    1
   141   138   143   am
   142   143   144    1
   143    48    49    1
   144   186   187    1
   145   186   185    1
   146    16    15    1
   147    56    54   ar
   148    53    52    1
   149    53    54   ar
   150   147   144    1
   151   147   148    1
   152    81    80    2
   153    82    83    1
   154    82    79    1
   155   144   145    1
   156    80    79    1
   157   140   141    1
   158    52    49    1
   159    15    14    1
   160    49    50    1
   161    83    85   ar
   162    83    84   ar
   163    79    78    1
   164    85    87   ar
   165    84    86   ar
   166    14    11    1
   167   145   146    2
   168    50    51    2
   169    87    88   ar
   170    86    88   ar
   171    11    12    1
   172    11    10    1
   173    88    89    1
   174    12    13    2
   175    76    74   ar
   176    76    77   ar
   177    74    72   ar
   178    77    75   ar
   179    72    71    1
   180    72    73   ar
   181    66    64   am
   182    71    68    1
   183    75    73   ar
   184    64    65    2
   185    64    63    1
   186    70    69    2
   187    62    63    1
   188    62    59    1
   189     7     6    1
   190     7     8    1
   191    68    67    1
   192    68    69    1
   193    67    60   am
   194     6     5    1
   195     9     8    1
   196    58    59    1
   197     2     5    1
   198     2     3    1
   199     2     1    1
   200    59    60    1
   201    60    61    2
   202     3     4    2
