@<TRIPOS>MOLECULE
tmp/6hskA00.pdb
 136 134 0 0 0
SMALL
GASTEIGER

@<TRIPOS>ATOM
      1  N         -9.4150    6.2590  -19.8740 N.3    88  ASP88      -0.1239
      2  CA       -10.2110    6.6760  -18.7250 C.3    88  ASP88       0.1674
      3  C         -9.5360    7.7710  -17.9080 C.2    88  ASP88       0.2266
      4  O        -10.2260    8.6380  -17.3510 O.2    88  ASP88      -0.2867
      5  CB       -10.5050    5.4700  -17.8360 C.3    88  ASP88       0.1410
      6  CG       -11.2890    4.4000  -18.5660 C.2    88  ASP88       0.3668
      7  OD1      -12.3010    4.7490  -19.2040 O.co2  88  ASP88      -0.2456
      8  OD2      -10.8890    3.2160  -18.5180 O.co2  88  ASP88      -0.2456
      9  N        -11.3650    8.4220   -4.6770 N.3   129  HIS129     -0.1226
     10  CA       -11.1680    7.2020   -3.8940 C.3   129  HIS129      0.1752
     11  C        -10.6690    6.0040   -4.7010 C.2   129  HIS129      0.2596
     12  O        -10.3730    4.9680   -4.0950 O.2   129  HIS129     -0.2718
     13  CB       -12.4790    6.8260   -3.1740 C.3   129  HIS129      0.0759
     14  CG       -13.6500    6.6360   -4.0910 C.ar  129  HIS129      0.0818
     15  ND1      -14.8450    6.0830   -3.6710 N.ar  129  HIS129     -0.2268
     16  CD2      -13.8190    6.9380   -5.4010 C.ar  129  HIS129      0.1154
     17  CE1      -15.6920    6.0500   -4.6820 C.ar  129  HIS129      0.1986
     18  NE2      -15.0990    6.5670   -5.7400 N.ar  129  HIS129     -0.2212
     19  N        -10.5800    6.0910   -6.0300 N.am  130  HIS130     -0.1975
     20  CA       -10.1460    4.9390   -6.8180 C.3   130  HIS130      0.1656
     21  C         -8.6350    4.8460   -6.9820 C.2   130  HIS130      0.2291
     22  O         -8.1360    3.7760   -7.3490 O.2   130  HIS130     -0.2864
     23  CB       -10.7780    4.9680   -8.2160 C.3   130  HIS130      0.0771
     24  CG       -12.2670    4.7750   -8.2230 C.ar  130  HIS130      0.0820
     25  ND1      -12.8820    3.6940   -7.6320 N.ar  130  HIS130     -0.2267
     26  CD2      -13.2590    5.5210   -8.7660 C.ar  130  HIS130      0.1154
     27  CE1      -14.1880    3.7750   -7.8160 C.ar  130  HIS130      0.1986
     28  NE2      -14.4420    4.8810   -8.4940 N.ar  130  HIS130     -0.2212
     29  N        -10.1950    5.3230  -12.5440 N.3   138  GLY138     -0.1210
     30  CA       -11.5330    5.8610  -12.4270 C.3   138  GLY138      0.1956
     31  C        -11.5710    7.3640  -12.2590 C.2   138  GLY138      0.2612
     32  O        -12.2120    7.8770  -11.3340 O.2   138  GLY138     -0.2717
     33  N        -10.8750    8.0800  -13.1320 N.am  139  PHE139     -0.1962
     34  CA       -10.7790    9.5390  -13.0970 C.3   139  PHE139      0.1771
     35  C         -9.9970   10.0530  -11.8950 C.2   139  PHE139      0.2619
     36  O         -9.9210   11.2700  -11.7100 O.2   139  PHE139     -0.2715
     37  CB       -12.1520   10.2440  -13.0880 C.3   139  PHE139      0.0574
     38  CG       -13.1750    9.6610  -14.0410 C.ar  139  PHE139     -0.0200
     39  CD1      -12.8060    9.1380  -15.2720 C.ar  139  PHE139     -0.0042
     40  CD2      -14.5270    9.6600  -13.6970 C.ar  139  PHE139     -0.0042
     41  CE1      -13.7640    8.6100  -16.1430 C.ar  139  PHE139     -0.0003
     42  CE2      -15.4900    9.1340  -14.5650 C.ar  139  PHE139     -0.0003
     43  CZ       -15.1160    8.6130  -15.7720 C.ar  139  PHE139     -0.0000
     44  N         -9.4180    9.1740  -11.0700 N.am  140  CYS140     -0.1968
     45  CA        -8.6830    9.5880   -9.8700 C.3   140  CYS140      0.1712
     46  C         -7.1750    9.4830  -10.1010 C.2   140  CYS140      0.2296
     47  O         -6.6490    8.3970  -10.3680 O.2   140  CYS140     -0.2864
     48  CB        -9.0950    8.7460   -8.6600 C.3   140  CYS140      0.0983
     49  SG       -10.8980    8.6950   -8.3510 S.3   140  CYS140     -0.0798
     50  N        -20.2790    7.1470   -2.0030 N.3   165  ASP165     -0.1239
     51  CA       -20.2640    7.2350   -3.4590 C.3   165  ASP165      0.1674
     52  C        -21.0140    6.0590   -4.0780 C.2   165  ASP165      0.2266
     53  O        -21.1320    4.9870   -3.4790 O.2   165  ASP165     -0.2867
     54  CB       -18.8090    7.2260   -3.9390 C.3   165  ASP165      0.1410
     55  CG       -18.6670    7.6660   -5.3640 C.2   165  ASP165      0.3668
     56  OD1      -18.9410    6.8410   -6.2810 O.co2 165  ASP165     -0.2456
     57  OD2      -18.2750    8.8330   -5.5620 O.co2 165  ASP165     -0.2456
     58  N        -19.9240    4.2400   -6.3010 N.3   167  HIS167     -0.1241
     59  CA       -18.9420    3.2260   -6.6280 C.3   167  HIS167      0.1621
     60  C        -18.2030    2.7730   -5.3810 C.2   167  HIS167      0.2264
     61  O        -18.0120    3.5380   -4.4290 O.2   167  HIS167     -0.2867
     62  CB       -17.9560    3.7570   -7.6650 C.3   167  HIS167      0.0745
     63  CG       -18.6050    4.1340   -8.9550 C.ar  167  HIS167      0.0817
     64  ND1      -19.0370    5.4140   -9.2230 N.ar  167  HIS167     -0.2268
     65  CD2      -18.9170    3.3950  -10.0450 C.ar  167  HIS167      0.1154
     66  CE1      -19.5670    5.4560  -10.4320 C.ar  167  HIS167      0.1986
     67  NE2      -19.5050    4.2430  -10.9520 N.ar  167  HIS167     -0.2212
     68  N        -20.2050   -6.3290  -14.5100 N.3   193  GLY193     -0.1210
     69  CA       -19.9420   -5.2800  -15.4650 C.3   193  GLY193      0.1956
     70  C        -19.9780   -3.8680  -14.9230 C.2   193  GLY193      0.2612
     71  O        -19.8100   -2.9280  -15.7070 O.2   193  GLY193     -0.2717
     72  N        -20.1990   -3.6720  -13.6270 N.am  194  PHE194     -0.1962
     73  CA       -20.2130   -2.3280  -13.0510 C.3   194  PHE194      0.1771
     74  C        -18.8900   -2.0350  -12.3440 C.2   194  PHE194      0.2620
     75  O        -18.4840   -2.7640  -11.4270 O.2   194  PHE194     -0.2715
     76  CB       -21.3740   -2.1480  -12.0830 C.3   194  PHE194      0.0574
     77  CG       -21.6010   -0.7120  -11.7000 C.ar  194  PHE194     -0.0200
     78  CD1      -22.2230    0.1620  -12.5830 C.ar  194  PHE194     -0.0042
     79  CD2      -21.1830   -0.2300  -10.4680 C.ar  194  PHE194     -0.0042
     80  CE1      -22.4310    1.4890  -12.2310 C.ar  194  PHE194     -0.0003
     81  CE2      -21.3950    1.0990  -10.1110 C.ar  194  PHE194     -0.0003
     82  CZ       -22.0010    1.9550  -10.9880 C.ar  194  PHE194     -0.0000
     83  N        -18.2330   -0.9670  -12.7700 N.am  195  PHE195     -0.1960
     84  CA       -16.9370   -0.5550  -12.2520 C.3   195  PHE195      0.1756
     85  C        -16.9440   -0.2220  -10.7580 C.2   195  PHE195      0.2461
     86  O        -17.8990    0.3690  -10.2520 O.2   195  PHE195     -0.2730
     87  CB       -16.4770    0.6530  -13.0560 C.3   195  PHE195      0.0574
     88  CG       -15.1700    1.2270  -12.6180 C.ar  195  PHE195     -0.0200
     89  CD1      -13.9740    0.6820  -13.0720 C.ar  195  PHE195     -0.0042
     90  CD2      -15.1340    2.3560  -11.8140 C.ar  195  PHE195     -0.0042
     91  CE1      -12.7440    1.2270  -12.6830 C.ar  195  PHE195     -0.0003
     92  CE2      -13.9220    2.9070  -11.4350 C.ar  195  PHE195     -0.0003
     93  CZ       -12.7250    2.3390  -11.8610 C.ar  195  PHE195     -0.0000
     94  N        -15.8700   -0.5900  -10.0380 N.am  196  PRO196     -0.2716
     95  CA       -14.6730   -1.2980  -10.5020 C.3   196  PRO196      0.1536
     96  C        -14.7280   -2.8140  -10.2740 C.2   196  PRO196      0.2599
     97  O        -13.6930   -3.4640  -10.2760 O.2   196  PRO196     -0.2715
     98  CB       -13.5530   -0.6480   -9.6670 C.3   196  PRO196      0.0310
     99  CG       -14.2520   -0.3530   -8.3190 C.3   196  PRO196      0.0237
    100  CD       -15.7420   -0.1510   -8.6310 C.3   196  PRO196      0.0939
    101  N        -15.9250   -3.3680  -10.0990 N.am  197  GLY197     -0.1955
    102  CA       -16.0930   -4.8000  -10.0340 C.3   197  GLY197      0.1869
    103  C        -15.8030   -5.4310   -8.6940 C.2   197  GLY197      0.2309
    104  O        -16.0090   -6.6360   -8.5400 O.2   197  GLY197     -0.2863
    105  N        -23.0940   10.7850   -7.1530 N.3   254  ASP254     -0.1239
    106  CA       -23.6140   10.0060   -8.2640 C.3   254  ASP254      0.1674
    107  C        -24.6660    8.9980   -7.8370 C.2   254  ASP254      0.2266
    108  O        -25.1280    8.2220   -8.6790 O.2   254  ASP254     -0.2867
    109  CB       -22.4820    9.3100   -9.0380 C.3   254  ASP254      0.1410
    110  CG       -21.4050    8.6970   -8.1390 C.2   254  ASP254      0.3668
    111  OD1      -21.5260    8.6820   -6.8900 O.co2 254  ASP254     -0.2456
    112  OD2      -20.4220    8.2140   -8.7270 O.co2 254  ASP254     -0.2456
    113  N        -25.5060    8.4440  -14.6390 N.3   261  LEU261     -0.1245
    114  CA       -25.3530    6.9980  -14.5030 C.3   261  LEU261      0.1561
    115  C        -26.6750    6.3040  -14.1790 C.2   261  LEU261      0.2260
    116  O        -26.8170    5.1060  -14.4500 O.2   261  LEU261     -0.2867
    117  CB       -24.3090    6.6780  -13.4340 C.3   261  LEU261      0.0270
    118  CG       -22.9270    7.3140  -13.6430 C.3   261  LEU261      0.0019
    119  CD1      -21.9610    6.8160  -12.5870 C.3   261  LEU261      0.0001
    120  CD2      -22.3910    7.0410  -15.0380 C.3   261  LEU261      0.0001
    121  N        -17.7380   11.4930   -6.8440 N.3   291  GLY291     -0.1225
    122  CA       -18.5080   11.4770   -8.0630 C.3   291  GLY291      0.1811
    123  C        -19.7170   12.3880   -7.9890 C.2   291  GLY291      0.2280
    124  O        -20.0620   12.9660   -6.9480 O.2   291  GLY291     -0.2866
    125  N        -22.2810   13.5740  -11.5850 N.3   293  TYR293     -0.1241
    126  CA       -22.1320   13.9880  -12.9720 C.3   293  TYR293      0.1605
    127  C        -23.3170   14.7950  -13.4850 C.2   293  TYR293      0.2264
    128  O        -23.2500   15.3320  -14.5930 O.2   293  TYR293     -0.2867
    129  CB       -21.8530   12.7500  -13.8460 C.3   293  TYR293      0.0534
    130  CG       -20.6450   12.0430  -13.2710 C.ar  293  TYR293     -0.0201
    131  CD1      -19.3660   12.5620  -13.4680 C.ar  293  TYR293     -0.0009
    132  CD2      -20.7830   10.9260  -12.4530 C.ar  293  TYR293     -0.0009
    133  CE1      -18.2610   11.9670  -12.9090 C.ar  293  TYR293      0.0417
    134  CE2      -19.6640   10.3110  -11.8830 C.ar  293  TYR293      0.0417
    135  CZ       -18.4110   10.8460  -12.1180 C.ar  293  TYR293      0.1957
    136  OH       -17.2890   10.2780  -11.5620 O.3   293  TYR293     -0.2866
@<TRIPOS>BOND
     1     1     2    1
     2     7     6   ar
     3     2     3    1
     4     2     5    1
     5     6     8   ar
     6     6     5    1
     7     3     4    2
     8    41    43   ar
     9    41    39   ar
    10    43    42   ar
    11    71    70    2
    12    69    70    1
    13    69    68    1
    14    39    38   ar
    15   120   118    1
    16    70    72   am
    17   113   114    1
    18   128   127    2
    19    42    40   ar
    20   114   115    1
    21   114   117    1
    22   116   115    2
    23    38    40   ar
    24    38    37    1
    25   129   130    1
    26   129   126    1
    27   118   117    1
    28   118   119    1
    29    72    73    1
    30   127   126    1
    31   131   130   ar
    32   131   133   ar
    33   130   132   ar
    34    33    34    1
    35    33    31   am
    36    34    37    1
    37    34    35    1
    38    89    91   ar
    39    89    88   ar
    40    87    88    1
    41    87    84    1
    42    73    74    1
    43    73    76    1
    44   126   125    1
    45   133   135   ar
    46    83    74   am
    47    83    84    1
    48    91    93   ar
    49    88    90   ar
    50    78    80   ar
    51    78    77   ar
    52    29    30    1
    53   132   134   ar
    54    30    31    1
    55    74    75    2
    56    31    32    2
    57    84    85    1
    58    80    82   ar
    59   135   134   ar
    60   135   136    1
    61    76    77    1
    62    35    36    2
    63    35    44   am
    64    93    92   ar
    65    90    92   ar
    66    77    79   ar
    67    44    45    1
    68    82    81   ar
    69    67    66   ar
    70    67    65   ar
    71    85    86    2
    72    85    94   am
    73    95    96    1
    74    95    94    1
    75    95    98    1
    76    79    81   ar
    77    66    64   ar
    78    47    46    2
    79    97    96    2
    80    96   101   am
    81    46    45    1
    82   101   102    1
    83    65    63   ar
    84    94   100    1
    85   102   103    1
    86    45    48    1
    87    98    99    1
    88    64    63   ar
    89   109   106    1
    90   109   110    1
    91    63    62    1
    92    26    28   ar
    93    26    24   ar
    94   112   110   ar
    95   103   104    2
    96   108   107    2
    97    48    49    1
    98   100    99    1
    99    28    27   ar
   100   106   107    1
   101   106   105    1
   102    24    23    1
   103    24    25   ar
   104    23    20    1
   105   110   111   ar
   106   122   123    1
   107   122   121    1
   108   123   124    2
   109    27    25   ar
   110    62    59    1
   111    22    21    2
   112    21    20    1
   113    20    19    1
   114    59    58    1
   115    59    60    1
   116    56    55   ar
   117    19    11   am
   118    18    16   ar
   119    18    17   ar
   120    57    55   ar
   121    16    14   ar
   122    60    61    2
   123    55    54    1
   124    11    12    2
   125    11    10    1
   126    17    15   ar
   127     9    10    1
   128    14    15   ar
   129    14    13    1
   130    52    53    2
   131    52    51    1
   132    54    51    1
   133    10    13    1
   134    51    50    1
