@<TRIPOS>MOLECULE
tmp/6hsmH01.pdb
 75 70 0 0 0
SMALL
GASTEIGER

@<TRIPOS>ATOM
      1  N        -50.6180  -50.4980  205.6800 N.3    12  HIS12      -0.1241
      2  CA       -51.8720  -51.1680  206.0680 C.3    12  HIS12       0.1621
      3  C        -52.5160  -51.8670  204.8720 C.2    12  HIS12       0.2264
      4  O        -53.0250  -52.9810  205.0350 O.2    12  HIS12      -0.2867
      5  CB       -52.8740  -50.2070  206.7060 C.3    12  HIS12       0.0745
      6  CG       -52.6980  -50.0550  208.1830 C.ar   12  HIS12       0.0817
      7  ND1      -53.5780  -50.5890  209.1040 N.ar   12  HIS12      -0.2268
      8  CD2      -51.7470  -49.4100  208.8970 C.ar   12  HIS12       0.1154
      9  CE1      -53.1740  -50.2700  210.3190 C.ar   12  HIS12       0.1986
     10  NE2      -52.0560  -49.5600  210.2200 N.ar   12  HIS12      -0.2212
     11  N        -50.6660  -55.0630  203.9730 N.3    15  VAL15      -0.1231
     12  CA       -50.9940  -56.1020  204.9750 C.3    15  VAL15       0.1692
     13  C        -52.3550  -56.7330  204.6270 C.2    15  VAL15       0.2591
     14  O        -52.4170  -57.9610  204.4770 O.2    15  VAL15      -0.2718
     15  CB       -50.9270  -55.5790  206.4400 C.3    15  VAL15       0.0266
     16  CG1      -51.5780  -56.5430  207.4270 C.3    15  VAL15       0.0020
     17  CG2      -49.4870  -55.3400  206.8750 C.3    15  VAL15       0.0020
     18  N        -53.4200  -55.9410  204.4840 N.am   16  VAL16      -0.1980
     19  CA       -54.7710  -56.5350  204.2760 C.3    16  VAL16       0.1595
     20  C        -54.8470  -57.2560  202.9280 C.2    16  VAL16       0.2287
     21  O        -55.5850  -58.2250  202.8050 O.2    16  VAL16      -0.2864
     22  CB       -55.9310  -55.5230  204.4050 C.3    16  VAL16       0.0276
     23  CG1      -55.9440  -54.9080  205.7920 C.3    16  VAL16       0.0022
     24  CG2      -55.8850  -54.4480  203.3270 C.3    16  VAL16       0.0022
     25  N        -63.0550  -49.8840  203.5930 N.3    32  LEU32      -0.1231
     26  CA       -62.5770  -50.5760  204.8150 C.3    32  LEU32       0.1693
     27  C        -62.0640  -49.6180  205.8920 C.2    32  LEU32       0.2592
     28  O        -62.3160  -49.8450  207.0850 O.2    32  LEU32      -0.2718
     29  CB       -61.4440  -51.5580  204.4880 C.3    32  LEU32       0.0284
     30  CG       -60.8720  -52.3300  205.6850 C.3    32  LEU32       0.0019
     31  CD1      -61.9370  -53.2120  206.3300 C.3    32  LEU32       0.0001
     32  CD2      -59.6700  -53.1570  205.2700 C.3    32  LEU32       0.0001
     33  N        -61.3090  -48.6040  205.4830 N.am   33  HIS33      -0.1976
     34  CA       -60.6850  -47.6580  206.4240 C.3    33  HIS33       0.1656
     35  C        -61.4470  -46.3280  206.5260 C.2    33  HIS33       0.2291
     36  O        -60.8890  -45.3760  207.0810 O.2    33  HIS33      -0.2864
     37  CB       -59.2500  -47.3690  205.9970 C.3    33  HIS33       0.0771
     38  CG       -58.3350  -48.5490  206.0010 C.ar   33  HIS33       0.0820
     39  ND1      -58.1710  -49.3720  204.9010 N.ar   33  HIS33      -0.2267
     40  CD2      -57.4860  -49.0130  206.9450 C.ar   33  HIS33       0.1154
     41  CE1      -57.2730  -50.2990  205.1750 C.ar   33  HIS33       0.1986
     42  NE2      -56.8390  -50.1000  206.4130 N.ar   33  HIS33      -0.2212
     43  N        -49.5880  -59.5540  213.5840 N.3   139  VAL139     -0.1245
     44  CA       -51.0490  -59.3430  213.6500 C.3   139  VAL139      0.1561
     45  C        -51.7700  -60.6590  213.9900 C.2   139  VAL139      0.2260
     46  O        -52.6830  -60.6360  214.8350 O.2   139  VAL139     -0.2867
     47  CB       -51.5810  -58.7200  212.3450 C.3   139  VAL139      0.0252
     48  CG1      -53.0980  -58.7820  212.2630 C.3   139  VAL139      0.0019
     49  CG2      -51.1080  -57.2810  212.2110 C.3   139  VAL139      0.0019
     50  N        -53.8030  -60.0430  217.2730 N.3   143  SER143     -0.1217
     51  CA       -55.2340  -59.8810  216.9470 C.3   143  SER143      0.1889
     52  C        -55.9520  -61.2400  216.8180 C.2   143  SER143      0.2288
     53  O        -57.1970  -61.2860  216.8440 O.2   143  SER143     -0.2866
     54  CB       -55.3980  -59.0580  215.6770 C.3   143  SER143      0.2089
     55  OG       -54.6060  -57.8780  215.7290 O.3   143  SER143     -0.2183
     56  N        -58.3620  -62.7380  212.4050 N.3   147  ALA147     -0.1231
     57  CA       -58.4920  -61.2940  212.1270 C.3   147  ALA147      0.1694
     58  C        -58.2920  -60.9790  210.6430 C.2   147  ALA147      0.2591
     59  O        -59.2370  -60.5490  209.9820 O.2   147  ALA147     -0.2718
     60  CB       -57.5390  -60.4970  212.9890 C.3   147  ALA147      0.0304
     61  N        -57.0970  -61.2310  210.1140 N.am  148  LEU148     -0.1980
     62  CA       -56.7700  -60.8410  208.7220 C.3   148  LEU148      0.1596
     63  C        -57.6290  -61.5890  207.6950 C.2   148  LEU148      0.2287
     64  O        -58.1000  -60.9700  206.7440 O.2   148  LEU148     -0.2864
     65  CB       -55.2630  -60.9840  208.4320 C.3   148  LEU148      0.0297
     66  CG       -54.3850  -59.8400  208.9530 C.3   148  LEU148      0.0022
     67  CD1      -52.9170  -60.2440  208.9560 C.3   148  LEU148      0.0001
     68  CD2      -54.5840  -58.5640  208.1450 C.3   148  LEU148      0.0001
     69  N        -60.9750  -59.7790  207.5300 N.3   151  VAL151     -0.1245
     70  CA       -60.8260  -58.5330  206.7470 C.3   151  VAL151      0.1561
     71  C        -60.7980  -58.8890  205.2600 C.2   151  VAL151      0.2260
     72  O        -61.4860  -58.2490  204.4650 O.2   151  VAL151     -0.2867
     73  CB       -59.5420  -57.7620  207.1250 C.3   151  VAL151      0.0252
     74  CG1      -59.3190  -56.5610  206.2090 C.3   151  VAL151      0.0019
     75  CG2      -59.5780  -57.3210  208.5810 C.3   151  VAL151      0.0019
@<TRIPOS>BOND
     1    21    20    2
     2    20    19    1
     3    24    22    1
     4    25    26    1
     5    11    12    1
     6    19    22    1
     7    19    18    1
     8    22    23    1
     9    72    71    2
    10    14    13    2
    11    18    13   am
    12    29    26    1
    13    29    30    1
    14    13    12    1
    15    26    27    1
    16     3     4    2
    17     3     2    1
    18    39    41   ar
    19    39    38   ar
    20    12    15    1
    21    41    42   ar
    22    71    70    1
    23    32    30    1
    24    33    27   am
    25    33    34    1
    26     1     2    1
    27    30    31    1
    28    27    28    2
    29    37    38    1
    30    37    34    1
    31    38    40   ar
    32     2     5    1
    33    74    73    1
    34    42    40   ar
    35    34    35    1
    36    15    17    1
    37    15    16    1
    38    35    36    2
    39     5     6    1
    40    64    63    2
    41    70    73    1
    42    70    69    1
    43    73    75    1
    44    63    62    1
    45    68    66    1
    46     6     8   ar
    47     6     7   ar
    48    65    62    1
    49    65    66    1
    50    62    61    1
    51     8    10   ar
    52    66    67    1
    53     7     9   ar
    54    59    58    2
    55    61    58   am
    56    10     9   ar
    57    58    57    1
    58    57    56    1
    59    57    60    1
    60    49    47    1
    61    48    47    1
    62    47    44    1
    63    43    44    1
    64    44    45    1
    65    45    46    2
    66    54    55    1
    67    54    51    1
    68    52    53    2
    69    52    51    1
    70    51    50    1
