@<TRIPOS>MOLECULE
tmp/6hsmH02.pdb
 121 117 0 0 0
SMALL
GASTEIGER

@<TRIPOS>ATOM
      1  N        -38.2130  -33.5700  209.6970 N.3     1  MET1       -0.1245
      2  CA       -38.6140  -34.3020  208.4740 C.3     1  MET1        0.1570
      3  C        -39.8270  -35.1630  208.7990 C.2     1  MET1        0.2261
      4  O        -39.9740  -35.6270  209.9350 O.2     1  MET1       -0.2867
      5  CB       -37.4640  -35.1510  207.9060 C.3     1  MET1        0.0387
      6  CG       -37.4110  -36.6080  208.3430 C.3     1  MET1        0.0595
      7  SD       -35.9800  -37.4850  207.6310 S.3     1  MET1       -0.1393
      8  CE       -36.8140  -38.8020  206.7330 C.3     1  MET1        0.0692
      9  N        -42.1530  -38.3850  207.0470 N.3     3  LEU3       -0.1245
     10  CA       -42.5380  -39.3410  205.9990 C.3     3  LEU3        0.1561
     11  C        -43.9520  -38.9980  205.5990 C.2     3  LEU3        0.2260
     12  O        -44.7860  -38.6920  206.4630 O.2     3  LEU3       -0.2867
     13  CB       -42.5040  -40.7910  206.4830 C.3     3  LEU3        0.0270
     14  CG       -41.1480  -41.4350  206.7720 C.3     3  LEU3        0.0019
     15  CD1      -41.3500  -42.8640  207.2220 C.3     3  LEU3        0.0001
     16  CD2      -40.2110  -41.3910  205.5740 C.3     3  LEU3        0.0001
     17  N        -38.8200  -50.9510  203.7680 N.3    75  LEU75      -0.1245
     18  CA       -37.9910  -50.0550  202.9450 C.3    75  LEU75       0.1561
     19  C        -38.5890  -49.9060  201.5480 C.2    75  LEU75       0.2260
     20  O        -38.6550  -48.7770  201.0430 O.2    75  LEU75      -0.2867
     21  CB       -36.5420  -50.5570  202.8670 C.3    75  LEU75       0.0270
     22  CG       -35.5940  -49.7090  202.0090 C.3    75  LEU75       0.0019
     23  CD1      -35.5860  -48.2570  202.4670 C.3    75  LEU75       0.0001
     24  CD2      -34.1870  -50.2970  202.0130 C.3    75  LEU75       0.0001
     25  N        -41.6780  -47.6210  201.8830 N.3    78  VAL78      -0.1231
     26  CA       -41.2600  -46.2500  202.2340 C.3    78  VAL78       0.1692
     27  C        -40.7560  -45.5730  200.9650 C.2    78  VAL78       0.2591
     28  O        -41.1990  -44.4530  200.6670 O.2    78  VAL78      -0.2718
     29  CB       -40.2060  -46.2160  203.3660 C.3    78  VAL78       0.0266
     30  CG1      -39.5440  -44.8470  203.4980 C.3    78  VAL78       0.0020
     31  CG2      -40.8560  -46.6060  204.6840 C.3    78  VAL78       0.0020
     32  N        -39.9040  -46.2680  200.2050 N.am   79  GLN79      -0.1979
     33  CA       -39.2870  -45.6750  199.0000 C.3    79  GLN79       0.1601
     34  C        -40.2930  -45.4370  197.8880 C.2    79  GLN79       0.2287
     35  O        -40.1660  -44.4300  197.1690 O.2    79  GLN79      -0.2864
     36  CB       -38.1310  -46.5190  198.4930 C.3    79  GLN79       0.0394
     37  CG       -36.9340  -46.3900  199.4060 C.3    79  GLN79       0.0908
     38  CD       -35.7280  -47.0950  198.8740 C.2    79  GLN79       0.2608
     39  OE1      -35.7990  -47.8410  197.8960 O.2    79  GLN79      -0.2717
     40  NE2      -34.6000  -46.8510  199.5130 N.am   79  GLN79      -0.0878
     41  N        -42.7980  -42.4430  199.6310 N.3    82  ASP82      -0.1225
     42  CA       -42.1440  -41.2320  200.1320 C.3    82  ASP82       0.1805
     43  C        -40.9480  -40.8060  199.2970 C.2    82  ASP82       0.2598
     44  O        -40.5100  -39.6690  199.4480 O.2    82  ASP82      -0.2718
     45  CB       -41.7160  -41.4230  201.5790 C.3    82  ASP82       0.1424
     46  CG       -41.5060  -40.1040  202.2870 C.2    82  ASP82       0.3668
     47  OD1      -42.3830  -39.2240  202.1880 O.co2  82  ASP82      -0.2456
     48  OD2      -40.4550  -39.9530  202.9330 O.co2  82  ASP82      -0.2456
     49  N        -40.4280  -41.6940  198.4520 N.am   83  GLY83      -0.1943
     50  CA       -39.3560  -41.3570  197.5200 C.3    83  GLY83       0.1998
     51  C        -38.0870  -42.1240  197.8450 C.2    83  GLY83       0.2481
     52  O        -37.8910  -42.5270  198.9880 O.2    83  GLY83      -0.2729
     53  N        -37.2060  -42.3360  196.8430 N.am   84  PRO84      -0.2715
     54  CA       -36.0060  -43.1620  197.0170 C.3    84  PRO84       0.1536
     55  C        -34.7450  -42.4220  197.5080 C.2    84  PRO84       0.2599
     56  O        -33.7990  -43.0780  197.9420 O.2    84  PRO84      -0.2715
     57  CB       -35.7720  -43.6750  195.5900 C.3    84  PRO84       0.0310
     58  CG       -36.1860  -42.5130  194.7300 C.3    84  PRO84       0.0237
     59  CD       -37.3130  -41.8220  195.4610 C.3    84  PRO84       0.0939
     60  N        -34.7330  -41.0900  197.4240 N.am   85  ASP85      -0.1959
     61  CA       -33.5190  -40.2810  197.7100 C.3    85  ASP85       0.1825
     62  C        -33.2600  -40.2190  199.2190 C.2    85  ASP85       0.2464
     63  O        -34.2070  -40.2550  199.9900 O.2    85  ASP85      -0.2730
     64  CB       -33.6380  -38.8730  197.1030 C.3    85  ASP85       0.1450
     65  CG       -34.9390  -38.1700  197.4670 C.2    85  ASP85       0.3671
     66  OD1      -36.0190  -38.8140  197.3290 O.co2  85  ASP85      -0.2456
     67  OD2      -34.8700  -36.9900  197.8870 O.co2  85  ASP85      -0.2456
     68  N        -31.9810  -40.1430  199.6650 N.am   86  PRO86      -0.2715
     69  CA       -31.6920  -40.2200  201.1080 C.3    86  PRO86       0.1536
     70  C        -32.1210  -38.9780  201.8970 C.2    86  PRO86       0.2598
     71  O        -32.2260  -37.9050  201.3300 O.2    86  PRO86      -0.2715
     72  CB       -30.1650  -40.3850  201.1590 C.3    86  PRO86       0.0310
     73  CG       -29.6890  -39.7170  199.9080 C.3    86  PRO86       0.0237
     74  CD       -30.7450  -40.0210  198.8720 C.3    86  PRO86       0.0939
     75  N        -32.4000  -39.1720  203.1840 N.am   87  ALA87      -0.1978
     76  CA       -32.5870  -38.0970  204.1660 C.3    87  ALA87       0.1597
     77  C        -31.5010  -37.0270  204.0240 C.2    87  ALA87       0.2287
     78  O        -31.8210  -35.8380  203.9550 O.2    87  ALA87      -0.2864
     79  CB       -32.5860  -38.6700  205.5750 C.3    87  ALA87       0.0319
     80  N        -28.0110  -43.3820  207.8730 N.3   120  GLU120     -0.1245
     81  CA       -29.0050  -43.6560  206.8160 C.3   120  GLU120      0.1567
     82  C        -29.0050  -45.1470  206.4520 C.2   120  GLU120      0.2260
     83  O        -30.0810  -45.7140  206.2480 O.2   120  GLU120     -0.2867
     84  CB       -28.7380  -42.7470  205.6030 C.3   120  GLU120      0.0388
     85  CG       -29.4050  -43.1450  204.2900 C.3   120  GLU120      0.1160
     86  CD       -30.7700  -42.5170  204.0600 C.2   120  GLU120      0.3649
     87  OE1      -31.1050  -41.5370  204.7550 O.co2 120  GLU120     -0.2457
     88  OE2      -31.5010  -43.0130  203.1770 O.co2 120  GLU120     -0.2457
     89  N        -30.7960  -47.0130  209.1970 N.3   123  TRP123     -0.1227
     90  CA       -32.2520  -46.8380  208.9980 C.3   123  TRP123      0.1737
     91  C        -32.7530  -47.7810  207.8920 C.2   123  TRP123      0.2595
     92  O        -33.7310  -48.4830  208.1060 O.2   123  TRP123     -0.2718
     93  CB       -32.5930  -45.3870  208.6290 C.3   123  TRP123      0.0564
     94  CG       -34.0190  -44.9610  208.8760 C.ar  123  TRP123      0.0003
     95  CD1      -35.0790  -45.7450  209.2360 C.ar  123  TRP123      0.0946
     96  CD2      -34.5300  -43.6210  208.7820 C.ar  123  TRP123      0.0152
     97  NE1      -36.2100  -44.9840  209.3700 N.ar  123  TRP123     -0.2442
     98  CE2      -35.9040  -43.6770  209.0930 C.ar  123  TRP123      0.0810
     99  CE3      -33.9540  -42.3720  208.4730 C.ar  123  TRP123      0.0012
    100  CZ2      -36.7090  -42.5250  209.1180 C.ar  123  TRP123      0.0191
    101  CZ3      -34.7520  -41.2360  208.4810 C.ar  123  TRP123      0.0001
    102  CH2      -36.1140  -41.3190  208.8060 C.ar  123  TRP123      0.0015
    103  N        -32.1000  -47.7720  206.7290 N.am  124  ARG124     -0.1980
    104  CA       -32.4740  -48.6470  205.5940 C.3   124  ARG124      0.1597
    105  C        -32.4180  -50.1280  205.9540 C.2   124  ARG124      0.2287
    106  O        -33.2970  -50.8740  205.5350 O.2   124  ARG124     -0.2864
    107  CB       -31.5730  -48.4250  204.3800 C.3   124  ARG124      0.0334
    108  CG       -31.9260  -47.1930  203.5880 C.3   124  ARG124      0.0492
    109  CD       -30.8170  -46.8240  202.6310 C.3   124  ARG124      0.2205
    110  NE       -31.0940  -45.5070  202.0750 N.pl3 124  ARG124     -0.0865
    111  CZ       -31.6490  -45.2570  200.8910 C.cat 124  ARG124      0.5346
    112  NH1      -31.9900  -46.2430  200.0680 N.pl3 124  ARG124      0.1354
    113  NH2      -31.8520  -43.9940  200.5210 N.pl3 124  ARG124      0.1354
    114  N        -35.3620  -50.9460  208.1160 N.3   127  LEU127     -0.1245
    115  CA       -36.5290  -50.9760  207.2120 C.3   127  LEU127      0.1561
    116  C        -36.4840  -52.2060  206.2770 C.2   127  LEU127      0.2260
    117  O        -37.5300  -52.8180  205.9930 O.2   127  LEU127     -0.2867
    118  CB       -36.6030  -49.6670  206.4090 C.3   127  LEU127      0.0270
    119  CG       -36.9620  -48.3760  207.1570 C.3   127  LEU127      0.0019
    120  CD1      -36.8300  -47.1540  206.2560 C.3   127  LEU127      0.0001
    121  CD2      -38.3730  -48.4270  207.7240 C.3   127  LEU127      0.0001
@<TRIPOS>BOND
     1    58    59    1
     2    58    57    1
     3    59    53    1
     4    57    54    1
     5    53    54    1
     6    53    51   am
     7    54    55    1
     8    64    65    1
     9    64    61    1
    10    35    34    2
    11    66    65   ar
    12    60    55   am
    13    60    61    1
    14    65    67   ar
    15    55    56    2
    16    50    51    1
    17    50    49    1
    18    61    62    1
    19    51    52    2
    20    34    33    1
    21    39    38    2
    22    49    43   am
    23    36    33    1
    24    36    37    1
    25    74    68    1
    26    74    73    1
    27    38    37    1
    28    38    40   am
    29    33    32    1
    30    62    68   am
    31    62    63    2
    32    43    44    2
    33    43    42    1
    34    41    42    1
    35    68    69    1
    36    73    72    1
    37   112   111    1
    38    42    45    1
    39    32    27   am
    40   113   111    1
    41    28    27    2
    42   111   110    2
    43    27    26    1
    44    20    19    2
    45    69    72    1
    46    69    70    1
    47    71    70    2
    48    19    18    1
    49    45    46    1
    50    25    26    1
    51    70    75   am
    52    22    24    1
    53    22    23    1
    54    22    21    1
    55   110   109    1
    56    47    46   ar
    57    26    29    1
    58    46    48   ar
    59   109   108    1
    60    21    18    1
    61    18    17    1
    62    88    86   ar
    63    75    76    1
    64    29    30    1
    65    29    31    1
    66   108   107    1
    67    78    77    2
    68    77    76    1
    69    86    85    1
    70    86    87   ar
    71    76    79    1
    72    85    84    1
    73   107   104    1
    74   106   105    2
    75    16    14    1
    76   104   105    1
    77   104   103    1
    78    11    10    1
    79    11    12    2
    80    84    81    1
    81   117   116    2
    82    10    13    1
    83    10     9    1
    84    83    82    2
    85   120   119    1
    86   116   115    1
    87   118   119    1
    88   118   115    1
    89    82    81    1
    90    13    14    1
    91   103    91   am
    92     8     7    1
    93    14    15    1
    94    81    80    1
    95   119   121    1
    96   115   114    1
    97     7     6    1
    98    91    92    2
    99    91    90    1
   100     5     6    1
   101     5     2    1
   102    99   101   ar
   103    99    96   ar
   104     2     3    1
   105     2     1    1
   106   101   102   ar
   107    93    94    1
   108    93    90    1
   109    96    94   ar
   110    96    98   ar
   111     3     4    2
   112   102   100   ar
   113    94    95   ar
   114    90    89    1
   115    98   100   ar
   116    98    97   ar
   117    95    97   ar
