@<TRIPOS>MOLECULE
tmp/6hspB00.pdb
 216 208 0 0 0
SMALL
GASTEIGER

@<TRIPOS>ATOM
      1  N         93.6830   28.3540  128.2410 N.3    15  LYS15      -0.1245
      2  CA        94.0490   29.5420  127.4790 C.3    15  LYS15       0.1561
      3  C         95.4790   29.9850  127.9030 C.2    15  LYS15       0.2260
      4  O         95.8120   29.9070  129.0910 O.2    15  LYS15      -0.2867
      5  CB        93.0330   30.6860  127.7520 C.3    15  LYS15       0.0271
      6  CG        93.4240   31.9770  127.0430 C.3    15  LYS15       0.0035
      7  CD        92.2960   32.9930  126.8780 C.3    15  LYS15       0.0206
      8  CE        91.7200   33.4310  128.2010 C.3    15  LYS15       0.1093
      9  NZ        91.0270   34.7400  128.0130 N.3    15  LYS15      -0.1314
     10  N        107.6180   24.4940  120.0460 N.3    54  TYR54      -0.1241
     11  CA       108.1850   25.7950  120.3460 C.3    54  TYR54       0.1605
     12  C        109.1600   25.6800  121.5190 C.2    54  TYR54       0.2264
     13  O        108.7760   25.3200  122.6450 O.2    54  TYR54      -0.2867
     14  CB       107.0810   26.7740  120.7010 C.3    54  TYR54       0.0534
     15  CG       106.1040   26.9760  119.5730 C.ar   54  TYR54      -0.0201
     16  CD1      106.5220   27.4530  118.3270 C.ar   54  TYR54      -0.0009
     17  CD2      104.7620   26.7260  119.7600 C.ar   54  TYR54      -0.0009
     18  CE1      105.6190   27.6120  117.2940 C.ar   54  TYR54       0.0417
     19  CE2      103.8510   26.8870  118.7430 C.ar   54  TYR54       0.0417
     20  CZ       104.2740   27.3380  117.5210 C.ar   54  TYR54       0.1957
     21  OH       103.3350   27.4920  116.5460 O.3    54  TYR54      -0.2866
     22  N        105.0390   19.4870  113.7460 N.3    81  ASN81      -0.1225
     23  CA       103.9450   20.4130  113.8480 C.3    81  ASN81       0.1785
     24  C        102.7760   19.7940  114.6540 C.2    81  ASN81       0.2597
     25  O        103.0480   19.2610  115.7280 O.2    81  ASN81      -0.2718
     26  CB       103.5410   20.9310  112.4370 C.3    81  ASN81       0.1169
     27  CG       104.3720   22.0850  112.0250 C.2    81  ASN81       0.2627
     28  OD1      104.7960   22.8570  112.8830 O.2    81  ASN81      -0.2716
     29  ND2      104.6260   22.2270  110.7300 N.am   81  ASN81      -0.0877
     30  N        101.5360   19.8170  114.1730 N.am   82  CYS82      -0.1970
     31  CA       100.3820   19.3960  115.0090 C.3    82  CYS82       0.1712
     32  C        100.2740   17.9280  115.3650 C.2    82  CYS82       0.2296
     33  O         99.5110   17.5500  116.2960 O.2    82  CYS82      -0.2864
     34  CB        99.0900   19.8450  114.3570 C.3    82  CYS82       0.0983
     35  SG        99.1830   21.6080  113.9950 S.3    82  CYS82      -0.0798
     36  N        102.1780   28.2320  124.2970 N.3   112  MET112     -0.1230
     37  CA       101.8800   29.0250  123.0840 C.3   112  MET112      0.1702
     38  C        101.5010   30.4370  123.5170 C.2   112  MET112      0.2592
     39  O        101.8040   30.8510  124.6410 O.2   112  MET112     -0.2718
     40  CB       100.7240   28.3820  122.2740 C.3   112  MET112      0.0401
     41  CG       100.8410   26.8470  122.1030 C.3   112  MET112      0.0596
     42  SD        99.8240   26.0470  120.8120 S.3   112  MET112     -0.1393
     43  CE        99.8850   27.1960  119.4170 C.3   112  MET112      0.0692
     44  N        100.8700   31.1890  122.6260 N.am  113  GLU113     -0.1979
     45  CA       100.4030   32.5340  122.9220 C.3   113  GLU113      0.1602
     46  C         99.0500   32.7130  122.2450 C.2   113  GLU113      0.2287
     47  O         98.6560   31.8710  121.4280 O.2   113  GLU113     -0.2864
     48  CB       101.4200   33.5650  122.4060 C.3   113  GLU113      0.0415
     49  CG       102.7300   33.5810  123.1780 C.3   113  GLU113      0.1163
     50  CD       103.7610   34.5030  122.5740 C.2   113  GLU113      0.3649
     51  OE1      103.4360   35.6900  122.3270 O.co2 113  GLU113     -0.2457
     52  OE2      104.9040   34.0380  122.3570 O.co2 113  GLU113     -0.2457
     53  N         94.4940   34.7980  109.4030 N.3   138  PRO138     -0.2116
     54  CA        95.5660   33.8140  109.6120 C.3   138  PRO138      0.1372
     55  C         95.5680   32.7020  108.5610 C.2   138  PRO138      0.2244
     56  O         94.5240   32.4280  107.9850 O.2   138  PRO138     -0.2868
     57  CB        95.2430   33.2510  110.9950 C.3   138  PRO138      0.0268
     58  CG        94.6460   34.4280  111.6950 C.3   138  PRO138      0.0207
     59  CD        93.8040   35.1090  110.6720 C.3   138  PRO138      0.0892
     60  N         96.1610   29.2870  108.7760 N.3   140  ALA140     -0.1231
     61  CA        95.5290   27.9930  109.0840 C.3   140  ALA140      0.1679
     62  C         94.0390   27.9040  108.7420 C.2   140  ALA140      0.2434
     63  O         93.6380   26.9980  108.0330 O.2   140  ALA140     -0.2733
     64  CB        95.8080   27.5520  110.5170 C.3   140  ALA140      0.0304
     65  N         93.2010   28.8700  109.1710 N.am  141  PRO141     -0.2729
     66  CA        91.7790   28.7500  108.8280 C.3   141  PRO141      0.1401
     67  C         91.5120   28.8270  107.3140 C.2   141  PRO141      0.2269
     68  O         90.5670   28.1990  106.8200 O.2   141  PRO141     -0.2865
     69  CB        91.1350   29.9400  109.5440 C.3   141  PRO141      0.0296
     70  CG        92.2370   30.8040  109.9850 C.3   141  PRO141      0.0237
     71  CD        93.4380   29.9420  110.1540 C.3   141  PRO141      0.0939
     72  N         81.4250   20.8240  120.6990 N.3   170  HIS170     -0.1241
     73  CA        81.1840   21.6320  121.9030 C.3   170  HIS170      0.1621
     74  C         80.2100   20.9410  122.8530 C.2   170  HIS170      0.2264
     75  O         80.3880   21.0400  124.0590 O.2   170  HIS170     -0.2867
     76  CB        80.6760   23.0300  121.5150 C.3   170  HIS170      0.0745
     77  CG        81.7450   23.9370  121.0140 C.ar  170  HIS170      0.0817
     78  ND1       82.6740   24.5360  121.8450 N.ar  170  HIS170     -0.2268
     79  CD2       82.0310   24.3630  119.7640 C.ar  170  HIS170      0.1154
     80  CE1       83.4740   25.2900  121.1240 C.ar  170  HIS170      0.1986
     81  NE2       83.1070   25.2010  119.8620 N.ar  170  HIS170     -0.2212
     82  N         89.5280   23.2530  127.4690 N.3   180  GLN180     -0.1231
     83  CA        89.5340   24.6840  127.5980 C.3   180  GLN180      0.1698
     84  C         88.1070   25.2570  127.5980 C.2   180  GLN180      0.2592
     85  O         87.7660   26.0580  128.4730 O.2   180  GLN180     -0.2718
     86  CB        90.3730   25.3730  126.5150 C.3   180  GLN180      0.0381
     87  CG        90.4060   26.8550  126.8030 C.3   180  GLN180      0.0905
     88  CD        91.2000   27.7260  125.8420 C.2   180  GLN180      0.2608
     89  OE1       92.1220   27.2800  125.1440 O.2   180  GLN180     -0.2717
     90  NE2       90.8240   29.0350  125.8190 N.am  180  GLN180     -0.0878
     91  N         87.2820   24.8450  126.6440 N.am  181  PHE181     -0.1976
     92  CA        85.8770   25.2660  126.5830 C.3   181  PHE181      0.1639
     93  C         84.9330   24.1250  126.9160 C.2   181  PHE181      0.2290
     94  O         85.0230   23.0590  126.3250 O.2   181  PHE181     -0.2864
     95  CB        85.5840   25.8510  125.2140 C.3   181  PHE181      0.0560
     96  CG        86.3760   27.0910  124.9300 C.ar  181  PHE181     -0.0200
     97  CD1       86.1050   28.2420  125.6130 C.ar  181  PHE181     -0.0042
     98  CD2       87.4020   27.0920  124.0230 C.ar  181  PHE181     -0.0042
     99  CE1       86.8350   29.3940  125.3800 C.ar  181  PHE181     -0.0003
    100  CE2       88.1310   28.2460  123.7830 C.ar  181  PHE181     -0.0003
    101  CZ        87.8360   29.3930  124.4550 C.ar  181  PHE181     -0.0000
    102  N         76.7330   25.0350  123.0680 N.3   185  TYR185     -0.1241
    103  CA        76.1980   26.1370  122.2820 C.3   185  TYR185      0.1605
    104  C         75.1000   25.5180  121.4630 C.2   185  TYR185      0.2264
    105  O         75.1460   24.3150  121.1440 O.2   185  TYR185     -0.2867
    106  CB        77.3020   26.7470  121.4090 C.3   185  TYR185      0.0534
    107  CG        78.3810   27.4020  122.2110 C.ar  185  TYR185     -0.0201
    108  CD1       78.2470   28.6980  122.6560 C.ar  185  TYR185     -0.0009
    109  CD2       79.5590   26.7180  122.5320 C.ar  185  TYR185     -0.0009
    110  CE1       79.2580   29.3200  123.4010 C.ar  185  TYR185      0.0417
    111  CE2       80.5640   27.3130  123.2800 C.ar  185  TYR185      0.0417
    112  CZ        80.4100   28.6230  123.7150 C.ar  185  TYR185      0.1957
    113  OH        81.4040   29.2310  124.4490 O.3   185  TYR185     -0.2866
    114  N         81.4800   34.9030  115.5690 N.3   194  ARG194     -0.1245
    115  CA        82.2950   35.8100  114.7430 C.3   194  ARG194      0.1563
    116  C         82.9050   35.1130  113.5090 C.2   194  ARG194      0.2260
    117  O         83.5080   34.0550  113.6300 O.2   194  ARG194     -0.2867
    118  CB        83.3900   36.3840  115.6440 C.3   194  ARG194      0.0307
    119  CG        84.5390   37.0960  114.9550 C.3   194  ARG194      0.0489
    120  CD        85.3090   37.9940  115.8950 C.3   194  ARG194      0.2205
    121  NE        85.9760   37.3400  117.0270 N.pl3 194  ARG194     -0.0865
    122  CZ        87.1680   36.7350  116.9840 C.cat 194  ARG194      0.5346
    123  NH1       87.6800   36.2090  118.1020 N.pl3 194  ARG194      0.1354
    124  NH2       87.8550   36.6320  115.8390 N.pl3 194  ARG194      0.1354
    125  N         85.4850   34.0330  110.8540 N.3   196  VAL196     -0.1245
    126  CA        86.9530   33.9710  110.7920 C.3   196  VAL196      0.1561
    127  C         87.4000   33.9380  109.3160 C.2   196  VAL196      0.2260
    128  O         88.2880   34.6820  108.9320 O.2   196  VAL196     -0.2867
    129  CB        87.5180   32.7260  111.5090 C.3   196  VAL196      0.0252
    130  CG1       89.0300   32.6070  111.2920 C.3   196  VAL196      0.0019
    131  CG2       87.1750   32.7780  112.9980 C.3   196  VAL196      0.0019
    132  N         84.0380   31.4510  114.6000 N.3   202  LEU202     -0.1231
    133  CA        84.9800   31.2260  115.7020 C.3   202  LEU202      0.1693
    134  C         84.7850   29.8530  116.3780 C.2   202  LEU202      0.2591
    135  O         85.7760   29.1550  116.7350 O.2   202  LEU202     -0.2718
    136  CB        84.8440   32.3310  116.7590 C.3   202  LEU202      0.0284
    137  CG        85.9530   32.4220  117.8130 C.3   202  LEU202      0.0019
    138  CD1       87.3500   32.5930  117.2230 C.3   202  LEU202      0.0001
    139  CD2       85.6460   33.5840  118.7330 C.3   202  LEU202      0.0001
    140  N         83.5290   29.4720  116.5470 N.am  203  LEU203     -0.1980
    141  CA        83.2140   28.2360  117.2970 C.3   203  LEU203      0.1596
    142  C         83.4740   26.9930  116.4700 C.2   203  LEU203      0.2287
    143  O         83.2960   25.8980  116.9670 O.2   203  LEU203     -0.2864
    144  CB        81.7790   28.2720  117.8320 C.3   203  LEU203      0.0297
    145  CG        81.5550   29.3300  118.9340 C.3   203  LEU203      0.0022
    146  CD1       80.1270   29.2140  119.4580 C.3   203  LEU203      0.0001
    147  CD2       82.5650   29.1760  120.0640 C.3   203  LEU203      0.0001
    148  N         86.5770   26.7410  114.9800 N.3   205  CYS205     -0.1221
    149  CA        88.0380   26.7950  114.9600 C.3   205  CYS205      0.1808
    150  C         88.5850   26.3650  116.3250 C.2   205  CYS205      0.2601
    151  O         88.0520   26.7480  117.3650 O.2   205  CYS205     -0.2717
    152  CB        88.5070   28.2170  114.7160 C.3   205  CYS205      0.0970
    153  SG        87.9340   28.9720  113.1580 S.3   205  CYS205     -0.0800
    154  N         89.6770   25.6160  116.3230 N.am  206  CYS206     -0.1956
    155  CA        90.3730   25.2960  117.5600 C.3   206  CYS206      0.1828
    156  C         91.0320   26.5580  118.0930 C.2   206  CYS206      0.2467
    157  O         91.5340   27.3570  117.3040 O.2   206  CYS206     -0.2730
    158  CB        91.3870   24.1670  117.3670 C.3   206  CYS206      0.0996
    159  SG        92.8710   24.5350  116.3800 S.3   206  CYS206     -0.0797
    160  N         90.9910   26.7690  119.4110 N.am  207  PRO207     -0.2715
    161  CA        91.7730   27.8280  120.0510 C.3   207  PRO207      0.1536
    162  C         93.2050   27.3740  120.3120 C.2   207  PRO207      0.2599
    163  O         93.4840   26.1630  120.2470 O.2   207  PRO207     -0.2715
    164  CB        91.0360   28.0470  121.3600 C.3   207  PRO207      0.0310
    165  CG        90.5530   26.6600  121.7200 C.3   207  PRO207      0.0237
    166  CD        90.2520   25.9650  120.4100 C.3   207  PRO207      0.0939
    167  N         94.1150   28.3240  120.5660 N.am  208  THR208     -0.1951
    168  CA        95.4020   28.0010  121.1560 C.3   208  THR208      0.1897
    169  C         95.1580   27.6670  122.6390 C.2   208  THR208      0.2313
    170  O         94.3960   28.3350  123.3060 O.2   208  THR208     -0.2863
    171  CB        96.4540   29.1230  120.9850 C.3   208  THR208      0.1794
    172  OG1       95.9990   30.3380  121.6170 O.3   208  THR208     -0.2208
    173  CG2       96.7200   29.3610  119.5000 C.3   208  THR208      0.0378
    174  N         91.0560   20.3410  113.8580 N.3   288  CYS288     -0.1221
    175  CA        91.6320   21.6970  114.0270 C.3   288  CYS288      0.1808
    176  C         90.6310   22.7420  113.5620 C.2   288  CYS288      0.2601
    177  O         90.5650   23.8460  114.1370 O.2   288  CYS288     -0.2717
    178  CB        92.9580   21.8880  113.2900 C.3   288  CYS288      0.0970
    179  SG        92.9380   21.3300  111.5810 S.3   288  CYS288     -0.0800
    180  N         89.8810   22.3850  112.5220 N.am  289  PHE289     -0.1976
    181  CA        88.6980   23.1360  112.1110 C.3   289  PHE289      0.1639
    182  C         87.5830   22.1620  111.8080 C.2   289  PHE289      0.2290
    183  O         87.8200   20.9720  111.5130 O.2   289  PHE289     -0.2864
    184  CB        89.0210   24.0530  110.8950 C.3   289  PHE289      0.0560
    185  CG        90.1110   25.0190  111.1790 C.ar  289  PHE289     -0.0200
    186  CD1       91.4390   24.6400  111.0080 C.ar  289  PHE289     -0.0042
    187  CD2       89.8300   26.2750  111.7260 C.ar  289  PHE289     -0.0042
    188  CE1       92.4770   25.4910  111.3370 C.ar  289  PHE289     -0.0003
    189  CE2       90.8710   27.1480  112.0390 C.ar  289  PHE289     -0.0003
    190  CZ        92.1940   26.7490  111.8480 C.ar  289  PHE289     -0.0000
    191  N         88.5350   21.5170  118.7490 N.3   332  ILE332     -0.1245
    192  CA        87.6240   22.6520  118.6810 C.3   332  ILE332      0.1561
    193  C         87.2160   23.1980  120.0540 C.2   332  ILE332      0.2260
    194  O         87.1720   24.4310  120.2400 O.2   332  ILE332     -0.2867
    195  CB        86.3740   22.2910  117.8510 C.3   332  ILE332      0.0252
    196  CG1       86.7390   22.4020  116.3680 C.3   332  ILE332      0.0019
    197  CG2       85.1970   23.2350  118.1260 C.3   332  ILE332      0.0019
    198  CD1       85.7640   21.7080  115.4400 C.3   332  ILE332      0.0001
    199  N         94.3690   23.2290  121.4300 N.3   336  HIS336     -0.1241
    200  CA        95.3590   22.5010  120.6400 C.3   336  HIS336      0.1621
    201  C         96.7690   23.0150  121.0330 C.2   336  HIS336      0.2264
    202  O         97.3330   23.8710  120.3400 O.2   336  HIS336     -0.2867
    203  CB        95.0120   22.7050  119.1670 C.3   336  HIS336      0.0745
    204  CG        95.9370   22.0420  118.1910 C.ar  336  HIS336      0.0817
    205  ND1       96.6530   20.9010  118.4790 N.ar  336  HIS336     -0.2268
    206  CD2       96.2750   22.3870  116.9250 C.ar  336  HIS336      0.1154
    207  CE1       97.3600   20.5500  117.4130 C.ar  336  HIS336      0.1986
    208  NE2       97.1690   21.4540  116.4660 N.ar  336  HIS336     -0.2212
    209  N        100.2300   22.2740  120.5430 N.3   338  LEU338     -0.1245
    210  CA       100.7540   21.4180  119.4290 C.3   338  LEU338      0.1561
    211  C        101.3950   20.1180  119.9040 C.2   338  LEU338      0.2260
    212  O        100.9340   19.0420  119.5030 O.2   338  LEU338     -0.2867
    213  CB       101.7440   22.1730  118.5480 C.3   338  LEU338      0.0270
    214  CG       101.3110   23.5290  117.9280 C.3   338  LEU338      0.0019
    215  CD1      102.2500   23.9270  116.8100 C.3   338  LEU338      0.0001
    216  CD2       99.8910   23.5500  117.4170 C.3   338  LEU338      0.0001
@<TRIPOS>BOND
     1    68    67    2
     2    67    66    1
     3    56    55    2
     4    63    62    2
     5    55    54    1
     6    62    61    1
     7    62    65   am
     8    60    61    1
     9    66    65    1
    10    66    69    1
    11   128   127    2
    12    61    64    1
    13    65    71    1
    14   127   126    1
    15    53    54    1
    16    53    59    1
    17    69    70    1
    18    54    57    1
    19    70    71    1
    20    59    58    1
    21    29    27   am
    22   126   125    1
    23   126   129    1
    24   184   185    1
    25   184   181    1
    26    57    58    1
    27   186   185   ar
    28   186   188   ar
    29   185   187   ar
    30   130   129    1
    31   188   190   ar
    32   129   131    1
    33   183   182    2
    34   179   178    1
    35   187   189   ar
    36   182   181    1
    37   190   189   ar
    38    27    26    1
    39    27    28    2
    40   181   180    1
    41    26    23    1
    42   180   176   am
    43   153   152    1
    44   178   175    1
    45   116   117    2
    46   116   115    1
    47   176   175    1
    48   176   177    2
    49    22    23    1
    50    23    24    1
    51   174   175    1
    52    35    34    1
    53    30    24   am
    54    30    31    1
    55    34    31    1
    56   132   133    1
    57    24    25    2
    58   152   149    1
    59   115   114    1
    60   115   118    1
    61   119   118    1
    62   119   120    1
    63   149   148    1
    64   149   150    1
    65    31    32    1
    66    32    33    2
    67   198   196    1
    68   133   134    1
    69   133   136    1
    70   124   122    1
    71   120   121    1
    72   154   150   am
    73   154   155    1
    74   150   151    2
    75   196   195    1
    76   134   140   am
    77   134   135    2
    78   159   158    1
    79   208   206   ar
    80   208   207   ar
    81   142   143    2
    82   142   141    1
    83    21    20    1
    84   140   141    1
    85   136   137    1
    86   215   214    1
    87   206   204   ar
    88   122   121    2
    89   122   123    1
    90   138   137    1
    91    18    20   ar
    92    18    16   ar
    93   141   144    1
    94   157   156    2
    95   158   155    1
    96   207   205   ar
    97   216   214    1
    98    20    19   ar
    99   155   156    1
   100   137   139    1
   101   144   145    1
   102   195   197    1
   103   195   192    1
   104   214   213    1
   105   156   160   am
   106   204   205   ar
   107   204   203    1
   108    16    15   ar
   109   213   210    1
   110   192   191    1
   111   192   193    1
   112    19    17   ar
   113   145   146    1
   114   145   147    1
   115   203   200    1
   116   160   161    1
   117   160   166    1
   118    43    42    1
   119   210   211    1
   120   210   209    1
   121   173   171    1
   122   212   211    2
   123    15    17   ar
   124    15    14    1
   125    79    81   ar
   126    79    77   ar
   127    81    80   ar
   128    10    11    1
   129   161   162    1
   130   161   164    1
   131   193   194    2
   132   163   162    2
   133   162   167   am
   134   202   201    2
   135    11    14    1
   136    11    12    1
   137   166   165    1
   138   167   168    1
   139   200   201    1
   140   200   199    1
   141    72    73    1
   142    42    41    1
   143   171   168    1
   144   171   172    1
   145    77    76    1
   146    77    78   ar
   147    80    78   ar
   148   105   104    2
   149   168   169    1
   150   164   165    1
   151   106   107    1
   152   106   103    1
   153    47    46    2
   154   104   103    1
   155    76    73    1
   156    12    13    2
   157    73    74    1
   158    41    40    1
   159   107   109   ar
   160   107   108   ar
   161    46    45    1
   162    40    37    1
   163   103   102    1
   164    51    50   ar
   165    52    50   ar
   166    48    45    1
   167    48    49    1
   168   109   111   ar
   169    50    49    1
   170    44    45    1
   171    44    38   am
   172   169   170    2
   173   108   110   ar
   174    74    75    2
   175    37    38    1
   176    37    36    1
   177   111   112   ar
   178   110   112   ar
   179    38    39    2
   180   112   113    1
   181   100    98   ar
   182   100   101   ar
   183    98    96   ar
   184   101    99   ar
   185    96    95    1
   186    96    97   ar
   187    89    88    2
   188    95    92    1
   189    99    97   ar
   190    90    88   am
   191    88    87    1
   192    94    93    2
   193    86    87    1
   194    86    83    1
   195    92    91    1
   196    92    93    1
   197    91    84   am
   198     7     6    1
   199     7     8    1
   200     6     5    1
   201    82    83    1
   202     2     5    1
   203     2     3    1
   204     2     1    1
   205    83    84    1
   206    84    85    2
   207     3     4    2
   208     9     8    1
