@<TRIPOS>MOLECULE
tmp/6ht0A00.pdb
 116 117 0 0 0
SMALL
GASTEIGER

@<TRIPOS>ATOM
      1  N        -19.8730    7.1460   53.7210 N.3    27  PHE27      -0.1241
      2  CA       -18.5150    6.9120   54.2850 C.3    27  PHE27       0.1605
      3  C        -18.4790    7.6020   55.6480 C.2    27  PHE27       0.2264
      4  O        -18.7960    8.7780   55.7350 O.2    27  PHE27      -0.2867
      5  CB       -17.4320    7.4260   53.3500 C.3    27  PHE27       0.0534
      6  CG       -17.4560    6.8640   51.9560 C.ar   27  PHE27      -0.0203
      7  CD1      -17.6070    5.5140   51.7330 C.ar   27  PHE27      -0.0042
      8  CD2      -17.2500    7.6920   50.8610 C.ar   27  PHE27      -0.0042
      9  CE1      -17.5970    4.9960   50.4520 C.ar   27  PHE27      -0.0003
     10  CE2      -17.2560    7.1740   49.5760 C.ar   27  PHE27      -0.0003
     11  CZ       -17.4330    5.8180   49.3760 C.ar   27  PHE27      -0.0000
     12  N         -9.3430   -2.9270   49.9720 N.3    55  HIS55      -0.1241
     13  CA       -10.5030   -3.8390   49.8710 C.3    55  HIS55       0.1621
     14  C        -11.0230   -3.7710   48.4210 C.2    55  HIS55       0.2264
     15  O        -10.9930   -2.6540   47.8600 O.2    55  HIS55      -0.2867
     16  CB       -11.5180   -3.4370   50.9180 C.3    55  HIS55       0.0745
     17  CG       -12.6480   -4.3870   51.0010 C.ar   55  HIS55       0.0817
     18  ND1      -13.7480   -4.2550   50.2200 N.ar   55  HIS55      -0.2268
     19  CD2      -12.8330   -5.4940   51.7450 C.ar   55  HIS55       0.1154
     20  CE1      -14.5850   -5.2450   50.4740 C.ar   55  HIS55       0.1986
     21  NE2      -14.0400   -6.0030   51.4020 N.ar   55  HIS55      -0.2212
     22  N        -13.7270   -3.5600   47.0370 N.3    57  SER57      -0.1202
     23  CA       -14.8240   -2.5680   46.8640 C.3    57  SER57       0.2020
     24  C        -14.3140   -1.2110   46.3890 C.2    57  SER57       0.2619
     25  O        -15.1000   -0.4770   45.8280 O.2    57  SER57      -0.2717
     26  CB       -15.6150   -2.4010   48.1270 C.3    57  SER57       0.2103
     27  OG       -14.7800   -2.0130   49.1940 O.3    57  SER57      -0.2182
     28  N        -13.0550   -0.8630   46.6630 N.am   58  PHE58      -0.1962
     29  CA       -12.4910    0.4520   46.3450 C.3    58  PHE58       0.1756
     30  C        -12.2360    0.5380   44.8590 C.2    58  PHE58       0.2461
     31  O        -11.8790   -0.4560   44.2500 O.2    58  PHE58      -0.2730
     32  CB       -11.1640    0.6910   47.0800 C.3    58  PHE58       0.0574
     33  CG       -11.3300    1.1570   48.4890 C.ar   58  PHE58      -0.0200
     34  CD1      -11.5060    0.2480   49.5150 C.ar   58  PHE58      -0.0042
     35  CD2      -11.3240    2.5070   48.7790 C.ar   58  PHE58      -0.0042
     36  CE1      -11.6550    0.6930   50.8260 C.ar   58  PHE58      -0.0003
     37  CE2      -11.4820    2.9590   50.0780 C.ar   58  PHE58      -0.0003
     38  CZ       -11.6520    2.0540   51.0980 C.ar   58  PHE58      -0.0000
     39  N        -12.4150    1.7190   44.2490 N.am   59  PRO59      -0.2727
     40  CA       -11.9880    1.9240   42.8740 C.3    59  PRO59       0.1402
     41  C        -10.4580    1.7680   42.8470 C.2    59  PRO59       0.2269
     42  O         -9.8260    2.2160   43.7820 O.2    59  PRO59      -0.2865
     43  CB       -12.4830    3.3400   42.5330 C.3    59  PRO59       0.0296
     44  CG       -12.5920    4.0320   43.8780 C.3    59  PRO59       0.0237
     45  CD       -12.9910    2.9410   44.8470 C.3    59  PRO59       0.0939
     46  N         -3.1270    0.3500   44.7240 N.3    63  ARG63      -0.1245
     47  CA        -2.6640    1.7440   44.8030 C.3    63  ARG63       0.1563
     48  C         -1.1560    1.7230   44.8520 C.2    63  ARG63       0.2260
     49  O         -0.6040    1.1500   45.7910 O.2    63  ARG63      -0.2867
     50  CB        -3.2820    2.4510   46.0090 C.3    63  ARG63       0.0307
     51  CG        -4.7940    2.5600   45.9660 C.3    63  ARG63       0.0489
     52  CD        -5.3460    3.3760   44.8000 C.3    63  ARG63       0.2205
     53  NE        -6.7890    3.3020   44.9090 N.pl3  63  ARG63      -0.0865
     54  CZ        -7.5410    4.0540   45.7010 C.cat  63  ARG63       0.5346
     55  NH1       -7.0000    5.0060   46.4360 N.pl3  63  ARG63       0.1354
     56  NH2       -8.8450    3.8540   45.7550 N.pl3  63  ARG63       0.1354
     57  N         -4.6890    8.0740   51.0600 N.3    73  GLU73      -0.1231
     58  CA        -5.7120    8.7960   51.8320 C.3    73  GLU73       0.1699
     59  C         -7.0730    8.3900   51.2610 C.2    73  GLU73       0.2592
     60  O         -7.2650    8.4660   50.0290 O.2    73  GLU73      -0.2718
     61  CB        -5.4850   10.3010   51.7370 C.3    73  GLU73       0.0402
     62  CG        -4.1880   10.7180   52.3580 C.3    73  GLU73       0.1161
     63  CD        -3.8350   12.1750   52.1740 C.2    73  GLU73       0.3649
     64  OE1       -3.4630   12.5760   51.0380 O.co2  73  GLU73      -0.2457
     65  OE2       -3.9580   12.9000   53.1420 O.co2  73  GLU73      -0.2457
     66  N         -7.9710    7.9520   52.1070 N.am   74  GLU74      -0.1966
     67  CA        -9.2800    7.5000   51.6490 C.3    74  GLU74       0.1733
     68  C        -10.3370    7.8380   52.6730 C.2    74  GLU74       0.2617
     69  O        -10.0360    8.3230   53.7350 O.2    74  GLU74      -0.2715
     70  CB        -9.2420    6.0000   51.3910 C.3    74  GLU74       0.0429
     71  CG        -8.9470    5.6270   49.9680 C.3    74  GLU74       0.1163
     72  CD       -10.0020    5.9800   48.9720 C.2    74  GLU74       0.3649
     73  OE1      -11.0870    6.5500   49.3980 O.co2  74  GLU74      -0.2457
     74  OE2       -9.7900    5.6410   47.7750 O.co2  74  GLU74      -0.2457
     75  N        -11.5640    7.6380   52.2650 N.am   75  SER75      -0.1936
     76  CA       -12.7160    7.5960   53.1870 C.3    75  SER75       0.2055
     77  C        -13.3580    6.2220   53.0350 C.2    75  SER75       0.2644
     78  O        -13.1300    5.5530   52.0120 O.2    75  SER75      -0.2714
     79  CB       -13.6800    8.7610   52.9730 C.3    75  SER75       0.2130
     80  OG       -13.1320    9.9770   53.4900 O.3    75  SER75      -0.2179
     81  N        -14.0390    5.7790   54.0460 N.am   76  GLY76      -0.1939
     82  CA       -14.5530    4.4180   53.9800 C.3    76  GLY76       0.2014
     83  C        -15.5340    4.1280   55.0760 C.2    76  GLY76       0.2639
     84  O        -15.8230    5.0440   55.9160 O.2    76  GLY76      -0.2714
     85  N        -16.0240    2.9030   55.0680 N.am   77  TYR77      -0.1959
     86  CA       -17.0970    2.4580   55.9780 C.3    77  TYR77       0.1771
     87  C        -16.5410    1.5860   57.0720 C.2    77  TYR77       0.2619
     88  O        -17.2140    1.3950   58.0940 O.2    77  TYR77      -0.2715
     89  CB       -18.1300    1.5860   55.2560 C.3    77  TYR77       0.0574
     90  CG       -18.6990    2.0760   53.9780 C.ar   77  TYR77      -0.0198
     91  CD1      -19.7030    3.0400   53.9790 C.ar   77  TYR77      -0.0009
     92  CD2      -18.3590    1.4860   52.7740 C.ar   77  TYR77      -0.0009
     93  CE1      -20.2980    3.4690   52.8040 C.ar   77  TYR77       0.0417
     94  CE2      -18.9430    1.8990   51.5820 C.ar   77  TYR77       0.0417
     95  CZ       -19.9260    2.8950   51.5950 C.ar   77  TYR77       0.1957
     96  OH       -20.5130    3.3500   50.4490 O.3    77  TYR77      -0.2866
     97  N        -15.3840    0.9640   56.8490 N.am   78  ALA78      -0.1963
     98  CA       -14.9440   -0.1560   57.6900 C.3    78  ALA78       0.1728
     99  C        -13.4510   -0.4000   57.5020 C.2    78  ALA78       0.2617
    100  O        -12.9530   -0.1660   56.4200 O.2    78  ALA78      -0.2715
    101  CB       -15.7190   -1.3850   57.3600 C.3    78  ALA78       0.0334
    102  N        -12.8250   -0.8750   58.5520 N.am   79  GLY79      -0.1940
    103  CA       -11.4480   -1.3150   58.5580 C.3    79  GLY79       0.2014
    104  C        -11.3030   -2.6220   57.8230 C.2    79  GLY79       0.2638
    105  O        -12.3100   -3.2840   57.5550 O.2    79  GLY79      -0.2714
    106  N        -10.0900   -2.9990   57.4920 N.am   80  PHE80      -0.1973
    107  CA        -9.8190   -4.2520   56.7700 C.3    80  PHE80       0.1639
    108  C         -8.3500   -4.5510   56.8840 C.2    80  PHE80       0.2290
    109  O         -7.5990   -3.6730   57.3330 O.2    80  PHE80      -0.2864
    110  CB       -10.2800   -4.1570   55.3040 C.3    80  PHE80       0.0560
    111  CG        -9.7040   -3.0210   54.5120 C.ar   80  PHE80      -0.0200
    112  CD1      -10.3390   -1.7860   54.4660 C.ar   80  PHE80      -0.0042
    113  CD2       -8.5040   -3.1700   53.8020 C.ar   80  PHE80      -0.0042
    114  CE1       -9.7960   -0.7350   53.7440 C.ar   80  PHE80      -0.0003
    115  CE2       -7.9780   -2.1220   53.0720 C.ar   80  PHE80      -0.0003
    116  CZ        -8.6230   -0.8990   53.0510 C.ar   80  PHE80      -0.0000
@<TRIPOS>BOND
     1    43    40    1
     2    43    44    1
     3    41    40    1
     4    41    42    2
     5    40    39    1
     6    44    45    1
     7    39    45    1
     8    39    30   am
     9    31    30    2
    10    46    47    1
    11    52    53    1
    12    52    51    1
    13    47    48    1
    14    47    50    1
    15    48    49    2
    16    30    29    1
    17    53    54    2
    18    54    56    1
    19    54    55    1
    20    25    24    2
    21    51    50    1
    22    29    28    1
    23    29    32    1
    24    24    28   am
    25    24    23    1
    26    23    22    1
    27    23    26    1
    28    32    33    1
    29    74    72   ar
    30    15    14    2
    31    26    27    1
    32    14    13    1
    33    33    35   ar
    34    33    34   ar
    35    35    37   ar
    36    72    73   ar
    37    72    71    1
    38    11    10   ar
    39    11     9   ar
    40    34    36   ar
    41    10     8   ar
    42    13    12    1
    43    13    16    1
    44    71    70    1
    45    60    59    2
    46    37    38   ar
    47    18    20   ar
    48    18    17   ar
    49    96    95    1
    50     9     7   ar
    51    20    21   ar
    52    36    38   ar
    53     8     6   ar
    54    16    17    1
    55    17    19   ar
    56    64    63   ar
    57    57    58    1
    58    59    58    1
    59    59    66   am
    60    70    67    1
    61    21    19   ar
    62    94    95   ar
    63    94    92   ar
    64    95    93   ar
    65    67    66    1
    66    67    68    1
    67     7     6   ar
    68    61    58    1
    69    61    62    1
    70     6     5    1
    71    78    77    2
    72    63    62    1
    73    63    65   ar
    74    75    68   am
    75    75    76    1
    76    68    69    2
    77    92    90   ar
    78    93    91   ar
    79    79    76    1
    80    79    80    1
    81    77    76    1
    82    77    81   am
    83   116   115   ar
    84   116   114   ar
    85   115   113   ar
    86     5     2    1
    87     1     2    1
    88   114   112   ar
    89   113   111   ar
    90    90    91   ar
    91    90    89    1
    92    82    81    1
    93    82    83    1
    94     2     3    1
    95   112   111   ar
    96   111   110    1
    97    85    83   am
    98    85    86    1
    99    83    84    2
   100    89    86    1
   101   110   107    1
   102     3     4    2
   103    86    87    1
   104   100    99    2
   105   107   108    1
   106   107   106    1
   107    97    87   am
   108    97    98    1
   109   108   109    2
   110    87    88    2
   111   101    98    1
   112   106   104   am
   113    99    98    1
   114    99   102   am
   115   105   104    2
   116   104   103    1
   117   102   103    1
