@<TRIPOS>MOLECULE
tmp/6ht1A00.pdb
 125 125 0 0 0
SMALL
GASTEIGER

@<TRIPOS>ATOM
      1  N        -22.1750    9.2180   50.5400 N.3    25  GLU25      -0.1301
      2  CA       -22.0360    7.7600   50.2490 C.3    25  GLU25       0.1252
      3  C        -22.0970    6.9260   51.5350 C.3    25  GLU25       0.2009
      4  O        -21.9750    5.6370   51.4350 O.3    25  GLU25      -0.2188
      5  CB       -20.7220    7.4700   49.5440 C.3    25  GLU25       0.0335
      6  CG       -20.4970    8.3470   48.3180 C.3    25  GLU25       0.1156
      7  CD       -19.5750    9.5580   48.4890 C.2    25  GLU25       0.3649
      8  OE1      -19.0310   10.0010   47.4680 O.co2  25  GLU25      -0.2457
      9  OE2      -19.4000   10.0590   49.6390 O.co2  25  GLU25      -0.2457
     10  N        -19.8530    7.0900   53.9650 N.3    27  PHE27      -0.1241
     11  CA       -18.4940    6.9800   54.5340 C.3    27  PHE27       0.1605
     12  C        -18.4770    7.7300   55.8590 C.2    27  PHE27       0.2264
     13  O        -18.8440    8.9180   55.9090 O.2    27  PHE27      -0.2867
     14  CB       -17.4350    7.5020   53.5820 C.3    27  PHE27       0.0534
     15  CG       -17.4340    6.8600   52.2230 C.ar   27  PHE27      -0.0203
     16  CD1      -17.4720    5.4810   52.0950 C.ar   27  PHE27      -0.0042
     17  CD2      -17.3060    7.6390   51.0760 C.ar   27  PHE27      -0.0042
     18  CE1      -17.4490    4.8900   50.8420 C.ar   27  PHE27      -0.0003
     19  CE2      -17.3300    7.0510   49.8200 C.ar   27  PHE27      -0.0003
     20  CZ       -17.3970    5.6740   49.7070 C.ar   27  PHE27      -0.0000
     21  N         -9.3940   -3.0380   50.4550 N.3    55  HIS55      -0.1241
     22  CA       -10.5930   -3.8890   50.3520 C.3    55  HIS55       0.1621
     23  C        -11.0930   -3.8860   48.8930 C.2    55  HIS55       0.2264
     24  O        -11.0120   -2.7870   48.2670 O.2    55  HIS55      -0.2867
     25  CB       -11.6450   -3.4020   51.3560 C.3    55  HIS55       0.0745
     26  CG       -12.7850   -4.3480   51.5030 C.ar   55  HIS55       0.0817
     27  ND1      -13.8490   -4.3350   50.6480 N.ar   55  HIS55      -0.2268
     28  CD2      -12.9700   -5.4050   52.3210 C.ar   55  HIS55       0.1154
     29  CE1      -14.6810   -5.3120   50.9660 C.ar   55  HIS55       0.1986
     30  NE2      -14.1800   -5.9460   52.0120 N.ar   55  HIS55      -0.2212
     31  N        -13.7590   -3.7080   47.5490 N.3    57  SER57      -0.1202
     32  CA       -14.8850   -2.7550   47.3490 C.3    57  SER57       0.2020
     33  C        -14.3860   -1.4000   46.8600 C.2    57  SER57       0.2619
     34  O        -15.2190   -0.6430   46.3980 O.2    57  SER57      -0.2717
     35  CB       -15.6790   -2.5770   48.5960 C.3    57  SER57       0.2103
     36  OG       -14.8450   -2.1210   49.6500 O.3    57  SER57      -0.2182
     37  N        -13.1110   -1.0530   47.0760 N.am   58  PHE58      -0.1962
     38  CA       -12.5350    0.2730   46.7250 C.3    58  PHE58       0.1756
     39  C        -12.2950    0.3470   45.2280 C.2    58  PHE58       0.2461
     40  O        -11.9410   -0.6360   44.5960 O.2    58  PHE58      -0.2730
     41  CB       -11.2060    0.5390   47.4350 C.3    58  PHE58       0.0574
     42  CG       -11.3450    0.9980   48.8630 C.ar   58  PHE58      -0.0200
     43  CD1      -11.6070    0.0880   49.8740 C.ar   58  PHE58      -0.0042
     44  CD2      -11.3140    2.3480   49.1870 C.ar   58  PHE58      -0.0042
     45  CE1      -11.7810    0.5140   51.1890 C.ar   58  PHE58      -0.0003
     46  CE2      -11.4360    2.7690   50.5090 C.ar   58  PHE58      -0.0003
     47  CZ       -11.7170    1.8520   51.5020 C.ar   58  PHE58      -0.0000
     48  N        -12.4910    1.5160   44.6120 N.am   59  PRO59      -0.2727
     49  CA       -12.0940    1.6920   43.2250 C.3    59  PRO59       0.1402
     50  C        -10.5640    1.6010   43.1760 C.2    59  PRO59       0.2269
     51  O         -9.9510    1.9480   44.1420 O.2    59  PRO59      -0.2865
     52  CB       -12.6730    3.0630   42.8340 C.3    59  PRO59       0.0296
     53  CG       -12.8780    3.7890   44.1650 C.3    59  PRO59       0.0237
     54  CD       -13.1200    2.7070   45.1990 C.3    59  PRO59       0.0939
     55  N         -3.3050    0.1350   45.0660 N.3    63  ARG63      -0.1245
     56  CA        -2.8360    1.5390   45.0970 C.3    63  ARG63       0.1563
     57  C         -1.3160    1.5560   45.1740 C.2    63  ARG63       0.2260
     58  O         -0.7360    0.9660   46.1290 O.2    63  ARG63      -0.2867
     59  CB        -3.4520    2.2560   46.2950 C.3    63  ARG63       0.0307
     60  CG        -4.9520    2.4090   46.2010 C.3    63  ARG63       0.0489
     61  CD        -5.3960    3.3400   45.0730 C.3    63  ARG63       0.2205
     62  NE        -6.8420    3.3440   45.1270 N.pl3  63  ARG63      -0.0865
     63  CZ        -7.5730    3.9900   46.0190 C.cat  63  ARG63       0.5346
     64  NH1       -7.0280    4.8480   46.8670 N.pl3  63  ARG63       0.1354
     65  NH2       -8.8750    3.8110   46.0250 N.pl3  63  ARG63       0.1354
     66  N         -4.6880    8.0740   51.2550 N.3    73  GLU73      -0.1231
     67  CA        -5.7630    8.7790   51.9920 C.3    73  GLU73       0.1699
     68  C         -7.1210    8.3490   51.4380 C.2    73  GLU73       0.2592
     69  O         -7.3460    8.4970   50.2200 O.2    73  GLU73      -0.2718
     70  CB        -5.5690   10.2880   51.8970 C.3    73  GLU73       0.0402
     71  CG        -4.3800   10.7400   52.6960 C.3    73  GLU73       0.1161
     72  CD        -3.7880   12.0820   52.3240 C.2    73  GLU73       0.3649
     73  OE1       -3.5950   12.3610   51.1080 O.co2  73  GLU73      -0.2457
     74  OE2       -3.5070   12.8320   53.2470 O.co2  73  GLU73      -0.2457
     75  N         -8.0270    7.9470   52.3130 N.am   74  GLU74      -0.1966
     76  CA        -9.3580    7.4700   51.8970 C.3    74  GLU74       0.1733
     77  C        -10.3940    7.8640   52.9260 C.2    74  GLU74       0.2617
     78  O        -10.0570    8.3210   54.0010 O.2    74  GLU74      -0.2715
     79  CB        -9.3470    5.9560   51.7110 C.3    74  GLU74       0.0429
     80  CG        -9.0210    5.5210   50.3010 C.3    74  GLU74       0.1163
     81  CD       -10.0670    5.8910   49.2710 C.2    74  GLU74       0.3649
     82  OE1       -9.8740    5.4960   48.0980 O.co2  74  GLU74      -0.2457
     83  OE2      -11.0790    6.6240   49.6390 O.co2  74  GLU74      -0.2457
     84  N        -11.6340    7.6960   52.5550 N.am   75  SER75      -0.1936
     85  CA       -12.7810    7.6050   53.4710 C.3    75  SER75       0.2055
     86  C        -13.4140    6.2260   53.2670 C.2    75  SER75       0.2644
     87  O        -13.1490    5.5810   52.2310 O.2    75  SER75      -0.2714
     88  CB       -13.7500    8.7300   53.2210 C.3    75  SER75       0.2130
     89  OG       -13.2770    9.9430   53.7910 O.3    75  SER75      -0.2179
     90  N        -14.1160    5.7340   54.2620 N.am   76  GLY76      -0.1939
     91  CA       -14.6780    4.3840   54.1960 C.3    76  GLY76       0.2014
     92  C        -15.6120    4.1320   55.3530 C.2    76  GLY76       0.2639
     93  O        -15.8590    5.0920   56.1820 O.2    76  GLY76      -0.2714
     94  N        -16.1160    2.9100   55.4510 N.am   77  TYR77      -0.1959
     95  CA       -17.2010    2.5230   56.3910 C.3    77  TYR77       0.1771
     96  C        -16.6630    1.5680   57.4800 C.2    77  TYR77       0.2619
     97  O        -17.3340    1.4340   58.4990 O.2    77  TYR77      -0.2715
     98  CB       -18.3230    1.7640   55.6800 C.3    77  TYR77       0.0574
     99  CG       -18.8490    2.2870   54.3670 C.ar   77  TYR77      -0.0198
    100  CD1      -19.7540    3.3430   54.3270 C.ar   77  TYR77      -0.0009
    101  CD2      -18.6810    1.5500   53.2020 C.ar   77  TYR77      -0.0009
    102  CE1      -20.3750    3.7290   53.1480 C.ar   77  TYR77       0.0417
    103  CE2      -19.2860    1.9320   52.0060 C.ar   77  TYR77       0.0417
    104  CZ       -20.1360    3.0280   51.9780 C.ar   77  TYR77       0.1957
    105  OH       -20.7480    3.4110   50.8150 O.3    77  TYR77      -0.2866
    106  N        -15.5500    0.8720   57.2180 N.am   78  ALA78      -0.1963
    107  CA       -15.0390   -0.1930   58.1310 C.3    78  ALA78       0.1728
    108  C        -13.5310   -0.4110   57.9470 C.2    78  ALA78       0.2617
    109  O        -12.9770   -0.0920   56.8540 O.2    78  ALA78      -0.2715
    110  CB       -15.7980   -1.4820   57.9130 C.3    78  ALA78       0.0334
    111  N        -12.8970   -0.9520   58.9850 N.am   79  GLY79      -0.1940
    112  CA       -11.5130   -1.3990   58.9550 C.3    79  GLY79       0.2014
    113  C        -11.3880   -2.6620   58.1250 C.2    79  GLY79       0.2638
    114  O        -12.4110   -3.2940   57.8510 O.2    79  GLY79      -0.2714
    115  N        -10.1720   -3.0160   57.7180 N.am   80  PHE80      -0.1973
    116  CA        -9.8770   -4.3170   57.0880 C.3    80  PHE80       0.1639
    117  C         -8.3920   -4.5810   57.2340 C.2    80  PHE80       0.2290
    118  O         -7.6820   -3.6950   57.6360 O.2    80  PHE80      -0.2864
    119  CB       -10.3300   -4.2880   55.6220 C.3    80  PHE80       0.0560
    120  CG        -9.7750   -3.1320   54.8460 C.ar   80  PHE80      -0.0200
    121  CD1      -10.3170   -1.8700   54.9760 C.ar   80  PHE80      -0.0042
    122  CD2       -8.6650   -3.2850   54.0340 C.ar   80  PHE80      -0.0042
    123  CE1       -9.8000   -0.8080   54.2710 C.ar   80  PHE80      -0.0003
    124  CE2       -8.1440   -2.2110   53.3470 C.ar   80  PHE80      -0.0003
    125  CZ        -8.7040   -0.9750   53.4850 C.ar   80  PHE80      -0.0000
@<TRIPOS>BOND
     1    52    49    1
     2    52    53    1
     3    50    49    1
     4    50    51    2
     5    49    48    1
     6    53    54    1
     7    40    39    2
     8    48    54    1
     9    48    39   am
    10    55    56    1
    11    61    62    1
    12    61    60    1
    13    56    57    1
    14    56    59    1
    15    62    63    2
    16    57    58    2
    17    39    38    1
    18    63    65    1
    19    63    64    1
    20    60    59    1
    21    34    33    2
    22    38    37    1
    23    38    41    1
    24    33    37   am
    25    33    32    1
    26    32    31    1
    27    32    35    1
    28    41    42    1
    29     8     7   ar
    30    82    81   ar
    31    24    23    2
    32     6     7    1
    33     6     5    1
    34     7     9   ar
    35    35    36    1
    36    42    44   ar
    37    42    43   ar
    38    23    22    1
    39    44    46   ar
    40    81    83   ar
    41    81    80    1
    42     5     2    1
    43    20    19   ar
    44    20    18   ar
    45    19    17   ar
    46    43    45   ar
    47    69    68    2
    48     2     1    1
    49     2     3    1
    50    80    79    1
    51    22    21    1
    52    22    25    1
    53    46    47   ar
    54    27    29   ar
    55    27    26   ar
    56   105   104    1
    57    18    16   ar
    58    29    30   ar
    59    17    15   ar
    60    73    72   ar
    61    45    47   ar
    62    66    67    1
    63    25    26    1
    64     4     3    1
    65    68    67    1
    66    68    75   am
    67    26    28   ar
    68    79    76    1
    69    70    67    1
    70    70    71    1
    71    76    75    1
    72    76    77    1
    73   104   103   ar
    74   104   102   ar
    75   103   101   ar
    76    30    28   ar
    77    16    15   ar
    78    15    14    1
    79    87    86    2
    80    72    71    1
    81    72    74   ar
    82    84    77   am
    83    84    85    1
    84    77    78    2
    85   102   100   ar
    86   101    99   ar
    87    88    85    1
    88    88    89    1
    89    86    85    1
    90    86    90   am
    91   124   125   ar
    92   124   122   ar
    93   125   123   ar
    94    14    11    1
    95    10    11    1
    96   122   120   ar
    97    91    90    1
    98    91    92    1
    99   123   121   ar
   100   100    99   ar
   101    99    98    1
   102    11    12    1
   103   120   121   ar
   104   120   119    1
   105    92    94   am
   106    92    93    2
   107    94    95    1
   108   119   116    1
   109    98    95    1
   110    12    13    2
   111    95    96    1
   112   109   108    2
   113   116   117    1
   114   116   115    1
   115   106    96   am
   116   106   107    1
   117   117   118    2
   118    96    97    2
   119   115   113   am
   120   114   113    2
   121   110   107    1
   122   108   107    1
   123   108   111   am
   124   113   112    1
   125   112   111    1
