@<TRIPOS>MOLECULE
tmp/6ht6B01.pdb
 79 73 0 0 0
SMALL
GASTEIGER

@<TRIPOS>ATOM
      1  N         -8.2330   -2.1320   -1.0630 N.3    80  LEU80      -0.1245
      2  CA        -9.2900   -1.1780   -0.7500 C.3    80  LEU80       0.1561
      3  C        -10.5130   -1.3800   -1.6390 C.2    80  LEU80       0.2260
      4  O        -11.6480   -1.1370   -1.2050 O.2    80  LEU80      -0.2867
      5  CB        -8.7880    0.2550   -0.8810 C.3    80  LEU80       0.0270
      6  CG        -7.5940    0.6640   -0.0380 C.3    80  LEU80       0.0019
      7  CD1       -7.2610    2.1040   -0.4080 C.3    80  LEU80       0.0001
      8  CD2       -7.8570    0.5050    1.4420 C.3    80  LEU80       0.0001
      9  N        -12.4520   -4.1060    0.1130 N.3    83  LEU83      -0.1231
     10  CA       -13.2870   -3.6180    1.2090 C.3    83  LEU83       0.1693
     11  C        -14.6080   -3.0940    0.6660 C.2    83  LEU83       0.2591
     12  O        -15.6900   -3.5460    1.0590 O.2    83  LEU83      -0.2718
     13  CB       -12.5460   -2.5120    1.9650 C.3    83  LEU83       0.0284
     14  CG       -11.2540   -2.8270    2.7400 C.3    83  LEU83       0.0019
     15  CD1      -10.7930   -1.6490    3.5740 C.3    83  LEU83       0.0001
     16  CD2      -11.4300   -4.0240    3.6060 C.3    83  LEU83       0.0001
     17  N        -14.5210   -2.1920   -0.3250 N.am   84  GLU84      -0.1979
     18  CA       -15.6970   -1.6010   -0.9500 C.3    84  GLU84       0.1602
     19  C        -16.5660   -2.7050   -1.5380 C.2    84  GLU84       0.2287
     20  O        -17.7970   -2.6060   -1.5630 O.2    84  GLU84      -0.2864
     21  CB       -15.2290   -0.6710   -2.0390 C.3    84  GLU84       0.0415
     22  CG       -14.6680    0.6600   -1.5790 C.3    84  GLU84       0.1163
     23  CD       -15.6530    1.6410   -1.0410 C.2    84  GLU84       0.3649
     24  OE1      -15.1770    2.7560   -0.7250 O.co2  84  GLU84      -0.2457
     25  OE2      -16.8600    1.3160   -0.9660 O.co2  84  GLU84      -0.2457
     26  N        -14.1820    7.4080    3.5610 N.3   107  ARG107     -0.1231
     27  CA       -13.2220    7.2060    2.4940 C.3   107  ARG107      0.1694
     28  C        -12.1080    8.2380    2.6190 C.2   107  ARG107      0.2591
     29  O        -10.9270    7.9020    2.4840 O.2   107  ARG107     -0.2718
     30  CB       -13.9670    7.2700    1.1620 C.3   107  ARG107      0.0321
     31  CG       -14.9320    6.1210    0.9940 C.3   107  ARG107      0.0489
     32  CD       -15.5770    6.1140   -0.3620 C.3   107  ARG107      0.2205
     33  NE       -16.4800    4.9790   -0.5990 N.pl3 107  ARG107     -0.0865
     34  CZ       -17.7960    5.0280   -0.7940 C.cat 107  ARG107      0.5346
     35  NH1      -18.4380    6.1900   -0.7800 N.pl3 107  ARG107      0.1354
     36  NH2      -18.4750    3.8900   -1.0450 N.pl3 107  ARG107      0.1354
     37  N        -12.4590    9.4850    2.9430 N.am  108  ALA108     -0.1980
     38  CA       -11.4430   10.5070    3.1760 C.3   108  ALA108      0.1597
     39  C        -10.4380   10.0910    4.2390 C.2   108  ALA108      0.2287
     40  O         -9.2320   10.3310    4.1070 O.2   108  ALA108     -0.2864
     41  CB       -12.1230   11.7830    3.6260 C.3   108  ALA108      0.0319
     42  N         -9.5170    7.0870    5.0490 N.3   110  ILE110     -0.1231
     43  CA        -8.6120    6.1280    4.4530 C.3   110  ILE110      0.1692
     44  C         -7.5880    6.8710    3.6040 C.2   110  ILE110      0.2591
     45  O         -6.3980    6.5280    3.5780 O.2   110  ILE110     -0.2718
     46  CB        -9.4260    5.1430    3.6080 C.3   110  ILE110      0.0266
     47  CG1      -10.3700    4.3560    4.5140 C.3   110  ILE110      0.0019
     48  CG2       -8.5040    4.2330    2.8290 C.3   110  ILE110      0.0020
     49  CD1      -11.4160    3.5870    3.7690 C.3   110  ILE110      0.0001
     50  N         -8.0400    7.8990    2.8870 N.am  111  ALA111     -0.1980
     51  CA        -7.1270    8.6480    2.0500 C.3   111  ALA111      0.1597
     52  C         -6.0880    9.3670    2.8950 C.2   111  ALA111      0.2287
     53  O         -4.9040    9.4080    2.5360 O.2   111  ALA111     -0.2864
     54  CB        -7.9170    9.6300    1.1920 C.3   111  ALA111      0.0319
     55  N         -3.6610    6.7370    3.5170 N.3   114  GLN114     -0.1231
     56  CA        -2.9450    6.3520    2.3150 C.3   114  GLN114      0.1698
     57  C         -1.9540    7.4530    1.9380 C.2   114  GLN114      0.2592
     58  O         -0.7900    7.1840    1.6270 O.2   114  GLN114     -0.2718
     59  CB        -3.9460    6.0700    1.2090 C.3   114  GLN114      0.0381
     60  CG        -4.5090    4.6450    1.1930 C.3   114  GLN114      0.0905
     61  CD        -3.4830    3.5670    1.3390 C.2   114  GLN114      0.2608
     62  OE1       -3.5680    2.7400    2.2550 O.2   114  GLN114     -0.2717
     63  NE2       -2.5040    3.5540    0.4440 N.am  114  GLN114     -0.0878
     64  N         -2.3780    8.7030    2.0200 N.am  115  ASN115     -0.1974
     65  CA        -1.5930    9.7990    1.4690 C.3   115  ASN115      0.1688
     66  C         -0.5230   10.2650    2.4280 C.2   115  ASN115      0.2292
     67  O          0.4750   10.8340    1.9800 O.2   115  ASN115     -0.2864
     68  CB        -2.4940   11.0030    1.1280 C.3   115  ASN115      0.1181
     69  CG        -3.4510   10.7120    0.0080 C.2   115  ASN115      0.2629
     70  OD1       -3.3040    9.7250   -0.7330 O.2   115  ASN115     -0.2716
     71  ND2       -4.4640   11.5430   -0.1080 N.am  115  ASN115     -0.0877
     72  N        -15.3260    0.8660    6.9910 N.3   157  LEU157     -0.1245
     73  CA       -14.1920    0.3650    6.2150 C.3   157  LEU157      0.1561
     74  C        -12.9160    1.1460    6.5230 C.2   157  LEU157      0.2260
     75  O        -11.8020    0.6300    6.3400 O.2   157  LEU157     -0.2867
     76  CB       -14.5090    0.4070    4.7240 C.3   157  LEU157      0.0270
     77  CG       -15.6610   -0.4580    4.2130 C.3   157  LEU157      0.0019
     78  CD1      -15.8180   -0.4170    2.6570 C.3   157  LEU157      0.0001
     79  CD2      -15.3940   -1.8520    4.5750 C.3   157  LEU157      0.0001
@<TRIPOS>BOND
     1    21    22    1
     2    21    18    1
     3     3     4    2
     4     3     2    1
     5    22    23    1
     6    20    19    2
     7    19    18    1
     8     1     2    1
     9    36    34    1
    10    23    25   ar
    11    23    24   ar
    12    18    17    1
    13     5     2    1
    14     5     6    1
    15    34    35    1
    16    34    33    2
    17    70    69    2
    18    33    32    1
    19     7     6    1
    20    32    31    1
    21    17    11   am
    22    71    69   am
    23     6     8    1
    24    69    68    1
    25     9    10    1
    26    63    61   am
    27    11    12    2
    28    11    10    1
    29    31    30    1
    30    68    65    1
    31    30    27    1
    32    54    51    1
    33    60    59    1
    34    60    61    1
    35    59    56    1
    36    10    13    1
    37    61    62    2
    38    65    64    1
    39    65    66    1
    40    58    57    2
    41    57    64   am
    42    57    56    1
    43    13    14    1
    44    67    66    2
    45    51    50    1
    46    51    52    1
    47    56    55    1
    48    29    28    2
    49    27    28    1
    50    27    26    1
    51    53    52    2
    52    28    37   am
    53    78    77    1
    54    14    15    1
    55    14    16    1
    56    48    46    1
    57    50    44   am
    58    37    38    1
    59    38    41    1
    60    38    39    1
    61    45    44    2
    62    44    43    1
    63    46    43    1
    64    46    47    1
    65    49    47    1
    66    40    39    2
    67    77    79    1
    68    77    76    1
    69    43    42    1
    70    76    73    1
    71    73    74    1
    72    73    72    1
    73    75    74    2
