@<TRIPOS>MOLECULE
tmp/6ht8D00.pdb
 117 112 0 0 0
SMALL
GASTEIGER

@<TRIPOS>ATOM
      1  N         47.7260   38.6340   25.9570 N.3    19  LYS19      -0.1245
      2  CA        48.6780   39.4200   25.1780 C.3    19  LYS19       0.1561
      3  C         49.3900   38.6350   24.0900 C.2    19  LYS19       0.2260
      4  O         49.7370   39.2110   23.0520 O.2    19  LYS19      -0.2867
      5  CB        49.7480   40.0320   26.0760 C.3    19  LYS19       0.0271
      6  CG        50.5340   41.1170   25.3710 C.3    19  LYS19       0.0035
      7  CD        51.9610   41.1700   25.8480 C.3    19  LYS19       0.0206
      8  CE        52.6140   42.4740   25.3970 C.3    19  LYS19       0.1093
      9  NZ        53.5910   43.0640   26.3890 N.3    19  LYS19      -0.1314
     10  N         50.2600   46.8840   32.6870 N.3    99  ASP99      -0.1239
     11  CA        50.8520   46.0390   31.6500 C.3    99  ASP99       0.1674
     12  C         50.9220   44.5700   32.0490 C.2    99  ASP99       0.2266
     13  O         51.0890   43.7100   31.1770 O.2    99  ASP99      -0.2867
     14  CB        52.2580   46.5330   31.3110 C.3    99  ASP99       0.1410
     15  CG        52.2450   47.7470   30.4150 C.2    99  ASP99       0.3668
     16  OD1       51.3360   47.8290   29.5540 O.co2  99  ASP99      -0.2456
     17  OD2       53.1410   48.6140   30.5690 O.co2  99  ASP99      -0.2456
     18  N         62.2530   38.1130   30.0690 N.3   140  HIS140     -0.1226
     19  CA        63.4390   38.6710   30.6920 C.3   140  HIS140      0.1752
     20  C         63.1820   39.9050   31.5570 C.2   140  HIS140      0.2596
     21  O         64.0980   40.3070   32.2860 O.2   140  HIS140     -0.2718
     22  CB        64.4820   38.9730   29.6090 C.3   140  HIS140      0.0759
     23  CG        63.9990   39.8720   28.5040 C.ar  140  HIS140      0.0818
     24  ND1       64.8570   40.4090   27.5660 N.ar  140  HIS140     -0.2268
     25  CD2       62.7630   40.3240   28.1820 C.ar  140  HIS140      0.1154
     26  CE1       64.1720   41.1570   26.7210 C.ar  140  HIS140      0.1986
     27  NE2       62.9000   41.1170   27.0700 N.ar  140  HIS140     -0.2212
     28  N         61.9700   40.4810   31.5520 N.am  141  HIS141     -0.1975
     29  CA        61.6830   41.6640   32.3780 C.3   141  HIS141      0.1656
     30  C         61.2760   41.3610   33.8290 C.2   141  HIS141      0.2291
     31  O         61.3690   42.2670   34.6720 O.2   141  HIS141     -0.2864
     32  CB        60.5630   42.5090   31.7490 C.3   141  HIS141      0.0771
     33  CG        60.9300   43.1150   30.4280 C.ar  141  HIS141      0.0820
     34  ND1       62.1610   43.6990   30.1890 N.ar  141  HIS141     -0.2267
     35  CD2       60.2380   43.2110   29.2710 C.ar  141  HIS141      0.1154
     36  CE1       62.2010   44.1430   28.9480 C.ar  141  HIS141      0.1986
     37  NE2       61.0470   43.8620   28.3720 N.ar  141  HIS141     -0.2212
     38  N         56.6050   44.2580   31.8360 N.3   149  GLY149     -0.1225
     39  CA        56.6440   43.9170   30.4170 C.3   149  GLY149      0.1811
     40  C         55.9370   42.6240   30.0690 C.2   149  GLY149      0.2280
     41  O         56.4270   41.8500   29.2360 O.2   149  GLY149     -0.2866
     42  N         55.8760   40.0590   31.7720 N.3   151  CYS151     -0.1235
     43  CA        56.6430   38.9530   32.3250 C.3   151  CYS151      0.1677
     44  C         56.3230   38.8270   33.8120 C.2   151  CYS151      0.2270
     45  O         56.5930   39.7440   34.5910 O.2   151  CYS151     -0.2867
     46  CB        58.1350   39.1650   32.0950 C.3   151  CYS151      0.0956
     47  SG        58.5870   39.5040   30.3760 S.3   151  CYS151     -0.0801
     48  N         66.4250   40.4950   21.8270 N.3   176  ASP176     -0.1239
     49  CA        65.1880   41.2700   21.9140 C.3   176  ASP176      0.1674
     50  C         65.3920   42.7660   21.6340 C.2   176  ASP176      0.2266
     51  O         66.4340   43.3560   21.9500 O.2   176  ASP176     -0.2867
     52  CB        64.6220   41.0980   23.3140 C.3   176  ASP176      0.1410
     53  CG        63.1730   41.3310   23.3730 C.2   176  ASP176      0.3668
     54  OD1       62.7670   42.5070   23.4640 O.co2 176  ASP176     -0.2456
     55  OD2       62.4250   40.3480   23.3260 O.co2 176  ASP176     -0.2456
     56  N         63.9930   44.9740   23.3820 N.3   178  HIS178     -0.1241
     57  CA        64.0080   45.6100   24.6990 C.3   178  HIS178      0.1621
     58  C         65.1820   45.1330   25.5590 C.2   178  HIS178      0.2264
     59  O         65.6720   44.0100   25.4290 O.2   178  HIS178     -0.2867
     60  CB        62.6900   45.3520   25.4370 C.3   178  HIS178      0.0745
     61  CG        61.5040   45.9410   24.7400 C.ar  178  HIS178      0.0817
     62  ND1       60.6550   45.1950   23.9520 N.ar  178  HIS178     -0.2268
     63  CD2       61.0590   47.2190   24.6570 C.ar  178  HIS178      0.1154
     64  CE1       59.7200   45.9750   23.4340 C.ar  178  HIS178      0.1986
     65  NE2       59.9460   47.2100   23.8390 N.ar  178  HIS178     -0.2212
     66  N         60.4130   51.7750   26.7630 N.3   206  PHE206     -0.1241
     67  CA        60.4790   50.6590   27.7110 C.3   206  PHE206      0.1605
     68  C         61.7900   49.8960   27.5800 C.2   206  PHE206      0.2264
     69  O         62.2560   49.7260   26.4530 O.2   206  PHE206     -0.2867
     70  CB        59.2960   49.7180   27.4830 C.3   206  PHE206      0.0534
     71  CG        59.1020   48.7160   28.5730 C.ar  206  PHE206     -0.0203
     72  CD1       58.3730   49.0400   29.7080 C.ar  206  PHE206     -0.0042
     73  CD2       59.6650   47.4400   28.4700 C.ar  206  PHE206     -0.0042
     74  CE1       58.2040   48.1090   30.7280 C.ar  206  PHE206     -0.0003
     75  CE2       59.5070   46.5090   29.4700 C.ar  206  PHE206     -0.0003
     76  CZ        58.7670   46.8320   30.6010 C.ar  206  PHE206     -0.0000
     77  N         60.7710   41.0320   18.1230 N.3   269  ASP269     -0.1239
     78  CA        60.2130   42.3420   17.8680 C.3   269  ASP269      0.1674
     79  C         61.2080   43.2960   17.2320 C.2   269  ASP269      0.2266
     80  O         60.8560   44.4620   17.0160 O.2   269  ASP269     -0.2867
     81  CB        59.6200   42.9610   19.1510 C.3   269  ASP269      0.1410
     82  CG        60.4230   42.6440   20.4280 C.2   269  ASP269      0.3668
     83  OD1       61.5270   42.0500   20.3630 O.co2 269  ASP269     -0.2456
     84  OD2       59.9300   43.0280   21.5120 O.co2 269  ASP269     -0.2456
     85  N         54.9040   45.3460   14.9930 N.3   275  PRO275     -0.2102
     86  CA        54.1480   46.5950   15.1710 C.3   275  PRO275      0.1504
     87  C         54.9020   47.6900   15.9390 C.2   275  PRO275      0.2575
     88  O         54.4700   48.8470   15.8880 O.2   275  PRO275     -0.2718
     89  CB        52.8820   46.1370   15.9070 C.3   275  PRO275      0.0282
     90  CG        53.1240   44.7330   16.3220 C.3   275  PRO275      0.0208
     91  CD        54.1270   44.1650   15.3700 C.3   275  PRO275      0.0893
     92  N         56.0010   47.3760   16.6460 N.am  276  HIS276     -0.1976
     93  CA        56.8380   48.4400   17.2000 C.3   276  HIS276      0.1656
     94  C         57.4610   49.2640   16.0890 C.2   276  HIS276      0.2291
     95  O         57.5510   50.4970   16.1950 O.2   276  HIS276     -0.2864
     96  CB        57.9310   47.8620   18.0970 C.3   276  HIS276      0.0771
     97  CG        57.4360   47.3820   19.4300 C.ar  276  HIS276      0.0820
     98  ND1       56.8410   46.1530   19.6040 N.ar  276  HIS276     -0.2267
     99  CD2       57.4430   47.9700   20.6540 C.ar  276  HIS276      0.1154
    100  CE1       56.4980   46.0050   20.8750 C.ar  276  HIS276      0.1986
    101  NE2       56.8410   47.0980   21.5320 N.ar  276  HIS276     -0.2212
    102  N         59.7450   38.6430   23.1020 N.3   310  GLY310     -0.1225
    103  CA        58.8680   39.4940   22.3170 C.3   310  GLY310      0.1811
    104  C         58.6580   38.9830   20.8920 C.2   310  GLY310      0.2280
    105  O         59.3500   38.0940   20.3770 O.2   310  GLY310     -0.2866
    106  N         55.2470   40.5020   18.2700 N.3   312  TYR312     -0.1241
    107  CA        53.8450   40.9020   18.3050 C.3   312  TYR312      0.1605
    108  C         53.1650   40.8470   16.9440 C.2   312  TYR312      0.2264
    109  O         51.9400   40.8980   16.8690 O.2   312  TYR312     -0.2867
    110  CB        53.7290   42.3010   18.9410 C.3   312  TYR312      0.0534
    111  CG        54.3720   42.2280   20.2980 C.ar  312  TYR312     -0.0201
    112  CD1       53.6900   41.6500   21.3760 C.ar  312  TYR312     -0.0009
    113  CD2       55.6980   42.6190   20.4840 C.ar  312  TYR312     -0.0009
    114  CE1       54.2970   41.5110   22.6100 C.ar  312  TYR312      0.0417
    115  CE2       56.3130   42.4850   21.7140 C.ar  312  TYR312      0.0417
    116  CZ        55.6050   41.9250   22.7670 C.ar  312  TYR312      0.1957
    117  OH        56.2070   41.7900   23.9770 O.3   312  TYR312     -0.2866
@<TRIPOS>BOND
     1    85    86    1
     2    85    91    1
     3    86    89    1
     4    86    87    1
     5    91    90    1
     6    88    87    2
     7    89    90    1
     8    87    92   am
     9    94    95    2
    10    94    93    1
    11    92    93    1
    12   109   108    2
    13   108   107    1
    14    80    79    2
    15    93    96    1
    16    79    78    1
    17    78    77    1
    18    78    81    1
    19    96    97    1
    20   106   107    1
    21   107   110    1
    22   110   111    1
    23    81    82    1
    24    97    98   ar
    25    97    99   ar
    26    98   100   ar
    27   111   113   ar
    28   111   112   ar
    29    83    82   ar
    30   105   104    2
    31    82    84   ar
    32   113   115   ar
    33    99   101   ar
    34   100   101   ar
    35   104   103    1
    36   112   114   ar
    37    50    49    1
    38    50    51    2
    39   115   116   ar
    40    48    49    1
    41    49    52    1
    42   103   102    1
    43   114   116   ar
    44   116   117    1
    45     4     3    2
    46    52    53    1
    47    55    53   ar
    48    53    54   ar
    49    56    57    1
    50    64    65   ar
    51    64    62   ar
    52    65    63   ar
    53    62    61   ar
    54     3     2    1
    55    63    61   ar
    56    57    60    1
    57    57    58    1
    58    61    60    1
    59     2     1    1
    60     2     5    1
    61     6     7    1
    62     6     5    1
    63     8     7    1
    64     8     9    1
    65    59    58    2
    66    69    68    2
    67    26    27   ar
    68    26    24   ar
    69    66    67    1
    70    27    25   ar
    71    70    67    1
    72    70    71    1
    73    24    23   ar
    74    68    67    1
    75    25    23   ar
    76    37    36   ar
    77    37    35   ar
    78    73    71   ar
    79    73    75   ar
    80    23    22    1
    81    71    72   ar
    82    36    34   ar
    83    41    40    2
    84    35    33   ar
    85    75    76   ar
    86    16    15   ar
    87    22    19    1
    88    72    74   ar
    89    40    39    1
    90    18    19    1
    91    34    33   ar
    92    47    46    1
    93    15    17   ar
    94    15    14    1
    95    39    38    1
    96    33    32    1
    97    76    74   ar
    98    19    20    1
    99    13    12    2
   100    14    11    1
   101    28    20   am
   102    28    29    1
   103    20    21    2
   104    11    12    1
   105    11    10    1
   106    32    29    1
   107    42    43    1
   108    46    43    1
   109    43    44    1
   110    29    30    1
   111    44    45    2
   112    30    31    2
