@<TRIPOS>MOLECULE
tmp/6htdH00.pdb
 138 130 0 0 0
SMALL
GASTEIGER

@<TRIPOS>ATOM
      1  N         65.1160 -139.1910   44.5690 N.3     1  THR1       -0.1218
      2  CA        65.4390 -138.0640   45.4980 C.3     1  THR1        0.1862
      3  C         65.4150 -138.5530   46.9370 C.2     1  THR1        0.2287
      4  O         64.5110 -139.2900   47.3400 O.2     1  THR1       -0.2866
      5  CB        64.4790 -136.8750   45.3380 C.3     1  THR1        0.1770
      6  OG1       64.6450 -136.3980   44.0090 O.3     1  THR1       -0.2211
      7  CG2       64.8480 -135.7220   46.2820 C.3     1  THR1        0.0375
      8  N         70.7370 -136.4470   42.2280 N.3    19  ARG19      -0.1231
      9  CA        70.2740 -137.1230   41.0040 C.3    19  ARG19       0.1694
     10  C         68.9020 -136.6130   40.5480 C.2    19  ARG19       0.2592
     11  O         67.8980 -136.7920   41.2500 O.2    19  ARG19      -0.2718
     12  CB        70.2130 -138.6390   41.2100 C.3    19  ARG19       0.0321
     13  CG        69.6070 -139.4030   40.0400 C.3    19  ARG19       0.0489
     14  CD        69.6580 -140.9020   40.2540 C.3    19  ARG19       0.2205
     15  NE        71.0210 -141.4180   40.1470 N.pl3  19  ARG19      -0.0865
     16  CZ        71.3750 -142.6890   40.3330 C.cat  19  ARG19       0.5346
     17  NH1       70.4730 -143.6180   40.6530 N.pl3  19  ARG19       0.1354
     18  NH2       72.6510 -143.0370   40.2010 N.pl3  19  ARG19       0.1354
     19  N         68.8710 -136.0060   39.3620 N.am   20  ALA20      -0.1966
     20  CA        67.6330 -135.5680   38.7180 C.3    20  ALA20       0.1728
     21  C         67.3280 -136.5590   37.6170 C.2    20  ALA20       0.2617
     22  O         68.1720 -136.7920   36.7500 O.2    20  ALA20      -0.2715
     23  CB        67.8030 -134.1770   38.1300 C.3    20  ALA20       0.0334
     24  N         66.1360 -137.1450   37.6500 N.am   21  THR21      -0.1937
     25  CA        65.7770 -138.1880   36.6980 C.3    21  THR21       0.2028
     26  C         64.5800 -137.7920   35.8550 C.2    21  THR21       0.2642
     27  O         63.7080 -137.0550   36.3100 O.2    21  THR21      -0.2714
     28  CB        65.4570 -139.5260   37.4050 C.3    21  THR21       0.1808
     29  OG1       64.3120 -139.3760   38.2500 O.3    21  THR21      -0.2208
     30  CG2       66.6160 -139.9710   38.2520 C.3    21  THR21       0.0379
     31  N         64.5680 -138.2840   34.6190 N.am   22  GLU22      -0.1963
     32  CA        63.3810 -138.2940   33.7850 C.3    22  GLU22       0.1733
     33  C         63.0660 -139.7550   33.4980 C.2    22  GLU22       0.2616
     34  O         63.7670 -140.4060   32.7190 O.2    22  GLU22      -0.2715
     35  CB        63.6170 -137.5400   32.4830 C.3    22  GLU22       0.0429
     36  CG        62.3190 -137.2100   31.7610 C.3    22  GLU22       0.1163
     37  CD        62.5360 -136.7580   30.3280 C.2    22  GLU22       0.3649
     38  OE1       62.9910 -137.5930   29.5030 O.co2  22  GLU22      -0.2457
     39  OE2       62.2350 -135.5750   30.0260 O.co2  22  GLU22      -0.2457
     40  N         62.0180 -140.2670   34.1380 N.am   23  GLY23      -0.1955
     41  CA        61.6720 -141.6780   34.0460 C.3    23  GLY23       0.1869
     42  C         62.7650 -142.5090   34.6870 C.2    23  GLY23       0.2309
     43  O         63.0500 -142.3550   35.8710 O.2    23  GLY23      -0.2863
     44  N         69.1530 -137.3940   33.9370 N.3    27  ALA27      -0.1245
     45  CA        69.4200 -136.1900   33.1390 C.3    27  ALA27       0.1562
     46  C         70.5660 -135.3540   33.7050 C.2    27  ALA27       0.2260
     47  O         71.3580 -134.8070   32.9410 O.2    27  ALA27      -0.2867
     48  CB        68.1640 -135.3420   33.0180 C.3    27  ALA27       0.0290
     49  N         72.7740 -132.1980   40.3780 N.3    31  CYS31      -0.1221
     50  CA        71.7760 -131.1130   40.3110 C.3    31  CYS31       0.1808
     51  C         71.4400 -130.7350   41.7450 C.2    31  CYS31       0.2602
     52  O         71.2670 -131.6130   42.5480 O.2    31  CYS31      -0.2717
     53  CB        70.5180 -131.5620   39.5990 C.3    31  CYS31       0.0970
     54  SG        69.2880 -132.1250   40.7860 S.3    31  CYS31      -0.0800
     55  N         71.3430 -129.4450   42.0000 N.am   32  SER32      -0.1938
     56  CA        71.1450 -128.8430   43.3280 C.3    32  SER32       0.2055
     57  C         69.6750 -128.9450   43.7480 C.2    32  SER32       0.2642
     58  O         68.7870 -128.4860   43.0220 O.2    32  SER32      -0.2714
     59  CB        71.6060 -127.3780   43.3530 C.3    32  SER32       0.2130
     60  OG        71.6400 -126.8660   44.6820 O.3    32  SER32      -0.2179
     61  N         69.4330 -129.5600   44.9090 N.am   33  LYS33      -0.1977
     62  CA        68.0800 -129.7130   45.4650 C.3    33  LYS33       0.1596
     63  C         67.8200 -128.9090   46.7430 C.2    33  LYS33       0.2287
     64  O         66.6870 -128.8890   47.2200 O.2    33  LYS33      -0.2864
     65  CB        67.7950 -131.1930   45.7310 C.3    33  LYS33       0.0298
     66  CG        67.8430 -132.0480   44.4800 C.3    33  LYS33       0.0038
     67  CD        67.6590 -133.5130   44.8080 C.3    33  LYS33       0.0206
     68  CE        67.8850 -134.3660   43.5720 C.3    33  LYS33       0.1093
     69  NZ        67.5290 -135.7800   43.8440 N.3    33  LYS33      -0.1314
     70  N         67.4580 -125.3260   48.2980 N.3    35  HIS35      -0.1241
     71  CA        67.1130 -124.0130   47.7810 C.3    35  HIS35       0.1621
     72  C         67.1480 -122.9440   48.8430 C.2    35  HIS35       0.2264
     73  O         66.9420 -123.2030   50.0250 O.2    35  HIS35      -0.2867
     74  CB        65.7190 -124.0400   47.1780 C.3    35  HIS35       0.0745
     75  CG        65.5930 -124.9660   46.0140 C.ar   35  HIS35       0.0817
     76  ND1       65.0830 -126.2410   46.1320 N.ar   35  HIS35      -0.2268
     77  CD2       65.9260 -124.8090   44.7120 C.ar   35  HIS35       0.1154
     78  CE1       65.1000 -126.8290   44.9490 C.ar   35  HIS35       0.1986
     79  NE2       65.6070 -125.9810   44.0700 N.ar   35  HIS35      -0.2212
     80  N         64.1240 -129.9550   48.3560 N.3    45  GLY45      -0.1210
     81  CA        63.0110 -130.1570   47.4380 C.3    45  GLY45       0.1956
     82  C         62.9450 -131.5400   46.8280 C.2    45  GLY45       0.2612
     83  O         63.9450 -132.0440   46.3220 O.2    45  GLY45      -0.2717
     84  N         61.7630 -132.1490   46.8840 N.am   46  ALA46      -0.1965
     85  CA        61.4960 -133.4480   46.2590 C.3    46  ALA46       0.1728
     86  C         60.1550 -133.3930   45.5300 C.2    46  ALA46       0.2617
     87  O         59.4780 -132.3660   45.5510 O.2    46  ALA46      -0.2715
     88  CB        61.4910 -134.5450   47.3120 C.3    46  ALA46       0.0334
     89  N         59.7610 -134.4960   44.9050 N.am   47  GLY47      -0.1940
     90  CA        58.5870 -134.5130   44.0470 C.3    47  GLY47       0.2014
     91  C         58.8780 -133.9430   42.6660 C.2    47  GLY47       0.2640
     92  O         59.9950 -134.0830   42.1430 O.2    47  GLY47      -0.2714
     93  N         57.8600 -133.3100   42.0770 N.am   48  THR48      -0.1936
     94  CA        57.9650 -132.6940   40.7550 C.3    48  THR48       0.2028
     95  C         58.9290 -131.5150   40.8250 C.2    48  THR48       0.2642
     96  O         58.6980 -130.5640   41.5720 O.2    48  THR48      -0.2714
     97  CB        56.5950 -132.1970   40.2490 C.3    48  THR48       0.1808
     98  OG1       55.6480 -133.2730   40.2860 O.3    48  THR48      -0.2208
     99  CG2       56.7010 -131.6610   38.8180 C.3    48  THR48       0.0379
    100  N         59.9950 -131.5860   40.0350 N.am   49  ALA49      -0.1963
    101  CA        61.1190 -130.6530   40.1520 C.3    49  ALA49       0.1728
    102  C         60.7730 -129.1950   39.8260 C.2    49  ALA49       0.2616
    103  O         61.1930 -128.2950   40.5510 O.2    49  ALA49      -0.2715
    104  CB        62.2760 -131.1260   39.2860 C.3    49  ALA49       0.0334
    105  N         60.0190 -128.9720   38.7460 N.am   50  ALA50      -0.1977
    106  CA        59.5830 -127.6190   38.3530 C.3    50  ALA50       0.1597
    107  C         58.7630 -126.9610   39.4580 C.2    50  ALA50       0.2287
    108  O         58.9890 -125.8030   39.7970 O.2    50  ALA50      -0.2864
    109  CB        58.7620 -127.6650   37.0730 C.3    50  ALA50       0.0319
    110  N         58.7700 -127.7790   42.6550 N.3    52  THR52      -0.1203
    111  CA        59.6800 -127.5760   43.7750 C.3    52  THR52       0.1994
    112  C         60.4810 -126.2870   43.6000 C.2    52  THR52       0.2617
    113  O         60.5640 -125.4810   44.5250 O.2    52  THR52      -0.2717
    114  CB        60.6020 -128.8080   43.9360 C.3    52  THR52       0.1784
    115  OG1       59.9110 -129.8080   44.6950 O.3    52  THR52      -0.2211
    116  CG2       61.9050 -128.4860   44.6370 C.3    52  THR52       0.0376
    117  N         61.0560 -126.1070   42.4130 N.am   53  ASP53      -0.1973
    118  CA        61.8710 -124.9240   42.0990 C.3    53  ASP53       0.1709
    119  C         61.0720 -123.6240   42.1310 C.2    53  ASP53       0.2293
    120  O         61.4870 -122.6590   42.7570 O.2    53  ASP53      -0.2864
    121  CB        62.5380 -125.0620   40.7190 C.3    53  ASP53       0.1436
    122  CG        63.6790 -126.0800   40.7020 C.2    53  ASP53       0.3671
    123  OD1       63.9290 -126.6690   39.6230 O.co2  53  ASP53      -0.2456
    124  OD2       64.3340 -126.2890   41.7490 O.co2  53  ASP53      -0.2456
    125  N         61.0480 -137.8320   49.6720 N.3   128  GLY128     -0.1210
    126  CA        61.4690 -138.3270   48.3640 C.3   128  GLY128      0.1956
    127  C         61.4150 -139.8400   48.3360 C.2   128  GLY128      0.2612
    128  O         61.0270 -140.4650   49.3150 O.2   128  GLY128     -0.2717
    129  N         61.8080 -140.4250   47.2090 N.am  129  SER129     -0.1952
    130  CA        61.7540 -141.8770   47.0220 C.3   129  SER129      0.1924
    131  C         62.6980 -142.6310   47.9660 C.2   129  SER129      0.2314
    132  O         62.4500 -143.7960   48.2870 O.2   129  SER129     -0.2863
    133  CB        62.0510 -142.2440   45.5660 C.3   129  SER129      0.2116
    134  OG        63.2710 -141.6720   45.1430 O.3   129  SER129     -0.2180
    135  N         65.9870 -144.1320   42.6280 N.3   168  GLY168     -0.1225
    136  CA        65.6620 -142.7380   42.3270 C.3   168  GLY168      0.1811
    137  C         66.7040 -141.7300   42.7990 C.2   168  GLY168      0.2280
    138  O         66.7900 -140.6170   42.2580 O.2   168  GLY168     -0.2866
@<TRIPOS>BOND
     1    38    37   ar
     2    39    37   ar
     3    37    36    1
     4    36    35    1
     5    35    32    1
     6    34    33    2
     7    47    46    2
     8    48    45    1
     9    45    46    1
    10    45    44    1
    11    33    32    1
    12    33    40   am
    13    32    31    1
    14    41    40    1
    15    41    42    1
    16    31    26   am
    17    42    43    2
    18    26    27    2
    19    26    25    1
    20    25    28    1
    21    25    24    1
    22    22    21    2
    23   109   106    1
    24    28    29    1
    25    28    30    1
    26    21    24   am
    27    21    20    1
    28    23    20    1
    29   106   105    1
    30   106   107    1
    31    20    19    1
    32   105   102   am
    33    99    97    1
    34   104   101    1
    35    19    10   am
    36   107   108    2
    37    53    50    1
    38    53    54    1
    39   123   122   ar
    40   102   101    1
    41   102   103    2
    42   100   101    1
    43   100    95   am
    44    13    14    1
    45    13    12    1
    46    15    14    1
    47    15    16    2
    48    18    16    1
    49    97    98    1
    50    97    94    1
    51    50    49    1
    52    50    51    1
    53    16    17    1
    54    10     9    1
    55    10    11    2
    56   122   121    1
    57   122   124   ar
    58   121   118    1
    59    94    95    1
    60    94    93    1
    61    95    96    2
    62     9    12    1
    63     9     8    1
    64    51    55   am
    65    51    52    2
    66    55    56    1
    67    93    91   am
    68   118   119    1
    69   118   117    1
    70   119   120    2
    71    92    91    2
    72   138   137    2
    73   136   135    1
    74   136   137    1
    75   117   112   am
    76   110   111    1
    77    91    90    1
    78    58    57    2
    79    56    59    1
    80    56    57    1
    81    59    60    1
    82    68    69    1
    83    68    67    1
    84   112   111    1
    85   112   113    2
    86    57    61   am
    87   111   114    1
    88   114   116    1
    89   114   115    1
    90     6     5    1
    91    90    89    1
    92    79    77   ar
    93    79    78   ar
    94    66    67    1
    95    66    65    1
    96     1     2    1
    97    77    75   ar
    98    89    86   am
    99    61    62    1
   100    78    76   ar
   101   134   133    1
   102     5     2    1
   103     5     7    1
   104    62    65    1
   105    62    63    1
   106     2     3    1
   107    86    87    2
   108    86    85    1
   109   133   130    1
   110    75    76   ar
   111    75    74    1
   112    85    84    1
   113    85    88    1
   114    83    82    2
   115    63    64    2
   116    82    84   am
   117    82    81    1
   118     3     4    2
   119   130   129    1
   120   130   131    1
   121    74    71    1
   122   129   127   am
   123    81    80    1
   124    71    70    1
   125    71    72    1
   126   131   132    2
   127   127   126    1
   128   127   128    2
   129   126   125    1
   130    72    73    2
