@<TRIPOS>MOLECULE
tmp/6hthA00.pdb
 142 139 0 0 0
SMALL
GASTEIGER

@<TRIPOS>ATOM
      1  N         51.7980   42.6150   84.8990 N.3    19  LYS19      -0.1245
      2  CA        50.9690   41.7020   85.6940 C.3    19  LYS19       0.1561
      3  C         51.7580   41.0780   86.8600 C.2    19  LYS19       0.2260
      4  O         51.2740   41.0320   88.0000 O.2    19  LYS19      -0.2867
      5  CB        50.3930   40.5960   84.8010 C.3    19  LYS19       0.0271
      6  CG        49.1090   39.9540   85.3370 C.3    19  LYS19       0.0035
      7  CD        48.9720   38.5080   84.8720 C.3    19  LYS19       0.0206
      8  CE        47.5250   38.0010   84.9190 C.3    19  LYS19       0.1093
      9  NZ        47.3010   36.7330   84.1120 N.3    19  LYS19      -0.1314
     10  N         43.5130   40.8220   78.2310 N.3    99  ASP99      -0.1239
     11  CA        44.3130   40.1440   79.2490 C.3    99  ASP99       0.1674
     12  C         45.7750   39.9370   78.8390 C.2    99  ASP99       0.2266
     13  O         46.6300   39.7120   79.7210 O.2    99  ASP99      -0.2867
     14  CB        43.6730   38.7910   79.5670 C.3    99  ASP99       0.1410
     15  CG        43.3470   37.9840   78.3040 C.2    99  ASP99       0.3668
     16  OD1       42.5850   38.4790   77.4420 O.co2  99  ASP99      -0.2456
     17  OD2       43.8600   36.8560   78.1630 O.co2  99  ASP99      -0.2456
     18  N         54.0640   28.7030   81.5630 N.3   139  TRP139     -0.1227
     19  CA        53.0630   29.5350   80.8560 C.3   139  TRP139      0.1737
     20  C         52.1620   28.6560   79.9740 C.2   139  TRP139      0.2595
     21  O         52.1360   28.7120   78.7160 O.2   139  TRP139     -0.2718
     22  CB        53.7800   30.6610   80.0720 C.3   139  TRP139      0.0564
     23  CG        54.6270   31.3910   81.0400 C.ar  139  TRP139      0.0003
     24  CD1       55.9930   31.4260   81.0760 C.ar  139  TRP139      0.0946
     25  CD2       54.1710   32.0660   82.2580 C.ar  139  TRP139      0.0152
     26  NE1       56.4190   32.1360   82.2130 N.ar  139  TRP139     -0.2442
     27  CE2       55.3250   32.5100   82.9540 C.ar  139  TRP139      0.0810
     28  CE3       52.9040   32.2990   82.8340 C.ar  139  TRP139      0.0012
     29  CZ2       55.2510   33.2030   84.2020 C.ar  139  TRP139      0.0191
     30  CZ3       52.8270   32.9980   84.0650 C.ar  139  TRP139      0.0001
     31  CH2       54.0010   33.4530   84.7250 C.ar  139  TRP139      0.0015
     32  N         51.3150   27.9020   80.6760 N.am  140  HIS140     -0.1961
     33  CA        50.6360   26.7540   80.0840 C.3   140  HIS140      0.1787
     34  C         49.4080   27.1020   79.2230 C.2   140  HIS140      0.2620
     35  O         48.8850   26.1870   78.5750 O.2   140  HIS140     -0.2715
     36  CB        50.2420   25.7550   81.1820 C.3   140  HIS140      0.0785
     37  CG        49.3440   26.3290   82.2270 C.ar  140  HIS140      0.0821
     38  ND1       48.7260   25.5570   83.1870 N.ar  140  HIS140     -0.2267
     39  CD2       48.9930   27.6140   82.4920 C.ar  140  HIS140      0.1154
     40  CE1       48.0370   26.3400   84.0010 C.ar  140  HIS140      0.1986
     41  NE2       48.1920   27.5940   83.6040 N.ar  140  HIS140     -0.2212
     42  N         48.9920   28.3710   79.1070 N.am  141  HIS141     -0.1973
     43  CA        47.7890   28.7100   78.3250 C.3   141  HIS141      0.1656
     44  C         48.0680   29.1410   76.8940 C.2   141  HIS141      0.2291
     45  O         47.1140   29.3000   76.1320 O.2   141  HIS141     -0.2864
     46  CB        47.0160   29.8590   78.9580 C.3   141  HIS141      0.0771
     47  CG        46.4130   29.5270   80.2690 C.ar  141  HIS141      0.0820
     48  ND1       45.6290   28.4050   80.4540 N.ar  141  HIS141     -0.2267
     49  CD2       46.4610   30.1710   81.4640 C.ar  141  HIS141      0.1154
     50  CE1       45.2220   28.3750   81.7150 C.ar  141  HIS141      0.1986
     51  NE2       45.6980   29.4390   82.3400 N.ar  141  HIS141     -0.2212
     52  N         45.5060   34.2360   78.7680 N.3   149  GLY149     -0.1225
     53  CA        45.7830   34.1770   80.1920 C.3   149  GLY149      0.1811
     54  C         47.1760   34.6430   80.5770 C.2   149  GLY149      0.2280
     55  O         47.8640   34.0010   81.3850 O.2   149  GLY149     -0.2866
     56  N         49.7850   34.2670   79.1460 N.3   151  CYS151     -0.1235
     57  CA        50.8050   33.4440   78.5190 C.3   151  CYS151      0.1677
     58  C         50.9270   33.8620   77.0570 C.2   151  CYS151      0.2270
     59  O         49.9360   33.8420   76.3360 O.2   151  CYS151     -0.2867
     60  CB        50.4440   31.9660   78.6000 C.3   151  CYS151      0.0956
     61  SG        50.1170   31.4640   80.2860 S.3   151  CYS151     -0.0801
     62  N         48.3460   23.7450   88.6510 N.3   176  ASP176     -0.1239
     63  CA        47.8220   25.0900   88.7030 C.3   176  ASP176      0.1674
     64  C         46.3040   25.0580   88.9860 C.2   176  ASP176      0.2266
     65  O         45.6310   24.0730   88.7010 O.2   176  ASP176     -0.2867
     66  CB        48.1220   25.7490   87.3580 C.3   176  ASP176      0.1410
     67  CG        47.9570   27.2140   87.4110 C.2   176  ASP176      0.3668
     68  OD1       46.8120   27.6390   87.3360 O.co2 176  ASP176     -0.2456
     69  OD2       48.9520   27.9460   87.4780 O.co2 176  ASP176     -0.2456
     70  N         44.1930   26.5500   87.3430 N.3   178  HIS178     -0.1241
     71  CA        43.5400   26.7230   86.0550 C.3   178  HIS178      0.1621
     72  C         43.9060   25.5110   85.1920 C.2   178  HIS178      0.2264
     73  O         45.0160   24.9760   85.2900 O.2   178  HIS178     -0.2867
     74  CB        43.9810   28.0750   85.4230 C.3   178  HIS178      0.0745
     75  CG        43.4460   29.3010   86.1290 C.ar  178  HIS178      0.0817
     76  ND1       44.2160   30.1060   86.9430 N.ar  178  HIS178     -0.2268
     77  CD2       42.1930   29.8400   86.1520 C.ar  178  HIS178      0.1154
     78  CE1       43.4790   31.0880   87.4350 C.ar  178  HIS178      0.1986
     79  NE2       42.2380   30.9460   86.9780 N.ar  178  HIS178     -0.2212
     80  N         37.8100   30.7840   83.8870 N.3   206  PHE206     -0.1241
     81  CA        38.8650   30.6610   82.8970 C.3   206  PHE206      0.1605
     82  C         39.6110   29.3440   83.0690 C.2   206  PHE206      0.2264
     83  O         39.7620   28.8930   84.2190 O.2   206  PHE206     -0.2867
     84  CB        39.8040   31.8420   83.0290 C.3   206  PHE206      0.0534
     85  CG        40.8550   31.8860   81.9930 C.ar  206  PHE206     -0.0203
     86  CD1       40.5680   32.3870   80.7340 C.ar  206  PHE206     -0.0042
     87  CD2       42.1450   31.4270   82.2560 C.ar  206  PHE206     -0.0042
     88  CE1       41.5500   32.4600   79.7460 C.ar  206  PHE206     -0.0003
     89  CE2       43.1310   31.4550   81.2290 C.ar  206  PHE206     -0.0003
     90  CZ        42.8180   31.9830   79.9790 C.ar  206  PHE206     -0.0000
     91  N         48.4270   29.3700   92.4580 N.3   268  ASP268     -0.1239
     92  CA        47.1790   30.0580   92.7140 C.3   268  ASP268      0.1674
     93  C         46.1740   29.1960   93.4580 C.2   268  ASP268      0.2266
     94  O         45.1000   29.6900   93.7980 O.2   268  ASP268     -0.2867
     95  CB        46.5650   30.6260   91.4300 C.3   268  ASP268      0.1410
     96  CG        46.8120   29.7750   90.1610 C.2   268  ASP268      0.3668
     97  OD1       47.2260   28.6090   90.1640 O.co2 268  ASP268     -0.2456
     98  OD2       46.5660   30.3520   89.1080 O.co2 268  ASP268     -0.2456
     99  N         44.6140   35.5790   95.8870 N.3   274  PRO274     -0.2102
    100  CA        43.4040   36.4170   95.7210 C.3   274  PRO274      0.1504
    101  C         42.2590   35.7070   95.0280 C.2   274  PRO274      0.2576
    102  O         41.1200   36.1690   95.1050 O.2   274  PRO274     -0.2718
    103  CB        43.8970   37.6030   94.8790 C.3   274  PRO274      0.0282
    104  CG        45.3620   37.6000   95.0040 C.3   274  PRO274      0.0208
    105  CD        45.8170   36.2280   95.3470 C.3   274  PRO274      0.0893
    106  N         42.5210   34.6140   94.3170 N.am  275  HIS275     -0.1962
    107  CA        41.4210   33.8620   93.7440 C.3   275  HIS275      0.1787
    108  C         40.4850   33.3400   94.8260 C.2   275  HIS275      0.2620
    109  O         39.2580   33.3400   94.6470 O.2   275  HIS275     -0.2715
    110  CB        41.9840   32.7080   92.9340 C.3   275  HIS275      0.0785
    111  CG        42.3490   33.0970   91.5350 C.ar  275  HIS275      0.0821
    112  ND1       43.6330   33.4420   91.1670 N.ar  275  HIS275     -0.2267
    113  CD2       41.5910   33.2080   90.4160 C.ar  275  HIS275      0.1154
    114  CE1       43.6490   33.7400   89.8800 C.ar  275  HIS275      0.1986
    115  NE2       42.4240   33.6160   89.4070 N.ar  275  HIS275     -0.2212
    116  N         41.0540   32.8680   95.9400 N.am  276  ARG276     -0.1977
    117  CA        40.3350   32.1770   97.0110 C.3   276  ARG276      0.1597
    118  C         39.3340   31.1710   96.4400 C.2   276  ARG276      0.2287
    119  O         38.1380   31.2460   96.7010 O.2   276  ARG276     -0.2864
    120  CB        39.6330   33.1810   97.9250 C.3   276  ARG276      0.0334
    121  CG        40.4280   34.4510   98.1230 C.3   276  ARG276      0.0492
    122  CD        39.7030   35.4220   99.0250 C.3   276  ARG276      0.2205
    123  NE        39.9670   36.8140   98.6570 N.pl3 276  ARG276     -0.0865
    124  CZ        39.3750   37.8620   99.2290 C.cat 276  ARG276      0.5346
    125  NH1       38.4850   37.6790  100.2010 N.pl3 276  ARG276      0.1354
    126  NH2       39.6750   39.0960   98.8330 N.pl3 276  ARG276      0.1354
    127  N         50.8650   30.2970   87.7660 N.3   309  GLY309     -0.1225
    128  CA        50.0800   31.2970   88.4440 C.3   309  GLY309      0.1811
    129  C         50.5300   31.4820   89.8920 C.2   309  GLY309      0.2280
    130  O         51.3440   30.7430   90.4480 O.2   309  GLY309     -0.2866
    131  N         49.2840   34.9390   92.5230 N.3   311  TYR311     -0.1241
    132  CA        49.1110   36.3790   92.5340 C.3   311  TYR311      0.1605
    133  C         49.2080   36.9830   93.9270 C.2   311  TYR311      0.2264
    134  O         49.0730   38.1990   94.0720 O.2   311  TYR311     -0.2867
    135  CB        47.7790   36.7190   91.8590 C.3   311  TYR311      0.0534
    136  CG        47.7540   36.0330   90.5150 C.ar  311  TYR311     -0.0201
    137  CD1       47.2970   34.7030   90.3900 C.ar  311  TYR311     -0.0009
    138  CD2       48.2550   36.6750   89.3800 C.ar  311  TYR311     -0.0009
    139  CE1       47.3100   34.0480   89.1570 C.ar  311  TYR311      0.0417
    140  CE2       48.2660   36.0230   88.1300 C.ar  311  TYR311      0.0417
    141  CZ        47.7920   34.7260   88.0300 C.ar  311  TYR311      0.1957
    142  OH        47.8060   34.0910   86.8160 O.3   311  TYR311     -0.2866
@<TRIPOS>BOND
     1    45    44    2
     2    59    58    2
     3    44    43    1
     4    58    57    1
     5    16    15   ar
     6    17    15   ar
     7    10    11    1
     8    15    14    1
     9    43    46    1
    10    43    42    1
    11    57    60    1
    12    57    56    1
    13    35    34    2
    14    60    61    1
    15    21    20    2
    16    52    53    1
    17    12    11    1
    18    12    13    2
    19    46    47    1
    20    42    34   am
    21    34    33    1
    22    11    14    1
    23    88    90   ar
    24    88    86   ar
    25    20    32   am
    26    20    19    1
    27    90    89   ar
    28    22    19    1
    29    22    23    1
    30    33    32    1
    31    33    36    1
    32    53    54    1
    33    47    48   ar
    34    47    49   ar
    35    48    50   ar
    36    54    55    2
    37    86    85   ar
    38    19    18    1
    39    23    24   ar
    40    23    25   ar
    41    24    26   ar
    42    36    37    1
    43    89    87   ar
    44    49    51   ar
    45    50    51   ar
    46    85    87   ar
    47    85    84    1
    48    26    27   ar
    49    37    39   ar
    50    37    38   ar
    51    25    28   ar
    52    25    27   ar
    53    39    41   ar
    54    28    30   ar
    55    81    84    1
    56    81    82    1
    57    81    80    1
    58    27    29   ar
    59    82    83    2
    60    38    40   ar
    61    41    40   ar
    62    30    31   ar
    63     9     8    1
    64    29    31   ar
    65     5     6    1
    66     5     2    1
    67     7     8    1
    68     7     6    1
    69     1     2    1
    70    72    73    2
    71    72    71    1
    72    74    71    1
    73    74    75    1
    74     2     3    1
    75    71    70    1
    76    75    77   ar
    77    75    76   ar
    78    77    79   ar
    79   142   141    1
    80     3     4    2
    81    76    78   ar
    82    79    78   ar
    83    68    67   ar
    84    66    67    1
    85    66    63    1
    86    67    69   ar
    87   127   128    1
    88   141   140   ar
    89   141   139   ar
    90   140   138   ar
    91   128   129    1
    92    62    63    1
    93    65    64    2
    94    63    64    1
    95    98    96   ar
    96   139   137   ar
    97   138   136   ar
    98   115   114   ar
    99   115   113   ar
   100   114   112   ar
   101   129   130    2
   102    96    97   ar
   103    96    95    1
   104   137   136   ar
   105   113   111   ar
   106   136   135    1
   107   112   111   ar
   108    95    92    1
   109   111   110    1
   110   135   132    1
   111    91    92    1
   112   131   132    1
   113   132   133    1
   114    92    93    1
   115   110   107    1
   116    93    94    2
   117   107   106    1
   118   107   108    1
   119   133   134    2
   120   106   101   am
   121   109   108    2
   122   108   116   am
   123   103   104    1
   124   103   100    1
   125   104   105    1
   126   101   102    2
   127   101   100    1
   128   105    99    1
   129   100    99    1
   130   116   117    1
   131   118   119    2
   132   118   117    1
   133   117   120    1
   134   120   121    1
   135   121   122    1
   136   123   122    1
   137   123   124    2
   138   126   124    1
   139   124   125    1
