@<TRIPOS>MOLECULE
tmp/6htiB00.pdb
 117 112 0 0 0
SMALL
GASTEIGER

@<TRIPOS>ATOM
      1  N         87.3480   24.7290   71.5150 N.3    19  LYS19      -0.1245
      2  CA        86.5340   25.5650   70.6360 C.3    19  LYS19       0.1561
      3  C         87.3610   26.2140   69.5270 C.2    19  LYS19       0.2260
      4  O         86.8910   26.3190   68.3880 O.2    19  LYS19      -0.2867
      5  CB        85.8030   26.6540   71.4220 C.3    19  LYS19       0.0271
      6  CG        84.8090   27.4160   70.5540 C.3    19  LYS19       0.0035
      7  CD        84.1540   28.5600   71.3010 C.3    19  LYS19       0.0206
      8  CE        82.7250   28.7660   70.8290 C.3    19  LYS19       0.1093
      9  NZ        82.0080   29.8540   71.5760 N.3    19  LYS19      -0.1314
     10  N         78.9940   26.4310   78.1160 N.3    99  ASP99      -0.1239
     11  CA        79.7690   27.0050   77.0170 C.3    99  ASP99       0.1674
     12  C         81.1720   27.4160   77.4250 C.2    99  ASP99       0.2266
     13  O         81.9700   27.8140   76.5590 O.2    99  ASP99      -0.2867
     14  CB        79.0380   28.2100   76.4210 C.3    99  ASP99       0.1410
     15  CG        77.8260   27.8000   75.6260 C.2    99  ASP99       0.3668
     16  OD1       77.7450   26.5980   75.2780 O.co2  99  ASP99      -0.2456
     17  OD2       76.9610   28.6640   75.3520 O.co2  99  ASP99      -0.2456
     18  N         86.8220   39.2930   75.4080 N.3   140  HIS140     -0.1226
     19  CA        86.1400   40.4450   75.9930 C.3   140  HIS140      0.1752
     20  C         84.9890   40.0990   76.9300 C.2   140  HIS140      0.2596
     21  O         84.5320   40.9940   77.6520 O.2   140  HIS140     -0.2718
     22  CB        85.6280   41.3880   74.8810 C.3   140  HIS140      0.0759
     23  CG        84.7860   40.7270   73.8210 C.ar  140  HIS140      0.0818
     24  ND1       84.1210   41.4570   72.8560 N.ar  140  HIS140     -0.2268
     25  CD2       84.5250   39.4250   73.5490 C.ar  140  HIS140      0.1154
     26  CE1       83.4760   40.6360   72.0470 C.ar  140  HIS140      0.1986
     27  NE2       83.7060   39.3980   72.4380 N.ar  140  HIS140     -0.2212
     28  N         84.5080   38.8530   76.9460 N.am  141  HIS141     -0.1975
     29  CA        83.3330   38.4980   77.7440 C.3   141  HIS141      0.1656
     30  C         83.6420   38.1440   79.2010 C.2   141  HIS141      0.2291
     31  O         82.7450   38.2560   80.0490 O.2   141  HIS141     -0.2864
     32  CB        82.5860   37.3320   77.0830 C.3   141  HIS141      0.0771
     33  CG        81.9690   37.6840   75.7550 C.ar  141  HIS141      0.0820
     34  ND1       81.1770   38.7980   75.5820 N.ar  141  HIS141     -0.2267
     35  CD2       82.0150   37.0640   74.5520 C.ar  141  HIS141      0.1154
     36  CE1       80.7750   38.8610   74.3240 C.ar  141  HIS141      0.1986
     37  NE2       81.2690   37.8200   73.6790 N.ar  141  HIS141     -0.2212
     38  N         81.1360   32.9570   77.3880 N.3   149  GLY149     -0.1225
     39  CA        81.3910   33.0290   75.9440 C.3   149  GLY149      0.1811
     40  C         82.7230   32.4720   75.4850 C.2   149  GLY149      0.2280
     41  O         83.2970   32.9620   74.4970 O.2   149  GLY149     -0.2866
     42  N         85.3330   32.8290   77.1090 N.3   151  CYS151     -0.1235
     43  CA        86.3170   33.7800   77.6230 C.3   151  CYS151      0.1677
     44  C         86.4890   33.4810   79.1060 C.2   151  CYS151      0.2270
     45  O         85.5490   33.6560   79.8800 O.2   151  CYS151     -0.2867
     46  CB        85.8510   35.2250   77.4420 C.3   151  CYS151      0.0956
     47  SG        85.6170   35.6800   75.7190 S.3   151  CYS151     -0.0801
     48  N         84.0340   43.2400   67.3130 N.3   176  ASP176     -0.1239
     49  CA        83.4550   41.9090   67.3180 C.3   176  ASP176      0.1674
     50  C         81.9520   41.9510   67.0050 C.2   176  ASP176      0.2266
     51  O         81.2730   42.9370   67.2230 O.2   176  ASP176     -0.2867
     52  CB        83.6710   41.2830   68.7090 C.3   176  ASP176      0.1410
     53  CG        83.5480   39.7760   68.7080 C.2   176  ASP176      0.3668
     54  OD1       82.3970   39.2930   68.7680 O.co2 176  ASP176     -0.2456
     55  OD2       84.5870   39.0880   68.6820 O.co2 176  ASP176     -0.2456
     56  N         79.8100   40.5250   68.6480 N.3   178  HIS178     -0.1241
     57  CA        79.1410   40.5250   69.9480 C.3   178  HIS178      0.1621
     58  C         79.5050   41.7540   70.7710 C.2   178  HIS178      0.2264
     59  O         80.6140   42.2810   70.6800 O.2   178  HIS178     -0.2867
     60  CB        79.5210   39.2660   70.7300 C.3   178  HIS178      0.0745
     61  CG        79.0940   37.9980   70.0640 C.ar  178  HIS178      0.0817
     62  ND1       79.9230   37.2800   69.2300 N.ar  178  HIS178     -0.2268
     63  CD2       77.9130   37.3370   70.0820 C.ar  178  HIS178      0.1154
     64  CE1       79.2800   36.2160   68.7820 C.ar  178  HIS178      0.1986
     65  NE2       78.0620   36.2190   69.2980 N.ar  178  HIS178     -0.2212
     66  N         73.2720   36.4610   72.1630 N.3   206  PHE206     -0.1241
     67  CA        74.3410   36.5830   73.1540 C.3   206  PHE206      0.1605
     68  C         75.1430   37.8750   73.0110 C.2   206  PHE206      0.2264
     69  O         75.5350   38.2070   71.8920 O.2   206  PHE206     -0.2867
     70  CB        75.2870   35.3890   72.9960 C.3   206  PHE206      0.0534
     71  CG        76.3910   35.3530   74.0100 C.ar  206  PHE206     -0.0203
     72  CD1       76.1710   34.8090   75.2620 C.ar  206  PHE206     -0.0042
     73  CD2       77.6430   35.8560   73.7140 C.ar  206  PHE206     -0.0042
     74  CE1       77.1790   34.7680   76.2040 C.ar  206  PHE206     -0.0003
     75  CE2       78.6590   35.8250   74.6560 C.ar  206  PHE206     -0.0003
     76  CZ        78.4330   35.2710   75.8940 C.ar  206  PHE206     -0.0000
     77  N         84.0290   37.5640   63.5370 N.3   269  ASP269     -0.1239
     78  CA        82.7380   36.9120   63.3470 C.3   269  ASP269      0.1674
     79  C         81.7020   37.8040   62.6550 C.2   269  ASP269      0.2266
     80  O         80.5600   37.3600   62.4610 O.2   269  ASP269     -0.2867
     81  CB        82.2080   36.3370   64.6860 C.3   269  ASP269      0.1410
     82  CG        82.4770   37.2240   65.8920 C.2   269  ASP269      0.3668
     83  OD1       82.8770   38.3920   65.7500 O.co2 269  ASP269     -0.2456
     84  OD2       82.2330   36.7300   67.0100 O.co2 269  ASP269     -0.2456
     85  N         80.1740   31.3320   60.5100 N.3   275  PRO275     -0.2102
     86  CA        78.9880   30.4680   60.6710 C.3   275  PRO275      0.1504
     87  C         77.8170   31.1490   61.3730 C.2   275  PRO275      0.2575
     88  O         76.6920   30.6380   61.2910 O.2   275  PRO275     -0.2718
     89  CB        79.5130   29.2780   61.4940 C.3   275  PRO275      0.0282
     90  CG        80.9780   29.3810   61.5210 C.3   275  PRO275      0.0208
     91  CD        81.3840   30.7810   61.1370 C.3   275  PRO275      0.0893
     92  N         78.0400   32.2680   62.0800 N.am  276  HIS276     -0.1976
     93  CA        76.9260   33.0410   62.6360 C.3   276  HIS276      0.1656
     94  C         75.9830   33.5380   61.5520 C.2   276  HIS276      0.2291
     95  O         74.7640   33.6110   61.7620 O.2   276  HIS276     -0.2864
     96  CB        77.4430   34.2370   63.4170 C.3   276  HIS276      0.0771
     97  CG        77.9350   33.8890   64.7810 C.ar  276  HIS276      0.0820
     98  ND1       79.2160   33.4380   65.0080 N.ar  276  HIS276     -0.2267
     99  CD2       77.3080   33.8840   65.9820 C.ar  276  HIS276      0.1154
    100  CE1       79.3690   33.2030   66.3020 C.ar  276  HIS276      0.1986
    101  NE2       78.2260   33.4610   66.9110 N.ar  276  HIS276     -0.2212
    102  N         86.5350   36.7490   68.4460 N.3   311  GLY311     -0.1225
    103  CA        85.7350   35.7380   67.7960 C.3   311  GLY311      0.1811
    104  C         86.1590   35.5290   66.3490 C.2   311  GLY311      0.2280
    105  O         87.0040   36.2380   65.8040 O.2   311  GLY311     -0.2866
    106  N         84.8550   32.0830   63.6790 N.3   313  TYR313     -0.1241
    107  CA        84.6350   30.6470   63.7640 C.3   313  TYR313      0.1605
    108  C         84.7470   29.9470   62.4180 C.2   313  TYR313      0.2264
    109  O         84.6040   28.7170   62.3530 O.2   313  TYR313     -0.2867
    110  CB        83.2740   30.4110   64.4400 C.3   313  TYR313      0.0534
    111  CG        83.2890   31.1520   65.7570 C.ar  313  TYR313     -0.0201
    112  CD1       83.9130   30.5990   66.8610 C.ar  313  TYR313     -0.0009
    113  CD2       82.7610   32.4430   65.8730 C.ar  313  TYR313     -0.0009
    114  CE1       83.9740   31.2800   68.0660 C.ar  313  TYR313      0.0417
    115  CE2       82.8310   33.1470   67.0860 C.ar  313  TYR313      0.0417
    116  CZ        83.4420   32.5450   68.1750 C.ar  313  TYR313      0.1957
    117  OH        83.5230   33.1950   69.3930 O.3   313  TYR313     -0.2866
@<TRIPOS>BOND
     1    85    86    1
     2    85    91    1
     3    86    87    1
     4    86    89    1
     5    91    90    1
     6    88    87    2
     7    87    92   am
     8    89    90    1
     9    94    95    2
    10    94    93    1
    11    92    93    1
    12   109   108    2
    13   108   107    1
    14    80    79    2
    15    93    96    1
    16    79    78    1
    17    78    77    1
    18    78    81    1
    19    96    97    1
    20   106   107    1
    21   107   110    1
    22   110   111    1
    23    81    82    1
    24    97    98   ar
    25    97    99   ar
    26    98   100   ar
    27    83    82   ar
    28   111   113   ar
    29   111   112   ar
    30   105   104    2
    31   113   115   ar
    32    82    84   ar
    33    99   101   ar
    34   100   101   ar
    35   104   103    1
    36   112   114   ar
    37    50    51    2
    38    50    49    1
    39   115   116   ar
    40    48    49    1
    41    49    52    1
    42   103   102    1
    43   114   116   ar
    44   116   117    1
    45     4     3    2
    46    56    57    1
    47    55    53   ar
    48    53    52    1
    49    53    54   ar
    50    64    62   ar
    51    64    65   ar
    52    62    61   ar
    53    65    63   ar
    54     3     2    1
    55    57    60    1
    56    57    58    1
    57    61    63   ar
    58    61    60    1
    59     6     7    1
    60     6     5    1
    61     2     5    1
    62     2     1    1
    63    59    58    2
    64     8     7    1
    65     8     9    1
    66    69    68    2
    67    26    27   ar
    68    26    24   ar
    69    66    67    1
    70    27    25   ar
    71    24    23   ar
    72    70    67    1
    73    70    71    1
    74    68    67    1
    75    25    23   ar
    76    37    36   ar
    77    37    35   ar
    78    73    71   ar
    79    73    75   ar
    80    23    22    1
    81    71    72   ar
    82    36    34   ar
    83    41    40    2
    84    35    33   ar
    85    75    76   ar
    86    22    19    1
    87    72    74   ar
    88    16    15   ar
    89    17    15   ar
    90    18    19    1
    91    40    39    1
    92    34    33   ar
    93    15    14    1
    94    47    46    1
    95    33    32    1
    96    76    74   ar
    97    39    38    1
    98    19    20    1
    99    14    11    1
   100    13    12    2
   101    20    28   am
   102    20    21    2
   103    28    29    1
   104    11    12    1
   105    11    10    1
   106    32    29    1
   107    42    43    1
   108    46    43    1
   109    43    44    1
   110    29    30    1
   111    44    45    2
   112    30    31    2
