@<TRIPOS>MOLECULE
tmp/6htkB00.pdb
 214 201 0 0 0
SMALL
GASTEIGER

@<TRIPOS>ATOM
      1  N         32.6410   44.5170   -6.3650 N.3    78  TYR78      -0.1241
      2  CA        33.4600   43.3280   -6.1640 C.3    78  TYR78       0.1605
      3  C         34.8770   43.6240   -6.6380 C.2    78  TYR78       0.2264
      4  O         35.0930   43.9110   -7.8200 O.2    78  TYR78      -0.2867
      5  CB        32.8690   42.1340   -6.9150 C.3    78  TYR78       0.0534
      6  CG        31.6460   41.5330   -6.2520 C.ar   78  TYR78      -0.0201
      7  CD1       30.5140   42.3010   -6.0120 C.ar   78  TYR78      -0.0009
      8  CD2       31.6230   40.1950   -5.8680 C.ar   78  TYR78      -0.0009
      9  CE1       29.3920   41.7610   -5.3980 C.ar   78  TYR78       0.0417
     10  CE2       30.5000   39.6420   -5.2590 C.ar   78  TYR78       0.0417
     11  CZ        29.3880   40.4350   -5.0280 C.ar   78  TYR78       0.1957
     12  OH        28.2640   39.9070   -4.4240 O.3    78  TYR78      -0.2866
     13  N         38.7260   33.2370   -4.4760 N.3    83  CYS83      -0.1235
     14  CA        38.2520   32.8050   -3.1700 C.3    83  CYS83       0.1677
     15  C         38.8440   31.4400   -2.8480 C.2    83  CYS83       0.2270
     16  O         39.0180   30.6060   -3.7400 O.2    83  CYS83      -0.2867
     17  CB        36.7210   32.7480   -3.1200 C.3    83  CYS83       0.0956
     18  SG        36.0760   32.3650   -1.4830 S.3    83  CYS83      -0.0801
     19  N         31.6600   27.5240   -1.1420 N.3    87  CYS87      -0.1235
     20  CA        30.2140   27.6020   -0.9510 C.3    87  CYS87       0.1677
     21  C         29.4970   27.1030   -2.2010 C.2    87  CYS87       0.2270
     22  O         29.7200   27.6140   -3.3040 O.2    87  CYS87      -0.2867
     23  CB        29.8010   29.0290   -0.6120 C.3    87  CYS87       0.0956
     24  SG        30.6480   29.6650    0.8440 S.3    87  CYS87      -0.0801
     25  N         26.5150   27.2750   -3.3530 N.3    89  MET89      -0.1230
     26  CA        25.5570   28.1190   -4.0530 C.3    89  MET89       0.1702
     27  C         26.2130   29.2750   -4.8010 C.2    89  MET89       0.2592
     28  O         25.5090   30.0430   -5.4640 O.2    89  MET89      -0.2718
     29  CB        24.5130   28.6680   -3.0690 C.3    89  MET89       0.0401
     30  CG        25.0330   29.7300   -2.0990 C.3    89  MET89       0.0596
     31  SD        25.9680   29.0760   -0.6950 S.3    89  MET89      -0.1393
     32  CE        26.6520   30.5930   -0.0200 C.3    89  MET89       0.0692
     33  N         27.5390   29.4010   -4.7390 N.am   90  CYS90      -0.1970
     34  CA        28.2510   30.5860   -5.2040 C.3    90  CYS90       0.1712
     35  C         29.1960   30.2390   -6.3510 C.2    90  CYS90       0.2296
     36  O         29.9220   29.2440   -6.2850 O.2    90  CYS90      -0.2864
     37  CB        29.0330   31.2120   -4.0440 C.3    90  CYS90       0.0983
     38  SG        30.1320   32.5640   -4.4770 S.3    90  CYS90      -0.0798
     39  N         31.8590   31.8250   -7.1980 N.3    92  MET92      -0.1245
     40  CA        33.2480   32.1350   -6.8830 C.3    92  MET92       0.1570
     41  C         33.9320   31.0470   -6.0700 C.2    92  MET92       0.2261
     42  O         35.1100   31.2040   -5.7300 O.2    92  MET92      -0.2867
     43  CB        33.3290   33.4780   -6.1480 C.3    92  MET92       0.0387
     44  CG        33.1640   34.6710   -7.0810 C.3    92  MET92       0.0595
     45  SD        32.8850   36.2500   -6.2540 S.3    92  MET92      -0.1393
     46  CE        34.1840   36.2320   -5.0170 C.3    92  MET92       0.0692
     47  N         33.7220   44.0530   -1.7680 N.3   128  LEU128     -0.1231
     48  CA        33.5500   42.6260   -1.5310 C.3   128  LEU128      0.1693
     49  C         34.7400   41.8500   -2.0770 C.2   128  LEU128      0.2593
     50  O         35.3410   42.2270   -3.0870 O.2   128  LEU128     -0.2718
     51  CB        32.2560   42.0970   -2.1660 C.3   128  LEU128      0.0284
     52  CG        30.9420   42.6870   -1.6350 C.3   128  LEU128      0.0019
     53  CD1       30.4840   43.8510   -2.5030 C.3   128  LEU128      0.0001
     54  CD2       29.8560   41.6200   -1.5440 C.3   128  LEU128      0.0001
     55  N         35.0790   40.7630   -1.3800 N.am  129  THR129     -0.1939
     56  CA        36.1340   39.8420   -1.7790 C.3   129  THR129      0.2028
     57  C         35.6550   38.4220   -1.5160 C.2   129  THR129      0.2643
     58  O         34.5350   38.1980   -1.0420 O.2   129  THR129     -0.2714
     59  CB        37.4410   40.0870   -1.0070 C.3   129  THR129      0.1808
     60  OG1       37.2560   39.7180    0.3670 O.3   129  THR129     -0.2208
     61  CG2       37.8640   41.5440   -1.0780 C.3   129  THR129      0.0379
     62  N         36.5170   37.4540   -1.8150 N.am  130  GLY130     -0.1939
     63  CA        36.3550   36.1180   -1.2860 C.3   130  GLY130      0.2014
     64  C         36.8190   36.0670    0.1560 C.2   130  GLY130      0.2638
     65  O         37.1740   37.0780    0.7610 O.2   130  GLY130     -0.2714
     66  N         36.7970   34.8630    0.7240 N.am  131  GLU131     -0.1977
     67  CA        37.4370   34.5980    2.0050 C.3   131  GLU131      0.1602
     68  C         38.6080   33.6500    1.7820 C.2   131  GLU131      0.2287
     69  O         38.5070   32.6900    1.0110 O.2   131  GLU131     -0.2864
     70  CB        36.4600   34.0090    3.0380 C.3   131  GLU131      0.0415
     71  CG        37.1330   33.7400    4.3900 C.3   131  GLU131      0.1163
     72  CD        36.1690   33.5980    5.5610 C.2   131  GLU131      0.3649
     73  OE1       34.9570   33.8380    5.3940 O.co2 131  GLU131     -0.2457
     74  OE2       36.6400   33.2450    6.6640 O.co2 131  GLU131     -0.2457
     75  N         32.4440   43.4650    2.8000 N.3   163  ASN163     -0.1240
     76  CA        31.9400   42.0960    2.8950 C.3   163  ASN163      0.1653
     77  C         33.0790   41.2050    2.3940 C.2   163  ASN163      0.2266
     78  O         33.1630   40.8990    1.2020 O.2   163  ASN163     -0.2867
     79  CB        30.6690   41.9250    2.0720 C.3   163  ASN163      0.1155
     80  CG        29.8140   40.7550    2.5340 C.2   163  ASN163      0.2627
     81  OD1       30.3180   39.7880    3.0990 O.2   163  ASN163     -0.2716
     82  ND2       28.5070   40.8410    2.2870 N.am  163  ASN163     -0.0877
     83  N         34.4440   38.3560    4.2810 N.3   165  GLY165     -0.1225
     84  CA        34.5620   37.1290    5.0480 C.3   165  GLY165      0.1811
     85  C         34.6020   37.3920    6.5420 C.2   165  GLY165      0.2280
     86  O         34.5420   38.5310    7.0140 O.2   165  GLY165     -0.2866
     87  N         28.7100   40.5120    7.3860 N.3   189  VAL189     -0.1231
     88  CA        29.0250   39.0870    7.4640 C.3   189  VAL189      0.1692
     89  C         27.7140   38.3130    7.5490 C.2   189  VAL189      0.2592
     90  O         27.1830   38.1000    8.6440 O.2   189  VAL189     -0.2718
     91  CB        29.9270   38.7540    8.6700 C.3   189  VAL189      0.0266
     92  CG1       30.2450   37.2740    8.6890 C.3   189  VAL189      0.0020
     93  CG2       31.2230   39.5570    8.6540 C.3   189  VAL189      0.0020
     94  N         27.1740   37.8950    6.4040 N.am  190  PHE190     -0.1976
     95  CA        25.9190   37.1480    6.3900 C.3   190  PHE190      0.1639
     96  C         26.1960   35.7080    6.8100 C.2   190  PHE190      0.2290
     97  O         27.0130   35.0220    6.1890 O.2   190  PHE190     -0.2864
     98  CB        25.2630   37.1770    5.0070 C.3   190  PHE190      0.0560
     99  CG        25.0910   38.5570    4.4230 C.ar  190  PHE190     -0.0200
    100  CD1       25.0470   39.6850    5.2310 C.ar  190  PHE190     -0.0042
    101  CD2       24.9670   38.7220    3.0520 C.ar  190  PHE190     -0.0042
    102  CE1       24.8930   40.9530    4.6780 C.ar  190  PHE190     -0.0003
    103  CE2       24.8110   39.9880    2.4940 C.ar  190  PHE190     -0.0003
    104  CZ        24.7730   41.1010    3.3080 C.ar  190  PHE190     -0.0000
    105  N         24.3980   33.3120    6.2960 N.3   192  GLU192     -0.1245
    106  CA        23.8020   32.5090    5.2280 C.3   192  GLU192      0.1567
    107  C         22.7240   31.5940    5.7940 C.2   192  GLU192      0.2260
    108  O         21.5530   31.6920    5.4110 O.2   192  GLU192     -0.2867
    109  CB        24.8610   31.7010    4.4590 C.3   192  GLU192      0.0388
    110  CG        26.2050   32.4220    4.1860 C.3   192  GLU192      0.1160
    111  CD        26.1020   33.6450    3.2750 C.2   192  GLU192      0.3649
    112  OE1       24.9840   34.1570    3.0430 O.co2 192  GLU192     -0.2457
    113  OE2       27.1600   34.1060    2.7880 O.co2 192  GLU192     -0.2457
    114  N         35.4430   29.4200    5.2420 N.3   212  LYS212     -0.1245
    115  CA        34.0800   29.7470    5.6470 C.3   212  LYS212      0.1561
    116  C         33.3710   28.5850    6.3420 C.2   212  LYS212      0.2260
    117  O         32.2940   28.7890    6.9130 O.2   212  LYS212     -0.2867
    118  CB        33.2700   30.2210    4.4320 C.3   212  LYS212      0.0271
    119  CG        31.9410   30.8880    4.7750 C.3   212  LYS212      0.0035
    120  CD        31.4000   31.6860    3.6010 C.3   212  LYS212      0.0206
    121  CE        29.9140   31.9860    3.7560 C.3   212  LYS212      0.1093
    122  NZ        29.4200   32.8290    2.6350 N.3   212  LYS212     -0.1314
    123  N         32.8270   32.8090   12.0250 N.3   218  ARG218     -0.1245
    124  CA        32.0290   33.7250   11.2190 C.3   218  ARG218      0.1563
    125  C         30.9980   34.4640   12.0660 C.2   218  ARG218      0.2260
    126  O         30.8310   35.6810   11.9230 O.2   218  ARG218     -0.2867
    127  CB        31.3480   32.9640   10.0810 C.3   218  ARG218      0.0307
    128  CG        30.5750   33.8560    9.1280 C.3   218  ARG218      0.0489
    129  CD        30.0590   33.0900    7.9220 C.3   218  ARG218      0.2205
    130  NE        29.4460   33.9760    6.9350 N.pl3 218  ARG218     -0.0865
    131  CZ        30.1220   34.6080    5.9800 C.cat 218  ARG218      0.5346
    132  NH1       31.4340   34.4530    5.8860 N.pl3 218  ARG218      0.1354
    133  NH2       29.4880   35.3980    5.1190 N.pl3 218  ARG218      0.1354
    134  N         20.7830   33.9810    3.8080 N.3   238  LEU238     -0.1245
    135  CA        20.5720   33.7190    2.3880 C.3   238  LEU238      0.1561
    136  C         19.2900   32.9040    2.2410 C.2   238  LEU238      0.2260
    137  O         19.2650   31.7080    2.5450 O.2   238  LEU238     -0.2867
    138  CB        21.7740   32.9940    1.7880 C.3   238  LEU238      0.0270
    139  CG        21.8080   32.8550    0.2630 C.3   238  LEU238      0.0019
    140  CD1       21.6180   34.2090   -0.4060 C.3   238  LEU238      0.0001
    141  CD2       23.1210   32.2270   -0.1790 C.3   238  LEU238      0.0001
    142  N         18.8580   38.3670    1.4600 N.3   271  PRO271     -0.2102
    143  CA        18.8830   38.1990    0.0010 C.3   271  PRO271      0.1504
    144  C         18.3880   36.8210   -0.4150 C.2   271  PRO271      0.2576
    145  O         18.6340   35.8200    0.2610 O.2   271  PRO271     -0.2718
    146  CB        20.3630   38.3880   -0.3490 C.3   271  PRO271      0.0282
    147  CG        21.0790   37.9510    0.8840 C.3   271  PRO271      0.0208
    148  CD        20.2200   38.4780    2.0110 C.3   271  PRO271      0.0893
    149  N         17.6800   36.7830   -1.5400 N.am  272  ARG272     -0.1966
    150  CA        17.1970   35.5360   -2.1100 C.3   272  ARG272      0.1729
    151  C         18.1860   35.0030   -3.1380 C.2   272  ARG272      0.2616
    152  O         18.9570   35.7580   -3.7410 O.2   272  ARG272     -0.2715
    153  CB        15.8250   35.7240   -2.7580 C.3   272  ARG272      0.0348
    154  CG        14.6600   35.5540   -1.7940 C.3   272  ARG272      0.0492
    155  CD        13.3530   35.2870   -2.5340 C.3   272  ARG272      0.2205
    156  NE        12.9200   36.4310   -3.3290 N.pl3 272  ARG272     -0.0865
    157  CZ        11.7030   36.5560   -3.8550 C.cat 272  ARG272      0.5346
    158  NH1       11.3910   37.6360   -4.5610 N.pl3 272  ARG272      0.1354
    159  NH2       10.7940   35.6070   -3.6700 N.pl3 272  ARG272      0.1354
    160  N         18.1510   33.6870   -3.3320 N.am  273  MET273     -0.1963
    161  CA        19.0780   33.0240   -4.2400 C.3   273  MET273      0.1736
    162  C         18.8580   33.4770   -5.6790 C.2   273  MET273      0.2616
    163  O         17.7330   33.7600   -6.1030 O.2   273  MET273     -0.2715
    164  CB        18.9160   31.5040   -4.1500 C.3   273  MET273      0.0427
    165  CG        19.6940   30.8440   -3.0170 C.3   273  MET273      0.0599
    166  SD        21.4730   30.9970   -3.2480 S.3   273  MET273     -0.1393
    167  CE        21.6460   30.3540   -4.9030 C.3   273  MET273      0.0692
    168  N         19.9490   33.5350   -6.4320 N.am  274  ARG274     -0.1977
    169  CA        19.9560   33.8610   -7.8480 C.3   274  ARG274      0.1597
    170  C         20.7410   32.7970   -8.6010 C.2   274  ARG274      0.2287
    171  O         21.5570   32.0820   -8.0090 O.2   274  ARG274     -0.2864
    172  CB        20.5670   35.2510   -8.0920 C.3   274  ARG274      0.0334
    173  CG        19.6690   36.4100   -7.6500 C.3   274  ARG274      0.0492
    174  CD        18.3680   36.4370   -8.4450 C.3   274  ARG274      0.2205
    175  NE        18.6090   36.6140   -9.8740 N.pl3 274  ARG274     -0.0865
    176  CZ        17.6820   36.4690  -10.8150 C.cat 274  ARG274      0.5346
    177  NH1       16.4410   36.1400  -10.4860 N.pl3 274  ARG274      0.1354
    178  NH2       17.9990   36.6460  -12.0910 N.pl3 274  ARG274      0.1354
    179  N         23.4370   30.6810  -10.4860 N.3   276  ALA276     -0.1245
    180  CA        24.8880   30.6880  -10.3600 C.3   276  ALA276      0.1562
    181  C         25.4110   29.3130  -10.7480 C.2   276  ALA276      0.2260
    182  O         24.6430   28.3720  -10.9670 O.2   276  ALA276     -0.2867
    183  CB        25.3240   31.0670   -8.9400 C.3   276  ALA276      0.0290
    184  N         19.3060   41.7240   -6.7090 N.3   311  ARG311     -0.1245
    185  CA        18.9230   40.3220   -6.8040 C.3   311  ARG311      0.1563
    186  C         17.4410   40.1820   -7.1190 C.2   311  ARG311      0.2260
    187  O         17.0220   39.1490   -7.6510 O.2   311  ARG311     -0.2867
    188  CB        19.2350   39.5800   -5.5030 C.3   311  ARG311      0.0307
    189  CG        20.7120   39.4260   -5.1680 C.3   311  ARG311      0.0489
    190  CD        20.8430   38.8030   -3.7880 C.3   311  ARG311      0.2205
    191  NE        22.2190   38.7000   -3.3140 N.pl3 311  ARG311     -0.0865
    192  CZ        22.9010   39.7010   -2.7620 C.cat 311  ARG311      0.5346
    193  NH1       22.3440   40.8950   -2.6300 N.pl3 311  ARG311      0.1354
    194  NH2       24.1460   39.5080   -2.3480 N.pl3 311  ARG311      0.1354
    195  N         29.5790   36.5000   -9.5700 N.3   351  GLN351     -0.1231
    196  CA        29.1680   35.5940   -8.5030 C.3   351  GLN351      0.1698
    197  C         27.8120   34.9680   -8.8100 C.2   351  GLN351      0.2592
    198  O         27.5890   33.7850   -8.5290 O.2   351  GLN351     -0.2718
    199  CB        29.1250   36.3330   -7.1660 C.3   351  GLN351      0.0381
    200  CG        28.8140   35.4280   -5.9890 C.3   351  GLN351      0.0905
    201  CD        28.6370   36.1860   -4.6940 C.2   351  GLN351      0.2608
    202  OE1       28.3580   37.3810   -4.7000 O.2   351  GLN351     -0.2717
    203  NE2       28.7950   35.4910   -3.5720 N.am  351  GLN351     -0.0878
    204  N         26.9010   35.7420   -9.3890 N.am  352  PHE352     -0.1976
    205  CA        25.5910   35.2420   -9.7870 C.3   352  PHE352      0.1639
    206  C         25.0040   36.2120  -10.8030 C.2   352  PHE352      0.2290
    207  O         25.6070   37.2370  -11.1350 O.2   352  PHE352     -0.2864
    208  CB        24.6660   35.0590   -8.5770 C.3   352  PHE352      0.0560
    209  CG        24.4790   36.3060   -7.7490 C.ar  352  PHE352     -0.0200
    210  CD1       23.5770   37.2860   -8.1310 C.ar  352  PHE352     -0.0042
    211  CD2       25.1930   36.4850   -6.5750 C.ar  352  PHE352     -0.0042
    212  CE1       23.4040   38.4290   -7.3640 C.ar  352  PHE352     -0.0003
    213  CE2       25.0210   37.6230   -5.8070 C.ar  352  PHE352     -0.0003
    214  CZ        24.1280   38.5940   -6.2020 C.ar  352  PHE352     -0.0000
@<TRIPOS>BOND
     1   178   176    1
     2   207   206    2
     3   182   181    2
     4   176   177    1
     5   176   175    2
     6   206   205    1
     7   181   180    1
     8   179   180    1
     9   180   183    1
    10   175   174    1
    11   205   204    1
    12   205   208    1
    13   195   196    1
    14   204   197   am
    15   197   198    2
    16   197   196    1
    17   170   171    2
    18   170   169    1
    19   208   209    1
    20   196   199    1
    21   174   173    1
    22   210   209   ar
    23   210   212   ar
    24   172   169    1
    25   172   173    1
    26   169   168    1
    27     4     3    2
    28   209   211   ar
    29   187   186    2
    30   212   214   ar
    31    39    40    1
    32   199   200    1
    33   186   185    1
    34    44    45    1
    35    44    43    1
    36     5     6    1
    37     5     2    1
    38    40    43    1
    39    40    41    1
    40   185   184    1
    41   185   188    1
    42     3     2    1
    43   211   213   ar
    44   168   162   am
    45     1     2    1
    46    35    36    2
    47    35    34    1
    48    45    46    1
    49     6     7   ar
    50     6     8   ar
    51   214   213   ar
    52   163   162    2
    53    41    42    2
    54     7     9   ar
    55   200   201    1
    56     8    10   ar
    57   162   161    1
    58   188   189    1
    59    28    27    2
    60     9    11   ar
    61    10    11   ar
    62    34    33    1
    63    34    37    1
    64   189   190    1
    65    11    12    1
    66   167   166    1
    67    27    33   am
    68    27    26    1
    69   202   201    2
    70   201   203   am
    71   158   157    1
    72    38    37    1
    73    13    14    1
    74   161   164    1
    75   161   160    1
    76   164   165    1
    77    26    25    1
    78    26    29    1
    79   157   159    1
    80   157   156    2
    81   190   191    1
    82   152   151    2
    83    16    15    2
    84   160   151   am
    85   156   155    1
    86   191   192    2
    87    22    21    2
    88   166   165    1
    89    14    17    1
    90    14    15    1
    91   151   150    1
    92    17    18    1
    93    50    49    2
    94    29    30    1
    95   192   193    1
    96   192   194    1
    97   153   150    1
    98   153   154    1
    99   155   154    1
   100    53    52    1
   101    21    20    1
   102    51    52    1
   103    51    48    1
   104   150   149    1
   105    30    31    1
   106    49    48    1
   107    49    55   am
   108    62    57   am
   109    62    63    1
   110    56    57    1
   111    56    55    1
   112    56    59    1
   113    47    48    1
   114    52    54    1
   115   149   144   am
   116    57    58    2
   117    63    64    1
   118    19    20    1
   119    61    59    1
   120    59    60    1
   121    20    23    1
   122    31    32    1
   123    23    24    1
   124   144   143    1
   125   144   145    2
   126   140   139    1
   127   146   143    1
   128   146   147    1
   129   141   139    1
   130   143   142    1
   131    64    66   am
   132    64    65    2
   133   139   138    1
   134    66    67    1
   135   147   148    1
   136    69    68    2
   137    78    77    2
   138   142   148    1
   139    68    67    1
   140   138   135    1
   141    67    70    1
   142    79    80    1
   143    79    76    1
   144   136   135    1
   145   136   137    2
   146    82    80   am
   147   135   134    1
   148    77    76    1
   149   103   101   ar
   150   103   104   ar
   151    80    81    2
   152   122   121    1
   153   113   111   ar
   154    75    76    1
   155    70    71    1
   156   112   111   ar
   157   101    99   ar
   158   111   110    1
   159   104   102   ar
   160   120   121    1
   161   120   119    1
   162   110   109    1
   163    83    84    1
   164    71    72    1
   165    99    98    1
   166    99   100   ar
   167   118   119    1
   168   118   115    1
   169   109   106    1
   170   102   100   ar
   171    98    95    1
   172    84    85    1
   173   133   131    1
   174   106   107    1
   175   106   105    1
   176   114   115    1
   177    73    72   ar
   178   108   107    2
   179    72    74   ar
   180   115   116    1
   181   132   131    1
   182   131   130    2
   183    97    96    2
   184   116   117    2
   185    95    94    1
   186    95    96    1
   187    94    89   am
   188    85    86    2
   189   130   129    1
   190    87    88    1
   191    88    89    1
   192    88    91    1
   193    89    90    2
   194   129   128    1
   195    93    91    1
   196    91    92    1
   197   128   127    1
   198   127   124    1
   199   124   123    1
   200   124   125    1
   201   126   125    2
