@<TRIPOS>MOLECULE
tmp/6htkB03.pdb
 151 141 0 0 0
SMALL
GASTEIGER

@<TRIPOS>ATOM
      1  N         23.7920   52.1180   -1.3390 N.3    74  PHE74      -0.1241
      2  CA        25.1820   51.8100   -1.6390 C.3    74  PHE74       0.1605
      3  C         25.2160   50.8350   -2.8060 C.2    74  PHE74       0.2264
      4  O         24.3030   50.0270   -2.9870 O.2    74  PHE74      -0.2867
      5  CB        25.9410   51.2320   -0.4270 C.3    74  PHE74       0.0534
      6  CG        25.6410   49.7790   -0.1390 C.ar   74  PHE74      -0.0203
      7  CD1       24.5320   49.4200    0.6160 C.ar   74  PHE74      -0.0042
      8  CD2       26.4880   48.7770   -0.5980 C.ar   74  PHE74      -0.0042
      9  CE1       24.2630   48.0940    0.8960 C.ar   74  PHE74      -0.0003
     10  CE2       26.2210   47.4440   -0.3280 C.ar   74  PHE74      -0.0003
     11  CZ        25.1110   47.1010    0.4240 C.ar   74  PHE74      -0.0000
     12  N         27.3830   47.8290   -4.7850 N.3    76  PRO76      -0.2116
     13  CA        28.4570   46.8630   -4.5360 C.3    76  PRO76       0.1372
     14  C         29.5660   46.9840   -5.5710 C.2    76  PRO76       0.2244
     15  O         29.3150   47.1510   -6.7670 O.2    76  PRO76      -0.2868
     16  CB        27.7450   45.5120   -4.6460 C.3    76  PRO76       0.0268
     17  CG        26.6520   45.7730   -5.6240 C.3    76  PRO76       0.0207
     18  CD        26.1730   47.1770   -5.3150 C.3    76  PRO76       0.0892
     19  N         32.6410   44.5170   -6.3650 N.3    78  TYR78      -0.1241
     20  CA        33.4600   43.3280   -6.1640 C.3    78  TYR78       0.1605
     21  C         34.8770   43.6240   -6.6380 C.2    78  TYR78       0.2264
     22  O         35.0930   43.9110   -7.8200 O.2    78  TYR78      -0.2867
     23  CB        32.8690   42.1340   -6.9150 C.3    78  TYR78       0.0534
     24  CG        31.6460   41.5330   -6.2520 C.ar   78  TYR78      -0.0201
     25  CD1       30.5140   42.3010   -6.0120 C.ar   78  TYR78      -0.0009
     26  CD2       31.6230   40.1950   -5.8680 C.ar   78  TYR78      -0.0009
     27  CE1       29.3920   41.7610   -5.3980 C.ar   78  TYR78       0.0417
     28  CE2       30.5000   39.6420   -5.2590 C.ar   78  TYR78       0.0417
     29  CZ        29.3880   40.4350   -5.0280 C.ar   78  TYR78       0.1957
     30  OH        28.2640   39.9070   -4.4240 O.3    78  TYR78      -0.2866
     31  N         33.7220   44.0530   -1.7680 N.3   128  LEU128     -0.1245
     32  CA        33.5500   42.6260   -1.5310 C.3   128  LEU128      0.1561
     33  C         34.7400   41.8500   -2.0770 C.2   128  LEU128      0.2260
     34  O         35.3410   42.2270   -3.0870 O.2   128  LEU128     -0.2867
     35  CB        32.2560   42.0970   -2.1660 C.3   128  LEU128      0.0270
     36  CG        30.9420   42.6870   -1.6350 C.3   128  LEU128      0.0019
     37  CD1       30.4840   43.8510   -2.5030 C.3   128  LEU128      0.0001
     38  CD2       29.8560   41.6200   -1.5440 C.3   128  LEU128      0.0001
     39  N         32.4440   43.4650    2.8000 N.3   163  ASN163     -0.1240
     40  CA        31.9400   42.0960    2.8950 C.3   163  ASN163      0.1653
     41  C         33.0790   41.2050    2.3940 C.2   163  ASN163      0.2266
     42  O         33.1630   40.8990    1.2020 O.2   163  ASN163     -0.2867
     43  CB        30.6690   41.9250    2.0720 C.3   163  ASN163      0.1155
     44  CG        29.8140   40.7550    2.5340 C.2   163  ASN163      0.2627
     45  OD1       30.3180   39.7880    3.0990 O.2   163  ASN163     -0.2716
     46  ND2       28.5070   40.8410    2.2870 N.am  163  ASN163     -0.0877
     47  N         29.8520   43.7280    6.9440 N.3   188  CYS188     -0.1235
     48  CA        28.8410   42.7720    6.5010 C.3   188  CYS188      0.1677
     49  C         29.4030   41.3640    6.6250 C.2   188  CYS188      0.2270
     50  O         30.4470   41.0590    6.0400 O.2   188  CYS188     -0.2867
     51  CB        28.4150   43.0280    5.0560 C.3   188  CYS188      0.0956
     52  SG        27.9060   44.7020    4.6870 S.3   188  CYS188     -0.0801
     53  N         27.1740   37.8950    6.4040 N.3   190  PHE190     -0.1241
     54  CA        25.9190   37.1480    6.3900 C.3   190  PHE190      0.1605
     55  C         26.1960   35.7080    6.8100 C.2   190  PHE190      0.2264
     56  O         27.0130   35.0220    6.1890 O.2   190  PHE190     -0.2867
     57  CB        25.2630   37.1770    5.0070 C.3   190  PHE190      0.0534
     58  CG        25.0910   38.5570    4.4230 C.ar  190  PHE190     -0.0203
     59  CD1       25.0470   39.6850    5.2310 C.ar  190  PHE190     -0.0042
     60  CD2       24.9670   38.7220    3.0520 C.ar  190  PHE190     -0.0042
     61  CE1       24.8930   40.9530    4.6780 C.ar  190  PHE190     -0.0003
     62  CE2       24.8110   39.9880    2.4940 C.ar  190  PHE190     -0.0003
     63  CZ        24.7730   41.1010    3.3080 C.ar  190  PHE190     -0.0000
     64  N         26.0640   44.3890    9.8290 N.3   234  ASN234     -0.1240
     65  CA        25.0470   43.9540    8.8800 C.3   234  ASN234      0.1653
     66  C         24.9830   42.4300    8.8110 C.2   234  ASN234      0.2266
     67  O         25.6060   41.8180    7.9310 O.2   234  ASN234     -0.2867
     68  CB        25.3340   44.5720    7.5030 C.3   234  ASN234      0.1155
     69  CG        24.3110   44.1750    6.4450 C.2   234  ASN234      0.2627
     70  OD1       23.2130   43.6940    6.7490 O.2   234  ASN234     -0.2716
     71  ND2       24.6730   44.3850    5.1870 N.am  234  ASN234     -0.0877
     72  N         19.8970   41.8520    6.2600 N.3   269  SER269     -0.1217
     73  CA        19.8020   41.4450    4.8640 C.3   269  SER269      0.1889
     74  C         19.2160   40.0450    4.7680 C.2   269  SER269      0.2288
     75  O         19.6890   39.1250    5.4410 O.2   269  SER269     -0.2866
     76  CB        21.1760   41.4900    4.1910 C.3   269  SER269      0.2089
     77  OG        21.7390   42.7890    4.2730 O.3   269  SER269     -0.2183
     78  N         18.8580   38.3670    1.4600 N.3   271  PRO271     -0.2116
     79  CA        18.8830   38.1990    0.0010 C.3   271  PRO271      0.1372
     80  C         18.3880   36.8210   -0.4150 C.2   271  PRO271      0.2244
     81  O         18.6340   35.8200    0.2610 O.2   271  PRO271     -0.2868
     82  CB        20.3630   38.3880   -0.3490 C.3   271  PRO271      0.0268
     83  CG        21.0790   37.9510    0.8840 C.3   271  PRO271      0.0207
     84  CD        20.2200   38.4780    2.0110 C.3   271  PRO271      0.0892
     85  N         17.8980   45.5220    3.8480 N.3   307  VAL307     -0.1245
     86  CA        18.6160   45.8610    2.6210 C.3   307  VAL307      0.1561
     87  C         17.9630   45.1230    1.4570 C.2   307  VAL307      0.2260
     88  O         17.8590   43.8910    1.4710 O.2   307  VAL307     -0.2867
     89  CB        20.1090   45.5050    2.7210 C.3   307  VAL307      0.0252
     90  CG1       20.8390   45.9230    1.4470 C.3   307  VAL307      0.0019
     91  CG2       20.7480   46.1550    3.9470 C.3   307  VAL307      0.0019
     92  N         18.1460   44.5360   -2.7020 N.3   309  THR309     -0.1203
     93  CA        19.1480   44.6210   -3.7560 C.3   309  THR309      0.1994
     94  C         18.5620   44.2050   -5.0990 C.2   309  THR309      0.2619
     95  O         17.4430   43.6940   -5.1900 O.2   309  THR309     -0.2717
     96  CB        20.3650   43.7420   -3.4400 C.3   309  THR309      0.1784
     97  OG1       20.0370   42.3670   -3.6840 O.3   309  THR309     -0.2211
     98  CG2       20.7850   43.9140   -1.9830 C.3   309  THR309      0.0376
     99  N         19.3580   44.4100   -6.1510 N.am  310  THR310     -0.1938
    100  CA        18.9830   44.0270   -7.5060 C.3   310  THR310      0.2028
    101  C         19.0900   42.5290   -7.7520 C.2   310  THR310      0.2642
    102  O         18.9820   42.0970   -8.9050 O.2   310  THR310     -0.2714
    103  CB        19.8320   44.7790   -8.5370 C.3   310  THR310      0.1808
    104  OG1       21.2000   44.7860   -8.1170 O.3   310  THR310     -0.2208
    105  CG2       19.3400   46.2060   -8.6890 C.3   310  THR310      0.0379
    106  N         19.3060   41.7240   -6.7090 N.am  311  ARG311     -0.1977
    107  CA        18.9230   40.3220   -6.8040 C.3   311  ARG311      0.1597
    108  C         17.4410   40.1820   -7.1190 C.2   311  ARG311      0.2287
    109  O         17.0220   39.1490   -7.6510 O.2   311  ARG311     -0.2864
    110  CB        19.2350   39.5800   -5.5030 C.3   311  ARG311      0.0334
    111  CG        20.7120   39.4260   -5.1680 C.3   311  ARG311      0.0492
    112  CD        20.8430   38.8030   -3.7880 C.3   311  ARG311      0.2205
    113  NE        22.2190   38.7000   -3.3140 N.pl3 311  ARG311     -0.0865
    114  CZ        22.9010   39.7010   -2.7620 C.cat 311  ARG311      0.5346
    115  NH1       22.3440   40.8950   -2.6300 N.pl3 311  ARG311      0.1354
    116  NH2       24.1460   39.5080   -2.3480 N.pl3 311  ARG311      0.1354
    117  N         20.1720   48.7550   -2.6010 N.3   328  SER328     -0.1217
    118  CA        21.5210   48.4940   -3.1040 C.3   328  SER328      0.1889
    119  C         21.4610   47.9550   -4.5250 C.2   328  SER328      0.2288
    120  O         21.2820   46.7470   -4.7400 O.2   328  SER328     -0.2866
    121  CB        22.2680   47.5260   -2.1870 C.3   328  SER328      0.2089
    122  OG        23.6330   47.4210   -2.5550 O.3   328  SER328     -0.2183
    123  N         23.2790   47.1760   -8.2790 N.3   330  GLY330     -0.1225
    124  CA        24.6110   46.9280   -8.7890 C.3   330  GLY330      0.1811
    125  C         24.7340   45.5140   -9.3180 C.2   330  GLY330      0.2280
    126  O         23.7530   44.7770   -9.4160 O.2   330  GLY330     -0.2866
    127  N         27.2680   41.8430   -9.2910 N.3   332  PRO332     -0.2116
    128  CA        28.2970   41.0670   -8.5900 C.3   332  PRO332      0.1372
    129  C         29.3890   40.5590   -9.5260 C.2   332  PRO332      0.2244
    130  O         29.7550   39.3800   -9.5070 O.2   332  PRO332     -0.2868
    131  CB        27.4930   39.9150   -7.9830 C.3   332  PRO332      0.0268
    132  CG        26.4320   39.6650   -9.0020 C.3   332  PRO332      0.0207
    133  CD        26.0980   41.0140   -9.6180 C.3   332  PRO332      0.0892
    134  N         26.9010   35.7420   -9.3890 N.3   352  PHE352     -0.1241
    135  CA        25.5910   35.2420   -9.7870 C.3   352  PHE352      0.1605
    136  C         25.0040   36.2120  -10.8030 C.2   352  PHE352      0.2264
    137  O         25.6070   37.2370  -11.1350 O.2   352  PHE352     -0.2867
    138  CB        24.6660   35.0590   -8.5770 C.3   352  PHE352      0.0534
    139  CG        24.4790   36.3060   -7.7490 C.ar  352  PHE352     -0.0203
    140  CD1       23.5770   37.2860   -8.1310 C.ar  352  PHE352     -0.0042
    141  CD2       25.1930   36.4850   -6.5750 C.ar  352  PHE352     -0.0042
    142  CE1       23.4040   38.4290   -7.3640 C.ar  352  PHE352     -0.0003
    143  CE2       25.0210   37.6230   -5.8070 C.ar  352  PHE352     -0.0003
    144  CZ        24.1280   38.5940   -6.2020 C.ar  352  PHE352     -0.0000
    145  N         22.1680   38.8490  -11.6380 N.3   354  VAL354     -0.1245
    146  CA        21.1570   39.7140  -11.0290 C.3   354  VAL354      0.1561
    147  C         19.8740   39.6770  -11.8500 C.2   354  VAL354      0.2260
    148  O         19.8490   39.2790  -13.0200 O.2   354  VAL354     -0.2867
    149  CB        21.6490   41.1620  -10.8730 C.3   354  VAL354      0.0252
    150  CG1       22.7130   41.2540   -9.8080 C.3   354  VAL354      0.0019
    151  CG2       22.1370   41.7060  -12.2050 C.3   354  VAL354      0.0019
@<TRIPOS>BOND
     1   148   147    2
     2   151   149    1
     3   147   146    1
     4   145   146    1
     5   137   136    2
     6   146   149    1
     7   149   150    1
     8   136   135    1
     9   135   134    1
    10   135   138    1
    11   133   127    1
    12   133   132    1
    13   129   130    2
    14   129   128    1
    15   126   125    2
    16   125   124    1
    17   127   128    1
    18   132   131    1
    19   102   101    2
    20   124   123    1
    21   105   103    1
    22   128   131    1
    23   138   139    1
    24   103   104    1
    25   103   100    1
    26   140   139   ar
    27   140   142   ar
    28    22    21    2
    29   101   100    1
    30   101   106   am
    31   139   141   ar
    32   109   108    2
    33   100    99    1
    34   142   144   ar
    35   108   107    1
    36    23    24    1
    37    23    20    1
    38   107   106    1
    39   107   110    1
    40    15    14    2
    41    21    20    1
    42   141   143   ar
    43    19    20    1
    44    24    25   ar
    45    24    26   ar
    46   144   143   ar
    47    99    94   am
    48    25    27   ar
    49    26    28   ar
    50    17    18    1
    51    17    16    1
    52    14    13    1
    53   110   111    1
    54    27    29   ar
    55    18    12    1
    56    28    29   ar
    57    95    94    2
    58   111   112    1
    59    94    93    1
    60    29    30    1
    61    12    13    1
    62   120   119    2
    63    16    13    1
    64   119   118    1
    65   112   113    1
    66    93    96    1
    67    93    92    1
    68    97    96    1
    69    96    98    1
    70   113   114    2
    71   118   117    1
    72   118   121    1
    73    34    33    2
    74     4     3    2
    75     3     2    1
    76   114   115    1
    77   114   116    1
    78   122   121    1
    79    37    36    1
    80    35    36    1
    81    35    32    1
    82    33    32    1
    83    31    32    1
    84     2     1    1
    85     2     5    1
    86    36    38    1
    87     8    10   ar
    88     8     6   ar
    89     5     6    1
    90    80    79    1
    91    80    81    2
    92    82    79    1
    93    82    83    1
    94    10    11   ar
    95     6     7   ar
    96    79    78    1
    97    11     9   ar
    98     7     9   ar
    99    83    84    1
   100    42    41    2
   101    90    89    1
   102    87    88    2
   103    87    86    1
   104    78    84    1
   105    43    44    1
   106    43    40    1
   107    46    44   am
   108    41    40    1
   109    62    60   ar
   110    62    63   ar
   111    44    45    2
   112    86    89    1
   113    86    85    1
   114    89    91    1
   115    39    40    1
   116    60    58   ar
   117    63    61   ar
   118    76    77    1
   119    76    73    1
   120    58    57    1
   121    58    59   ar
   122    61    59   ar
   123    52    51    1
   124    74    73    1
   125    74    75    2
   126    73    72    1
   127    57    54    1
   128    51    48    1
   129    71    69   am
   130    50    49    2
   131    56    55    2
   132    54    53    1
   133    54    55    1
   134    69    70    2
   135    69    68    1
   136    48    49    1
   137    48    47    1
   138    68    65    1
   139    67    66    2
   140    66    65    1
   141    65    64    1
