@<TRIPOS>MOLECULE
tmp/6htmB00.pdb
 144 134 0 0 0
SMALL
GASTEIGER

@<TRIPOS>ATOM
      1  N         23.6760   52.1480   -1.2930 N.3    77  PHE77      -0.1241
      2  CA        25.0820   51.9240   -1.6470 C.3    77  PHE77       0.1605
      3  C         25.1310   50.9340   -2.7970 C.2    77  PHE77       0.2264
      4  O         24.2020   50.1310   -2.9700 O.2    77  PHE77      -0.2867
      5  CB        25.9460   51.3490   -0.4860 C.3    77  PHE77       0.0534
      6  CG        25.6740   49.8590   -0.1580 C.ar   77  PHE77      -0.0203
      7  CD1       24.5780   49.5070    0.5990 C.ar   77  PHE77      -0.0042
      8  CD2       26.5600   48.8490   -0.5850 C.ar   77  PHE77      -0.0042
      9  CE1       24.3690   48.1400    0.9790 C.ar   77  PHE77      -0.0003
     10  CE2       26.3730   47.5280   -0.2800 C.ar   77  PHE77      -0.0003
     11  CZ        25.2370   47.1440    0.5150 C.ar   77  PHE77      -0.0000
     12  N         27.3750   47.8730   -4.6990 N.3    79  PRO79      -0.2116
     13  CA        28.4680   46.9490   -4.4120 C.3    79  PRO79       0.1372
     14  C         29.5400   47.0050   -5.4880 C.2    79  PRO79       0.2244
     15  O         29.2740   47.0040   -6.6960 O.2    79  PRO79      -0.2868
     16  CB        27.7700   45.5950   -4.3890 C.3    79  PRO79       0.0268
     17  CG        26.6450   45.7670   -5.4430 C.3    79  PRO79       0.0207
     18  CD        26.1340   47.1880   -5.1020 C.3    79  PRO79       0.0892
     19  N         32.6530   44.5700   -6.3550 N.3    81  TYR81      -0.1241
     20  CA        33.4710   43.3550   -6.1730 C.3    81  TYR81       0.1605
     21  C         34.8870   43.6690   -6.6310 C.2    81  TYR81       0.2264
     22  O         35.0840   43.9890   -7.8010 O.2    81  TYR81      -0.2867
     23  CB        32.9120   42.1830   -6.9680 C.3    81  TYR81       0.0534
     24  CG        31.6940   41.5760   -6.3090 C.ar   81  TYR81      -0.0201
     25  CD1       30.5940   42.3650   -5.9830 C.ar   81  TYR81      -0.0009
     26  CD2       31.6680   40.2270   -5.9590 C.ar   81  TYR81      -0.0009
     27  CE1       29.4600   41.7840   -5.3470 C.ar   81  TYR81       0.0417
     28  CE2       30.5500   39.6440   -5.3220 C.ar   81  TYR81       0.0417
     29  CZ        29.4350   40.4520   -5.0180 C.ar   81  TYR81       0.1957
     30  OH        28.2520   39.9790   -4.4160 O.3    81  TYR81      -0.2866
     31  N         33.7320   44.0870   -1.8270 N.3   131  LEU131     -0.1245
     32  CA        33.6060   42.6430   -1.5710 C.3   131  LEU131      0.1561
     33  C         34.7980   41.8760   -2.1030 C.2   131  LEU131      0.2260
     34  O         35.4150   42.2610   -3.1270 O.2   131  LEU131     -0.2867
     35  CB        32.3640   42.0210   -2.2130 C.3   131  LEU131      0.0270
     36  CG        31.0640   42.6530   -1.5980 C.3   131  LEU131      0.0019
     37  CD1       30.5840   43.8660   -2.4930 C.3   131  LEU131      0.0001
     38  CD2       29.9840   41.6050   -1.5680 C.3   131  LEU131      0.0001
     39  N         32.3640   43.4750    2.7610 N.3   166  ASN166     -0.1240
     40  CA        31.8990   42.0790    2.8880 C.3   166  ASN166      0.1653
     41  C         33.0530   41.2200    2.3600 C.2   166  ASN166      0.2266
     42  O         33.1580   41.0010    1.1570 O.2   166  ASN166     -0.2867
     43  CB        30.6230   41.9380    2.0620 C.3   166  ASN166      0.1155
     44  CG        29.7460   40.7800    2.5070 C.2   166  ASN166      0.2627
     45  OD1       30.2220   39.8000    2.9980 O.2   166  ASN166     -0.2716
     46  ND2       28.4440   40.9030    2.2710 N.am  166  ASN166     -0.0877
     47  N         29.8590   43.7130    6.8830 N.3   191  CYS191     -0.1235
     48  CA        28.8090   42.7560    6.4750 C.3   191  CYS191      0.1677
     49  C         29.3890   41.3560    6.6240 C.2   191  CYS191      0.2270
     50  O         30.4350   41.0830    6.0410 O.2   191  CYS191     -0.2867
     51  CB        28.4170   42.9350    4.9960 C.3   191  CYS191      0.0956
     52  SG        27.9890   44.6570    4.6300 S.3   191  CYS191     -0.0801
     53  N         27.2660   37.8080    6.3670 N.3   193  PHE193     -0.1241
     54  CA        25.9510   37.1290    6.3980 C.3   193  PHE193      0.1605
     55  C         26.1420   35.6780    6.8180 C.2   193  PHE193      0.2264
     56  O         26.9420   34.9530    6.2120 O.2   193  PHE193     -0.2867
     57  CB        25.2800   37.1560    5.0320 C.3   193  PHE193      0.0534
     58  CG        25.1090   38.5320    4.4590 C.ar  193  PHE193     -0.0203
     59  CD1       25.1690   39.6740    5.2480 C.ar  193  PHE193     -0.0042
     60  CD2       24.8620   38.6410    3.1170 C.ar  193  PHE193     -0.0042
     61  CE1       25.0640   40.9670    4.6740 C.ar  193  PHE193     -0.0003
     62  CE2       24.7150   39.9290    2.5070 C.ar  193  PHE193     -0.0003
     63  CZ        24.8310   41.0990    3.3060 C.ar  193  PHE193     -0.0000
     64  N         26.0130   44.3690    9.7990 N.3   237  ASN237     -0.1240
     65  CA        25.0200   43.9420    8.8050 C.3   237  ASN237      0.1653
     66  C         25.0000   42.4210    8.7580 C.2   237  ASN237      0.2266
     67  O         25.6580   41.7950    7.9010 O.2   237  ASN237     -0.2867
     68  CB        25.3090   44.5820    7.4400 C.3   237  ASN237      0.1155
     69  CG        24.3140   44.2270    6.3310 C.2   237  ASN237      0.2627
     70  OD1       23.1890   43.6410    6.5460 O.2   237  ASN237     -0.2716
     71  ND2       24.7120   44.5260    5.1420 N.am  237  ASN237     -0.0877
     72  N         19.9690   41.8670    6.2350 N.3   272  SER272     -0.1217
     73  CA        19.8970   41.4070    4.8530 C.3   272  SER272      0.1889
     74  C         19.2420   40.0440    4.7480 C.2   272  SER272      0.2288
     75  O         19.6380   39.1040    5.4500 O.2   272  SER272     -0.2866
     76  CB        21.3280   41.3560    4.2440 C.3   272  SER272      0.2089
     77  OG        21.7240   42.7080    4.0950 O.3   272  SER272     -0.2183
     78  N         17.8910   45.5750    3.8480 N.3   310  VAL310     -0.1245
     79  CA        18.5530   45.9250    2.6010 C.3   310  VAL310      0.1561
     80  C         17.8750   45.1760    1.4550 C.2   310  VAL310      0.2260
     81  O         17.7720   43.9330    1.4850 O.2   310  VAL310     -0.2867
     82  CB        20.0440   45.5410    2.6970 C.3   310  VAL310      0.0252
     83  CG1       20.7890   45.9620    1.4000 C.3   310  VAL310      0.0019
     84  CG2       20.6590   46.1550    4.0300 C.3   310  VAL310      0.0019
     85  N         18.0260   44.5370   -2.7750 N.3   312  THR312     -0.1203
     86  CA        19.0670   44.5950   -3.7990 C.3   312  THR312      0.1994
     87  C         18.5020   44.2090   -5.1490 C.2   312  THR312      0.2619
     88  O         17.3640   43.7060   -5.2900 O.2   312  THR312     -0.2717
     89  CB        20.2910   43.6940   -3.5020 C.3   312  THR312      0.1784
     90  OG1       19.9290   42.3050   -3.7300 O.3   312  THR312     -0.2211
     91  CG2       20.7970   43.8840   -2.0030 C.3   312  THR312      0.0376
     92  N         19.3560   44.3640   -6.1490 N.am  313  THR313     -0.1938
     93  CA        18.9540   43.9520   -7.4930 C.3   313  THR313      0.2028
     94  C         19.0890   42.4440   -7.7200 C.2   313  THR313      0.2642
     95  O         18.9370   42.0110   -8.8670 O.2   313  THR313     -0.2714
     96  CB        19.7320   44.7290   -8.5660 C.3   313  THR313      0.1808
     97  OG1       21.0660   44.8740   -8.1210 O.3   313  THR313     -0.2208
     98  CG2       19.2270   46.1320   -8.6490 C.3   313  THR313      0.0379
     99  N         19.2330   41.6280   -6.6670 N.am  314  ARG314     -0.1977
    100  CA        18.7770   40.2390   -6.7730 C.3   314  ARG314      0.1597
    101  C         17.2740   40.2030   -7.0200 C.2   314  ARG314      0.2287
    102  O         16.7410   39.1700   -7.4230 O.2   314  ARG314     -0.2864
    103  CB        19.0260   39.4400   -5.4910 C.3   314  ARG314      0.0334
    104  CG        20.5350   39.2320   -5.1470 C.3   314  ARG314      0.0492
    105  CD        20.6220   38.6800   -3.6650 C.3   314  ARG314      0.2205
    106  NE        22.0360   38.5450   -3.2700 N.pl3 314  ARG314     -0.0865
    107  CZ        22.7990   39.5620   -2.8910 C.cat 314  ARG314      0.5346
    108  NH1       22.3120   40.7980   -2.8370 N.pl3 314  ARG314      0.1354
    109  NH2       24.0410   39.3380   -2.5160 N.pl3 314  ARG314      0.1354
    110  N         20.1050   48.7640   -2.6450 N.3   331  SER331     -0.1217
    111  CA        21.4840   48.5350   -3.0960 C.3   331  SER331      0.1889
    112  C         21.4690   47.9170   -4.4910 C.2   331  SER331      0.2288
    113  O         21.4190   46.6850   -4.6290 O.2   331  SER331     -0.2866
    114  CB        22.2150   47.6630   -2.1020 C.3   331  SER331      0.2089
    115  OG        23.6010   47.5050   -2.4930 O.3   331  SER331     -0.2183
    116  N         23.2550   47.0940   -8.2150 N.3   333  GLY333     -0.1225
    117  CA        24.6260   46.8580   -8.6370 C.3   333  GLY333      0.1811
    118  C         24.7650   45.4620   -9.1810 C.2   333  GLY333      0.2280
    119  O         23.7970   44.7410   -9.3290 O.2   333  GLY333     -0.2866
    120  N         27.2990   41.8680   -9.3180 N.3   335  PRO335     -0.2116
    121  CA        28.3050   41.1190   -8.5610 C.3   335  PRO335      0.1372
    122  C         29.4060   40.5940   -9.4580 C.2   335  PRO335      0.2244
    123  O         29.7470   39.4310   -9.4230 O.2   335  PRO335     -0.2868
    124  CB        27.4990   39.9540   -7.9840 C.3   335  PRO335      0.0268
    125  CG        26.4820   39.6680   -9.1450 C.3   335  PRO335      0.0207
    126  CD        26.1390   41.0840   -9.6710 C.3   335  PRO335      0.0892
    127  N         26.7820   35.6510   -9.2990 N.3   355  PHE355     -0.1241
    128  CA        25.4450   35.1590   -9.6160 C.3   355  PHE355      0.1605
    129  C         24.8600   36.1250  -10.6390 C.2   355  PHE355      0.2264
    130  O         25.4690   37.1550  -10.9680 O.2   355  PHE355     -0.2867
    131  CB        24.5400   35.0280   -8.3500 C.3   355  PHE355      0.0534
    132  CG        24.4000   36.3080   -7.5790 C.ar  355  PHE355     -0.0203
    133  CD1       23.5110   37.2710   -7.9970 C.ar  355  PHE355     -0.0042
    134  CD2       25.1520   36.5240   -6.4120 C.ar  355  PHE355     -0.0042
    135  CE1       23.3840   38.5300   -7.2980 C.ar  355  PHE355     -0.0003
    136  CE2       25.0440   37.7520   -5.7190 C.ar  355  PHE355     -0.0003
    137  CZ        24.1540   38.7340   -6.1580 C.ar  355  PHE355     -0.0000
    138  N         22.1110   38.8300  -11.7060 N.3   357  VAL357     -0.1245
    139  CA        21.1370   39.8190  -11.1550 C.3   357  VAL357      0.1561
    140  C         19.8140   39.7030  -11.8840 C.2   357  VAL357      0.2260
    141  O         19.7320   39.2280  -13.0230 O.2   357  VAL357     -0.2867
    142  CB        21.6430   41.2770  -11.2520 C.3   357  VAL357      0.0252
    143  CG1       22.9980   41.4360  -10.7000 C.3   357  VAL357      0.0019
    144  CG2       21.6350   41.7270  -12.6630 C.3   357  VAL357      0.0019
@<TRIPOS>BOND
     1   141   140    2
     2   144   142    1
     3   140   139    1
     4   138   139    1
     5   142   139    1
     6   142   143    1
     7   130   129    2
     8   129   128    1
     9   126   120    1
    10   126   125    1
    11   128   127    1
    12   128   131    1
    13   122   123    2
    14   122   121    1
    15   119   118    2
    16   120   121    1
    17   118   117    1
    18   125   124    1
    19    95    94    2
    20    98    96    1
    21   117   116    1
    22    96    97    1
    23    96    93    1
    24   121   124    1
    25   131   132    1
    26   133   132   ar
    27   133   135   ar
    28    22    21    2
    29    94    93    1
    30    94    99   am
    31   132   134   ar
    32    93    92    1
    33   102   101    2
    34   135   137   ar
    35   101   100    1
    36    23    24    1
    37    23    20    1
    38   100    99    1
    39   100   103    1
    40    15    14    2
    41    21    20    1
    42   134   136   ar
    43    19    20    1
    44    24    25   ar
    45    24    26   ar
    46   137   136   ar
    47    92    87   am
    48    25    27   ar
    49    26    28   ar
    50   103   104    1
    51    14    13    1
    52    17    18    1
    53    17    16    1
    54    27    29   ar
    55    28    29   ar
    56    88    87    2
    57    87    86    1
    58   104   105    1
    59    18    12    1
    60    29    30    1
    61    12    13    1
    62   113   112    2
    63   112   111    1
    64    13    16    1
    65    86    89    1
    66    86    85    1
    67    90    89    1
    68   105   106    1
    69    89    91    1
    70   106   107    2
    71    34    33    2
    72   111   110    1
    73   111   114    1
    74     4     3    2
    75   107   108    1
    76   107   109    1
    77     3     2    1
    78    37    36    1
    79   115   114    1
    80    35    36    1
    81    35    32    1
    82    33    32    1
    83    31    32    1
    84     2     1    1
    85     2     5    1
    86    36    38    1
    87     8    10   ar
    88     8     6   ar
    89     5     6    1
    90    10    11   ar
    91     6     7   ar
    92    11     9   ar
    93     7     9   ar
    94    42    41    2
    95    83    82    1
    96    80    81    2
    97    80    79    1
    98    43    44    1
    99    43    40    1
   100    46    44   am
   101    41    40    1
   102    62    60   ar
   103    62    63   ar
   104    44    45    2
   105    79    82    1
   106    79    78    1
   107    82    84    1
   108    39    40    1
   109    60    58   ar
   110    63    61   ar
   111    77    76    1
   112    76    73    1
   113    58    57    1
   114    58    59   ar
   115    52    51    1
   116    61    59   ar
   117    74    73    1
   118    74    75    2
   119    73    72    1
   120    51    48    1
   121    57    54    1
   122    71    69   am
   123    50    49    2
   124    56    55    2
   125    69    70    2
   126    69    68    1
   127    53    54    1
   128    54    55    1
   129    48    49    1
   130    48    47    1
   131    68    65    1
   132    67    66    2
   133    66    65    1
   134    65    64    1
