@<TRIPOS>MOLECULE
tmp/6htmB02.pdb
 163 154 0 0 0
SMALL
GASTEIGER

@<TRIPOS>ATOM
      1  N         32.6530   44.5700   -6.3550 N.3    81  TYR81      -0.1241
      2  CA        33.4710   43.3550   -6.1730 C.3    81  TYR81       0.1605
      3  C         34.8870   43.6690   -6.6310 C.2    81  TYR81       0.2264
      4  O         35.0840   43.9890   -7.8010 O.2    81  TYR81      -0.2867
      5  CB        32.9120   42.1830   -6.9680 C.3    81  TYR81       0.0534
      6  CG        31.6940   41.5760   -6.3090 C.ar   81  TYR81      -0.0201
      7  CD1       30.5940   42.3650   -5.9830 C.ar   81  TYR81      -0.0009
      8  CD2       31.6680   40.2270   -5.9590 C.ar   81  TYR81      -0.0009
      9  CE1       29.4600   41.7840   -5.3470 C.ar   81  TYR81       0.0417
     10  CE2       30.5500   39.6440   -5.3220 C.ar   81  TYR81       0.0417
     11  CZ        29.4350   40.4520   -5.0180 C.ar   81  TYR81       0.1957
     12  OH        28.2520   39.9790   -4.4160 O.3    81  TYR81      -0.2866
     13  N         26.4580   27.2460   -3.3960 N.3    92  MET92      -0.1230
     14  CA        25.4770   28.0600   -4.1230 C.3    92  MET92       0.1702
     15  C         26.1190   29.2100   -4.9000 C.2    92  MET92       0.2592
     16  O         25.4100   29.9520   -5.5890 O.2    92  MET92      -0.2718
     17  CB        24.4310   28.6190   -3.1530 C.3    92  MET92       0.0401
     18  CG        24.9170   29.7240   -2.2200 C.3    92  MET92       0.0596
     19  SD        25.8610   29.1010   -0.7500 S.3    92  MET92      -0.1393
     20  CE        26.6330   30.6390   -0.1320 C.3    92  MET92       0.0692
     21  N         27.4590   29.3490   -4.8400 N.am   93  CYS93      -0.1970
     22  CA        28.1490   30.5560   -5.2750 C.3    93  CYS93       0.1712
     23  C         29.0890   30.2600   -6.4530 C.2    93  CYS93       0.2296
     24  O         29.8330   29.2740   -6.4080 O.2    93  CYS93      -0.2864
     25  CB        28.9360   31.0810   -4.0930 C.3    93  CYS93       0.0983
     26  SG        29.9850   32.4810   -4.5250 S.3    93  CYS93      -0.0798
     27  N         33.7320   44.0870   -1.8270 N.3   131  LEU131     -0.1245
     28  CA        33.6060   42.6430   -1.5710 C.3   131  LEU131      0.1561
     29  C         34.7980   41.8760   -2.1030 C.2   131  LEU131      0.2260
     30  O         35.4150   42.2610   -3.1270 O.2   131  LEU131     -0.2867
     31  CB        32.3640   42.0210   -2.2130 C.3   131  LEU131      0.0270
     32  CG        31.0640   42.6530   -1.5980 C.3   131  LEU131      0.0019
     33  CD1       30.5840   43.8660   -2.4930 C.3   131  LEU131      0.0001
     34  CD2       29.9840   41.6050   -1.5680 C.3   131  LEU131      0.0001
     35  N         32.3640   43.4750    2.7610 N.3   166  ASN166     -0.1240
     36  CA        31.8990   42.0790    2.8880 C.3   166  ASN166      0.1653
     37  C         33.0530   41.2200    2.3600 C.2   166  ASN166      0.2266
     38  O         33.1580   41.0010    1.1570 O.2   166  ASN166     -0.2867
     39  CB        30.6230   41.9380    2.0620 C.3   166  ASN166      0.1155
     40  CG        29.7460   40.7800    2.5070 C.2   166  ASN166      0.2627
     41  OD1       30.2220   39.8000    2.9980 O.2   166  ASN166     -0.2716
     42  ND2       28.4440   40.9030    2.2710 N.am  166  ASN166     -0.0877
     43  N         27.2660   37.8080    6.3670 N.3   193  PHE193     -0.1241
     44  CA        25.9510   37.1290    6.3980 C.3   193  PHE193      0.1605
     45  C         26.1420   35.6780    6.8180 C.2   193  PHE193      0.2264
     46  O         26.9420   34.9530    6.2120 O.2   193  PHE193     -0.2867
     47  CB        25.2800   37.1560    5.0320 C.3   193  PHE193      0.0534
     48  CG        25.1090   38.5320    4.4590 C.ar  193  PHE193     -0.0203
     49  CD1       25.1690   39.6740    5.2480 C.ar  193  PHE193     -0.0042
     50  CD2       24.8620   38.6410    3.1170 C.ar  193  PHE193     -0.0042
     51  CE1       25.0640   40.9670    4.6740 C.ar  193  PHE193     -0.0003
     52  CE2       24.7150   39.9290    2.5070 C.ar  193  PHE193     -0.0003
     53  CZ        24.8310   41.0990    3.3060 C.ar  193  PHE193     -0.0000
     54  N         24.3210   33.3020    6.3120 N.3   195  GLU195     -0.1245
     55  CA        23.7740   32.5010    5.2190 C.3   195  GLU195      0.1567
     56  C         22.6900   31.5590    5.7840 C.2   195  GLU195      0.2260
     57  O         21.4980   31.6590    5.4370 O.2   195  GLU195     -0.2867
     58  CB        24.8360   31.6700    4.4530 C.3   195  GLU195      0.0388
     59  CG        26.2050   32.4230    4.1570 C.3   195  GLU195      0.1160
     60  CD        26.0500   33.7000    3.2730 C.2   195  GLU195      0.3649
     61  OE1       24.9050   34.2060    3.0080 O.co2 195  GLU195     -0.2457
     62  OE2       27.0970   34.1860    2.7780 O.co2 195  GLU195     -0.2457
     63  N         35.3490   29.4210    5.1930 N.3   215  LYS215     -0.1245
     64  CA        34.0110   29.7600    5.6280 C.3   215  LYS215      0.1561
     65  C         33.3010   28.5670    6.2740 C.2   215  LYS215      0.2260
     66  O         32.1850   28.7380    6.8010 O.2   215  LYS215     -0.2867
     67  CB        33.1880   30.2650    4.4230 C.3   215  LYS215      0.0271
     68  CG        31.8490   30.9060    4.8220 C.3   215  LYS215      0.0035
     69  CD        31.3410   31.7660    3.5880 C.3   215  LYS215      0.0206
     70  CE        29.7860   32.0640    3.7230 C.3   215  LYS215      0.1093
     71  NZ        29.3930   32.8650    2.4770 N.3   215  LYS215     -0.1314
     72  N         32.7360   32.7120   12.0170 N.3   221  ARG221     -0.1245
     73  CA        31.9820   33.6650   11.2400 C.3   221  ARG221      0.1563
     74  C         31.0030   34.4260   12.1420 C.2   221  ARG221      0.2260
     75  O         30.9090   35.6590   12.0790 O.2   221  ARG221     -0.2867
     76  CB        31.2650   32.9320   10.1110 C.3   221  ARG221      0.0307
     77  CG        30.5620   33.8340    9.1280 C.3   221  ARG221      0.0489
     78  CD        29.9760   32.9860    7.9740 C.3   221  ARG221      0.2205
     79  NE        29.4010   33.8770    6.9340 N.pl3 221  ARG221     -0.0865
     80  CZ        30.1210   34.5430    6.0250 C.cat 221  ARG221      0.5346
     81  NH1       31.4700   34.4370    5.9700 N.pl3 221  ARG221      0.1354
     82  NH2       29.5270   35.3110    5.1410 N.pl3 221  ARG221      0.1354
     83  N         20.7260   33.9210    3.8280 N.3   241  LEU241     -0.1245
     84  CA        20.5120   33.6990    2.4050 C.3   241  LEU241      0.1561
     85  C         19.2430   32.8690    2.2410 C.2   241  LEU241      0.2260
     86  O         19.2270   31.6840    2.5480 O.2   241  LEU241     -0.2867
     87  CB        21.7390   33.0290    1.7690 C.3   241  LEU241      0.0270
     88  CG        21.6750   32.8060    0.2560 C.3   241  LEU241      0.0019
     89  CD1       21.2590   34.0460   -0.5920 C.3   241  LEU241      0.0001
     90  CD2       23.0290   32.1950   -0.2210 C.3   241  LEU241      0.0001
     91  N         18.8530   38.3650    1.4530 N.3   274  PRO274     -0.2102
     92  CA        18.9020   38.1800   -0.0190 C.3   274  PRO274      0.1504
     93  C         18.3350   36.8130   -0.4200 C.2   274  PRO274      0.2576
     94  O         18.5580   35.8240    0.2600 O.2   274  PRO274     -0.2718
     95  CB        20.4090   38.2300   -0.3470 C.3   274  PRO274      0.0282
     96  CG        21.0870   37.7710    0.9720 C.3   274  PRO274      0.0208
     97  CD        20.1900   38.4930    2.0540 C.3   274  PRO274      0.0893
     98  N         17.6070   36.7830   -1.5310 N.am  275  ARG275     -0.1966
     99  CA        17.1410   35.5460   -2.1090 C.3   275  ARG275      0.1729
    100  C         18.1200   35.0200   -3.1640 C.2   275  ARG275      0.2616
    101  O         18.7580   35.7910   -3.9080 O.2   275  ARG275     -0.2715
    102  CB        15.7610   35.7180   -2.7660 C.3   275  ARG275      0.0348
    103  CG        14.6220   35.5970   -1.8230 C.3   275  ARG275      0.0492
    104  CD        13.3180   35.2700   -2.6220 C.3   275  ARG275      0.2205
    105  NE        12.8540   36.4430   -3.3640 N.pl3 275  ARG275     -0.0865
    106  CZ        11.6230   36.5400   -3.8800 C.cat 275  ARG275      0.5346
    107  NH1       11.2100   37.6510   -4.5100 N.pl3 275  ARG275      0.1354
    108  NH2       10.7860   35.5260   -3.7490 N.pl3 275  ARG275      0.1354
    109  N         18.0850   33.7070   -3.3190 N.am  276  MET276     -0.1963
    110  CA        18.9750   33.0220   -4.2360 C.3   276  MET276      0.1736
    111  C         18.7590   33.4820   -5.6660 C.2   276  MET276      0.2616
    112  O         17.6090   33.6660   -6.1000 O.2   276  MET276     -0.2715
    113  CB        18.7320   31.5140   -4.1740 C.3   276  MET276      0.0427
    114  CG        19.8700   30.7140   -4.7390 C.3   276  MET276      0.0599
    115  SD        21.2810   30.7460   -3.6280 S.3   276  MET276     -0.1393
    116  CE        20.3980   30.4210   -2.0950 C.3   276  MET276      0.0692
    117  N         19.8630   33.5800   -6.4150 N.am  277  ARG277     -0.1977
    118  CA        19.8720   33.7960   -7.8500 C.3   277  ARG277      0.1597
    119  C         20.6440   32.7070   -8.6070 C.2   277  ARG277      0.2287
    120  O         21.4490   31.9620   -8.0140 O.2   277  ARG277     -0.2864
    121  CB        20.4690   35.1860   -8.1500 C.3   277  ARG277      0.0334
    122  CG        19.5510   36.3560   -7.6460 C.3   277  ARG277      0.0492
    123  CD        18.2570   36.4710   -8.5010 C.3   277  ARG277      0.2205
    124  NE        18.5220   36.6160   -9.9390 N.pl3 277  ARG277     -0.0865
    125  CZ        17.6460   36.4190  -10.8960 C.cat 277  ARG277      0.5346
    126  NH1       16.4050   36.0390  -10.6010 N.pl3 277  ARG277      0.1354
    127  NH2       17.9860   36.5880  -12.1680 N.pl3 277  ARG277      0.1354
    128  N         23.4010   30.7300  -10.4810 N.3   279  ALA279     -0.1245
    129  CA        24.8640   30.7380  -10.3140 C.3   279  ALA279      0.1562
    130  C         25.3800   29.3820  -10.7790 C.2   279  ALA279      0.2260
    131  O         24.6160   28.4890  -11.1720 O.2   279  ALA279     -0.2867
    132  CB        25.2800   31.0400   -8.8470 C.3   279  ALA279      0.0290
    133  N         19.2330   41.6280   -6.6670 N.3   314  ARG314     -0.1245
    134  CA        18.7770   40.2390   -6.7730 C.3   314  ARG314      0.1563
    135  C         17.2740   40.2030   -7.0200 C.2   314  ARG314      0.2260
    136  O         16.7410   39.1700   -7.4230 O.2   314  ARG314     -0.2867
    137  CB        19.0260   39.4400   -5.4910 C.3   314  ARG314      0.0307
    138  CG        20.5350   39.2320   -5.1470 C.3   314  ARG314      0.0489
    139  CD        20.6220   38.6800   -3.6650 C.3   314  ARG314      0.2205
    140  NE        22.0360   38.5450   -3.2700 N.pl3 314  ARG314     -0.0865
    141  CZ        22.7990   39.5620   -2.8910 C.cat 314  ARG314      0.5346
    142  NH1       22.3120   40.7980   -2.8370 N.pl3 314  ARG314      0.1354
    143  NH2       24.0410   39.3380   -2.5160 N.pl3 314  ARG314      0.1354
    144  N         29.5100   36.5060   -9.4310 N.3   354  GLN354     -0.1231
    145  CA        29.0640   35.6260   -8.3420 C.3   354  GLN354      0.1698
    146  C         27.7200   34.9490   -8.6490 C.2   354  GLN354      0.2592
    147  O         27.5110   33.8150   -8.2530 O.2   354  GLN354     -0.2718
    148  CB        28.9250   36.4250   -7.0030 C.3   354  GLN354      0.0381
    149  CG        28.7540   35.4920   -5.8210 C.3   354  GLN354      0.0905
    150  CD        28.5930   36.1830   -4.4700 C.2   354  GLN354      0.2608
    151  OE1       28.3550   37.3920   -4.4070 O.2   354  GLN354     -0.2717
    152  NE2       28.6430   35.3920   -3.3860 N.am  354  GLN354     -0.0878
    153  N         26.7820   35.6510   -9.2990 N.am  355  PHE355     -0.1976
    154  CA        25.4450   35.1590   -9.6160 C.3   355  PHE355      0.1639
    155  C         24.8600   36.1250  -10.6390 C.2   355  PHE355      0.2290
    156  O         25.4690   37.1550  -10.9680 O.2   355  PHE355     -0.2864
    157  CB        24.5400   35.0280   -8.3500 C.3   355  PHE355      0.0560
    158  CG        24.4000   36.3080   -7.5790 C.ar  355  PHE355     -0.0200
    159  CD1       23.5110   37.2710   -7.9970 C.ar  355  PHE355     -0.0042
    160  CD2       25.1520   36.5240   -6.4120 C.ar  355  PHE355     -0.0042
    161  CE1       23.3840   38.5300   -7.2980 C.ar  355  PHE355     -0.0003
    162  CE2       25.0440   37.7520   -5.7190 C.ar  355  PHE355     -0.0003
    163  CZ        24.1540   38.7340   -6.1580 C.ar  355  PHE355     -0.0000
@<TRIPOS>BOND
     1   127   125    1
     2   131   130    2
     3   156   155    2
     4   125   126    1
     5   125   124    2
     6   130   129    1
     7   155   154    1
     8   128   129    1
     9   129   132    1
    10   124   123    1
    11   154   153    1
    12   154   157    1
    13   144   145    1
    14   153   146   am
    15   146   145    1
    16   146   147    2
    17   119   120    2
    18   119   118    1
    19   123   122    1
    20   157   158    1
    21   145   148    1
    22   121   118    1
    23   121   122    1
    24   159   158   ar
    25   159   161   ar
    26   118   117    1
    27     4     3    2
    28   158   160   ar
    29   136   135    2
    30   161   163   ar
    31   135   134    1
    32   148   149    1
    33     5     6    1
    34     5     2    1
    35   134   133    1
    36   134   137    1
    37     3     2    1
    38    23    24    2
    39    23    22    1
    40   117   111   am
    41   160   162   ar
    42     1     2    1
    43     6     7   ar
    44     6     8   ar
    45   163   162   ar
    46   112   111    2
    47     7     9   ar
    48     8    10   ar
    49   149   150    1
    50   111   110    1
    51    16    15    2
    52   137   138    1
    53     9    11   ar
    54    10    11   ar
    55    22    21    1
    56    22    25    1
    57   138   139    1
    58    11    12    1
    59    15    21   am
    60    15    14    1
    61   114   113    1
    62   114   115    1
    63    26    25    1
    64   107   106    1
    65   150   151    2
    66   150   152   am
    67   110   113    1
    68   110   109    1
    69    14    13    1
    70    14    17    1
    71   101   100    2
    72   106   108    1
    73   106   105    2
    74   139   140    1
    75   115   116    1
    76   105   104    1
    77   109   100   am
    78   140   141    2
    79   100    99    1
    80    17    18    1
    81    30    29    2
    82   141   142    1
    83   141   143    1
    84   102    99    1
    85   102   103    1
    86   104   103    1
    87    33    32    1
    88    18    19    1
    89    31    32    1
    90    31    28    1
    91    99    98    1
    92    29    28    1
    93    27    28    1
    94    32    34    1
    95    98    93   am
    96    19    20    1
    97    89    88    1
    98    93    92    1
    99    93    94    2
   100    95    92    1
   101    95    96    1
   102    90    88    1
   103    92    91    1
   104    88    87    1
   105    96    97    1
   106    38    37    2
   107    91    97    1
   108    87    84    1
   109    39    40    1
   110    39    36    1
   111    85    84    1
   112    85    86    2
   113    42    40   am
   114    37    36    1
   115    84    83    1
   116    71    70    1
   117    52    50   ar
   118    52    53   ar
   119    40    41    2
   120    35    36    1
   121    62    60   ar
   122    61    60   ar
   123    50    48   ar
   124    60    59    1
   125    53    51   ar
   126    69    70    1
   127    69    68    1
   128    59    58    1
   129    67    68    1
   130    67    64    1
   131    58    55    1
   132    48    47    1
   133    48    49   ar
   134    51    49   ar
   135    47    44    1
   136    82    80    1
   137    63    64    1
   138    55    56    1
   139    55    54    1
   140    57    56    2
   141    64    65    1
   142    81    80    1
   143    80    79    2
   144    46    45    2
   145    65    66    2
   146    43    44    1
   147    44    45    1
   148    79    78    1
   149    78    77    1
   150    77    76    1
   151    76    73    1
   152    73    72    1
   153    73    74    1
   154    75    74    2
