@<TRIPOS>MOLECULE
tmp/6htmB01.pdb
 131 120 0 0 0
SMALL
GASTEIGER

@<TRIPOS>ATOM
      1  N         32.6530   44.5700   -6.3550 N.3    81  TYR81      -0.1241
      2  CA        33.4710   43.3550   -6.1730 C.3    81  TYR81       0.1605
      3  C         34.8870   43.6690   -6.6310 C.2    81  TYR81       0.2264
      4  O         35.0840   43.9890   -7.8010 O.2    81  TYR81      -0.2867
      5  CB        32.9120   42.1830   -6.9680 C.3    81  TYR81       0.0534
      6  CG        31.6940   41.5760   -6.3090 C.ar   81  TYR81      -0.0201
      7  CD1       30.5940   42.3650   -5.9830 C.ar   81  TYR81      -0.0009
      8  CD2       31.6680   40.2270   -5.9590 C.ar   81  TYR81      -0.0009
      9  CE1       29.4600   41.7840   -5.3470 C.ar   81  TYR81       0.0417
     10  CE2       30.5500   39.6440   -5.3220 C.ar   81  TYR81       0.0417
     11  CZ        29.4350   40.4520   -5.0180 C.ar   81  TYR81       0.1957
     12  OH        28.2520   39.9790   -4.4160 O.3    81  TYR81      -0.2866
     13  N         38.6360   33.2440   -4.5670 N.3    86  CYS86      -0.1235
     14  CA        38.1630   32.8310   -3.2560 C.3    86  CYS86       0.1677
     15  C         38.7520   31.4760   -2.9110 C.2    86  CYS86       0.2270
     16  O         38.9480   30.6580   -3.8030 O.2    86  CYS86      -0.2867
     17  CB        36.6200   32.7230   -3.2500 C.3    86  CYS86       0.0956
     18  SG        35.9380   32.3460   -1.5580 S.3    86  CYS86      -0.0801
     19  N         31.5700   27.5270   -1.1220 N.3    90  CYS90      -0.1235
     20  CA        30.0940   27.5920   -0.9350 C.3    90  CYS90       0.1677
     21  C         29.3820   27.0830   -2.1770 C.2    90  CYS90       0.2270
     22  O         29.5970   27.5810   -3.2960 O.2    90  CYS90      -0.2867
     23  CB        29.6600   29.0230   -0.6240 C.3    90  CYS90       0.0956
     24  SG        30.5900   29.6190    0.8250 S.3    90  CYS90      -0.0801
     25  N         27.4590   29.3490   -4.8400 N.3    93  CYS93      -0.1235
     26  CA        28.1490   30.5560   -5.2750 C.3    93  CYS93       0.1677
     27  C         29.0890   30.2600   -6.4530 C.2    93  CYS93       0.2270
     28  O         29.8330   29.2740   -6.4080 O.2    93  CYS93      -0.2867
     29  CB        28.9360   31.0810   -4.0930 C.3    93  CYS93       0.0956
     30  SG        29.9850   32.4810   -4.5250 S.3    93  CYS93      -0.0801
     31  N         31.7320   31.8780   -7.2520 N.3    95  MET95      -0.1245
     32  CA        33.1410   32.1530   -6.8860 C.3    95  MET95       0.1570
     33  C         33.8170   31.0070   -6.1230 C.2    95  MET95       0.2261
     34  O         35.0430   31.0800   -5.8680 O.2    95  MET95      -0.2867
     35  CB        33.2260   33.4430   -6.0510 C.3    95  MET95       0.0387
     36  CG        33.0600   34.6220   -6.9670 C.3    95  MET95       0.0595
     37  SD        32.8080   36.2130   -6.1480 S.3    95  MET95      -0.1393
     38  CE        34.1920   36.2360   -4.9890 C.3    95  MET95       0.0692
     39  N         33.7320   44.0870   -1.8270 N.3   131  LEU131     -0.1231
     40  CA        33.6060   42.6430   -1.5710 C.3   131  LEU131      0.1693
     41  C         34.7980   41.8760   -2.1030 C.2   131  LEU131      0.2593
     42  O         35.4150   42.2610   -3.1270 O.2   131  LEU131     -0.2718
     43  CB        32.3640   42.0210   -2.2130 C.3   131  LEU131      0.0284
     44  CG        31.0640   42.6530   -1.5980 C.3   131  LEU131      0.0019
     45  CD1       30.5840   43.8660   -2.4930 C.3   131  LEU131      0.0001
     46  CD2       29.9840   41.6050   -1.5680 C.3   131  LEU131      0.0001
     47  N         35.0980   40.7830   -1.4080 N.am  132  THR132     -0.1939
     48  CA        36.1510   39.8550   -1.8320 C.3   132  THR132      0.2028
     49  C         35.6720   38.4420   -1.6210 C.2   132  THR132      0.2643
     50  O         34.5590   38.1970   -1.1090 O.2   132  THR132     -0.2714
     51  CB        37.4590   40.0100   -1.0150 C.3   132  THR132      0.1808
     52  OG1       37.1770   39.7470    0.3770 O.3   132  THR132     -0.2208
     53  CG2       38.0260   41.5150   -1.0970 C.3   132  THR132      0.0379
     54  N         36.5390   37.4860   -1.9920 N.am  133  GLY133     -0.1939
     55  CA        36.3600   36.1160   -1.5310 C.3   133  GLY133      0.2014
     56  C         36.7310   36.0370   -0.0210 C.2   133  GLY133      0.2638
     57  O         37.0770   37.0220    0.6270 O.2   133  GLY133     -0.2714
     58  N         36.6890   34.8410    0.5170 N.am  134  GLU134     -0.1977
     59  CA        37.2930   34.6060    1.8300 C.3   134  GLU134      0.1602
     60  C         38.5140   33.7120    1.6980 C.2   134  GLU134      0.2287
     61  O         38.4790   32.6960    0.9950 O.2   134  GLU134     -0.2864
     62  CB        36.3290   33.9980    2.8860 C.3   134  GLU134      0.0415
     63  CG        37.0560   33.9160    4.2800 C.3   134  GLU134      0.1163
     64  CD        36.0960   33.6450    5.4890 C.2   134  GLU134      0.3649
     65  OE1       34.8390   33.8430    5.3870 O.co2 134  GLU134     -0.2457
     66  OE2       36.6090   33.2980    6.5620 O.co2 134  GLU134     -0.2457
     67  N         32.3640   43.4750    2.7610 N.3   166  ASN166     -0.1225
     68  CA        31.8990   42.0790    2.8880 C.3   166  ASN166      0.1785
     69  C         33.0530   41.2200    2.3600 C.2   166  ASN166      0.2597
     70  O         33.1580   41.0010    1.1570 O.2   166  ASN166     -0.2718
     71  CB        30.6230   41.9380    2.0620 C.3   166  ASN166      0.1169
     72  CG        29.7460   40.7800    2.5070 C.2   166  ASN166      0.2627
     73  OD1       30.2220   39.8000    2.9980 O.2   166  ASN166     -0.2716
     74  ND2       28.4440   40.9030    2.2710 N.am  166  ASN166     -0.0877
     75  N         33.9510   40.8020    3.2690 N.am  167  ILE167     -0.1966
     76  CA        35.2330   40.2170    2.8830 C.3   167  ILE167      0.1727
     77  C         35.4940   38.9490    3.6680 C.2   167  ILE167      0.2616
     78  O         36.6480   38.4670    3.7060 O.2   167  ILE167     -0.2715
     79  CB        36.3680   41.2440    3.0770 C.3   167  ILE167      0.0290
     80  CG1       36.6200   41.5610    4.5660 C.3   167  ILE167      0.0022
     81  CG2       36.0020   42.4870    2.2570 C.3   167  ILE167      0.0023
     82  CD1       37.7890   42.5390    4.7390 C.3   167  ILE167      0.0001
     83  N         34.4230   38.3400    4.2050 N.am  168  GLY168     -0.1955
     84  CA        34.6150   37.1150    4.9680 C.3   168  GLY168      0.1869
     85  C         34.5700   37.3460    6.4910 C.2   168  GLY168      0.2309
     86  O         34.5390   38.4690    7.0130 O.2   168  GLY168     -0.2863
     87  N         28.6990   40.4640    7.3590 N.3   192  VAL192     -0.1245
     88  CA        29.0910   39.0470    7.4160 C.3   192  VAL192      0.1561
     89  C         27.7690   38.2890    7.4880 C.2   192  VAL192      0.2260
     90  O         27.1840   38.1450    8.5670 O.2   192  VAL192     -0.2867
     91  CB        29.9800   38.7070    8.6340 C.3   192  VAL192      0.0252
     92  CG1       30.3740   37.1960    8.6420 C.3   192  VAL192      0.0019
     93  CG2       31.2640   39.5200    8.7050 C.3   192  VAL192      0.0019
     94  N         24.3210   33.3020    6.3120 N.3   195  GLU195     -0.1245
     95  CA        23.7740   32.5010    5.2190 C.3   195  GLU195      0.1567
     96  C         22.6900   31.5590    5.7840 C.2   195  GLU195      0.2260
     97  O         21.4980   31.6590    5.4370 O.2   195  GLU195     -0.2867
     98  CB        24.8360   31.6700    4.4530 C.3   195  GLU195      0.0388
     99  CG        26.2050   32.4230    4.1570 C.3   195  GLU195      0.1160
    100  CD        26.0500   33.7000    3.2730 C.2   195  GLU195      0.3649
    101  OE1       24.9050   34.2060    3.0080 O.co2 195  GLU195     -0.2457
    102  OE2       27.0970   34.1860    2.7780 O.co2 195  GLU195     -0.2457
    103  N         35.3490   29.4210    5.1930 N.3   215  LYS215     -0.1245
    104  CA        34.0110   29.7600    5.6280 C.3   215  LYS215      0.1561
    105  C         33.3010   28.5670    6.2740 C.2   215  LYS215      0.2260
    106  O         32.1850   28.7380    6.8010 O.2   215  LYS215     -0.2867
    107  CB        33.1880   30.2650    4.4230 C.3   215  LYS215      0.0271
    108  CG        31.8490   30.9060    4.8220 C.3   215  LYS215      0.0035
    109  CD        31.3410   31.7660    3.5880 C.3   215  LYS215      0.0206
    110  CE        29.7860   32.0640    3.7230 C.3   215  LYS215      0.1093
    111  NZ        29.3930   32.8650    2.4770 N.3   215  LYS215     -0.1314
    112  N         32.7360   32.7120   12.0170 N.3   221  ARG221     -0.1245
    113  CA        31.9820   33.6650   11.2400 C.3   221  ARG221      0.1563
    114  C         31.0030   34.4260   12.1420 C.2   221  ARG221      0.2260
    115  O         30.9090   35.6590   12.0790 O.2   221  ARG221     -0.2867
    116  CB        31.2650   32.9320   10.1110 C.3   221  ARG221      0.0307
    117  CG        30.5620   33.8340    9.1280 C.3   221  ARG221      0.0489
    118  CD        29.9760   32.9860    7.9740 C.3   221  ARG221      0.2205
    119  NE        29.4010   33.8770    6.9340 N.pl3 221  ARG221     -0.0865
    120  CZ        30.1210   34.5430    6.0250 C.cat 221  ARG221      0.5346
    121  NH1       31.4700   34.4370    5.9700 N.pl3 221  ARG221      0.1354
    122  NH2       29.5270   35.3110    5.1410 N.pl3 221  ARG221      0.1354
    123  N         29.5100   36.5060   -9.4310 N.3   354  GLN354     -0.1245
    124  CA        29.0640   35.6260   -8.3420 C.3   354  GLN354      0.1566
    125  C         27.7200   34.9490   -8.6490 C.2   354  GLN354      0.2260
    126  O         27.5110   33.8150   -8.2530 O.2   354  GLN354     -0.2867
    127  CB        28.9250   36.4250   -7.0030 C.3   354  GLN354      0.0367
    128  CG        28.7540   35.4920   -5.8210 C.3   354  GLN354      0.0905
    129  CD        28.5930   36.1830   -4.4700 C.2   354  GLN354      0.2608
    130  OE1       28.3550   37.3920   -4.4070 O.2   354  GLN354     -0.2717
    131  NE2       28.6430   35.3920   -3.3860 N.am  354  GLN354     -0.0878
@<TRIPOS>BOND
     1   123   124    1
     2   125   124    1
     3   125   126    2
     4   124   127    1
     5     4     3    2
     6    31    32    1
     7   127   128    1
     8     5     6    1
     9     5     2    1
    10    36    37    1
    11    36    35    1
    12    32    33    1
    13    32    35    1
    14     3     2    1
    15    27    28    2
    16    27    26    1
    17     1     2    1
    18     6     7   ar
    19     6     8   ar
    20    37    38    1
    21    33    34    2
    22     7     9   ar
    23     8    10   ar
    24   128   129    1
    25     9    11   ar
    26    10    11   ar
    27    26    25    1
    28    26    29    1
    29    11    12    1
    30    13    14    1
    31    30    29    1
    32   129   130    2
    33   129   131   am
    34    16    15    2
    35    22    21    2
    36    14    17    1
    37    14    15    1
    38    17    18    1
    39    42    41    2
    40    45    44    1
    41    43    44    1
    42    43    40    1
    43    21    20    1
    44    41    40    1
    45    41    47   am
    46    54    49   am
    47    54    55    1
    48    48    49    1
    49    48    47    1
    50    48    51    1
    51    39    40    1
    52    49    50    2
    53    44    46    1
    54    55    56    1
    55    19    20    1
    56    53    51    1
    57    51    52    1
    58    20    23    1
    59    23    24    1
    60    56    58   am
    61    56    57    2
    62    58    59    1
    63    61    60    2
    64    70    69    2
    65    60    59    1
    66    59    62    1
    67    71    72    1
    68    71    68    1
    69    81    79    1
    70    74    72   am
    71    69    68    1
    72    69    75   am
    73   111   110    1
    74    72    73    2
    75    67    68    1
    76   102   100   ar
    77    76    79    1
    78    76    75    1
    79    76    77    1
    80    62    63    1
    81   101   100   ar
    82    79    80    1
    83   100    99    1
    84   109   110    1
    85   109   108    1
    86    77    78    2
    87    77    83   am
    88    99    98    1
    89    83    84    1
    90    63    64    1
    91   107   108    1
    92   107   104    1
    93    98    95    1
    94    80    82    1
    95    84    85    1
    96   122   120    1
    97   103   104    1
    98    95    96    1
    99    95    94    1
   100    65    64   ar
   101    97    96    2
   102    64    66   ar
   103   104   105    1
   104   121   120    1
   105   120   119    2
   106   105   106    2
   107    85    86    2
   108   119   118    1
   109    87    88    1
   110    88    89    1
   111    88    91    1
   112    89    90    2
   113   118   117    1
   114    91    92    1
   115    91    93    1
   116   117   116    1
   117   116   113    1
   118   113   112    1
   119   113   114    1
   120   115   114    2
