@<TRIPOS>MOLECULE
tmp/6htnB02.pdb
 113 109 0 0 0
SMALL
GASTEIGER

@<TRIPOS>ATOM
      1  N         99.1620   74.2280   28.9240 N.3    56  TRP56      -0.1241
      2  CA       100.6020   74.0330   29.2040 C.3    56  TRP56       0.1605
      3  C        101.3400   75.3170   28.8680 C.2    56  TRP56       0.2264
      4  O        100.9240   76.0590   27.9530 O.2    56  TRP56      -0.2867
      5  CB       101.1800   72.8670   28.4230 C.3    56  TRP56       0.0550
      6  CG       101.1950   72.9990   26.9500 C.ar   56  TRP56       0.0003
      7  CD1      102.2330   73.4410   26.1590 C.ar   56  TRP56       0.0946
      8  CD2      100.1300   72.7320   26.0390 C.ar   56  TRP56       0.0152
      9  NE1      101.9020   73.4000   24.8340 N.ar   56  TRP56      -0.2442
     10  CE2      100.5800   72.9930   24.7370 C.ar   56  TRP56       0.0810
     11  CE3       98.8160   72.2630   26.1910 C.ar   56  TRP56       0.0012
     12  CZ2       99.7930   72.8030   23.6150 C.ar   56  TRP56       0.0191
     13  CZ3       98.0540   72.0690   25.0620 C.ar   56  TRP56       0.0001
     14  CH2       98.5160   72.3530   23.8020 C.ar   56  TRP56       0.0015
     15  N         93.6630   74.0740   25.4500 N.3    66  ARG66      -0.1245
     16  CA        92.8030   73.2510   24.6060 C.3    66  ARG66       0.1563
     17  C         91.5210   72.9490   25.3710 C.2    66  ARG66       0.2260
     18  O         91.6000   72.5560   26.5550 O.2    66  ARG66      -0.2867
     19  CB        93.5010   71.9590   24.2020 C.3    66  ARG66       0.0307
     20  CG        94.7650   72.1830   23.3730 C.3    66  ARG66       0.0489
     21  CD        94.4580   72.6550   22.0020 C.3    66  ARG66       0.2205
     22  NE        95.6710   72.8170   21.1710 N.pl3  66  ARG66      -0.0865
     23  CZ        96.4290   73.8980   21.1420 C.cat  66  ARG66       0.5346
     24  NH1       96.2170   74.9350   21.9310 N.pl3  66  ARG66       0.1354
     25  NH2       97.4760   73.9030   20.3340 N.pl3  66  ARG66       0.1354
     26  N         87.2740   70.6560   19.2910 N.3    78  GLU78      -0.1245
     27  CA        88.5120   71.0580   19.9780 C.3    78  GLU78       0.1567
     28  C         88.7520   72.5340   19.6720 C.2    78  GLU78       0.2260
     29  O         88.8010   72.8710   18.4780 O.2    78  GLU78      -0.2867
     30  CB        89.6890   70.2170   19.5030 C.3    78  GLU78       0.0388
     31  CG        91.0020   70.6890   20.0900 C.3    78  GLU78       0.1160
     32  CD        92.2460   69.9910   19.5690 C.2    78  GLU78       0.3649
     33  OE1       92.2830   69.7710   18.3240 O.co2  78  GLU78      -0.2457
     34  OE2       93.1560   69.7110   20.3470 O.co2  78  GLU78      -0.2457
     35  N         91.3100   75.8320   20.3780 N.3    80  CYS80      -0.1235
     36  CA        92.7420   75.9820   20.6450 C.3    80  CYS80       0.1677
     37  C         93.1410   77.4470   20.7840 C.2    80  CYS80       0.2270
     38  O         92.7280   78.2570   19.9600 O.2    80  CYS80      -0.2867
     39  CB        93.5400   75.3990   19.4990 C.3    80  CYS80       0.0956
     40  SG        93.1030   73.7230   18.9920 S.3    80  CYS80      -0.0801
     41  N         96.9230   79.4200   21.2240 N.3    82  ASP82      -0.1239
     42  CA        98.4020   79.3330   21.3080 C.3    82  ASP82       0.1674
     43  C         99.0410   80.7080   21.5640 C.2    82  ASP82       0.2266
     44  O        100.2080   80.7340   22.0040 O.2    82  ASP82      -0.2867
     45  CB        98.9690   78.7510   20.0250 C.3    82  ASP82       0.1410
     46  CG        98.5410   77.3100   19.7740 C.2    82  ASP82       0.3668
     47  OD1       98.6010   76.5170   20.7470 O.co2  82  ASP82      -0.2456
     48  OD2       98.3290   76.9830   18.5660 O.co2  82  ASP82      -0.2456
     49  N         90.9790   78.9280   17.6850 N.3    87  TYR87      -0.1241
     50  CA        90.7060   78.2380   16.4240 C.3    87  TYR87       0.1605
     51  C         90.3030   76.7870   16.6720 C.2    87  TYR87       0.2264
     52  O         90.6420   76.1990   17.7240 O.2    87  TYR87      -0.2867
     53  CB        91.9480   78.3190   15.5080 C.3    87  TYR87       0.0534
     54  CG        93.1790   77.5990   15.9940 C.ar   87  TYR87      -0.0201
     55  CD1       94.1210   78.2220   16.7980 C.ar   87  TYR87      -0.0009
     56  CD2       93.4050   76.2890   15.6370 C.ar   87  TYR87      -0.0009
     57  CE1       95.2770   77.5520   17.2090 C.ar   87  TYR87       0.0417
     58  CE2       94.5340   75.5910   16.0540 C.ar   87  TYR87       0.0417
     59  CZ        95.4810   76.2340   16.8410 C.ar   87  TYR87       0.1957
     60  OH        96.5790   75.5600   17.2560 O.3    87  TYR87      -0.2866
     61  N         90.6730   72.9680   16.3590 N.3    89  GLY89      -0.1210
     62  CA        91.8170   72.0610   16.1840 C.3    89  GLY89       0.1956
     63  C         91.4900   70.8490   15.3190 C.2    89  GLY89       0.2611
     64  O         90.3470   70.6110   14.9010 O.2    89  GLY89      -0.2717
     65  N         92.4910   70.0170   15.0850 N.am   90  ALA90      -0.1979
     66  CA        92.4300   68.8560   14.2070 C.3    90  ALA90       0.1597
     67  C         91.4660   67.7940   14.7380 C.2    90  ALA90       0.2287
     68  O         90.9210   67.0380   13.9230 O.2    90  ALA90      -0.2864
     69  CB        93.8150   68.2570   14.0560 C.3    90  ALA90       0.0319
     70  N        104.0650   68.5380   23.1230 N.3   113  ILE113     -0.1245
     71  CA       102.8450   68.2990   23.9500 C.3   113  ILE113      0.1561
     72  C        102.2580   66.9270   23.5800 C.2   113  ILE113      0.2260
     73  O        102.2100   66.5490   22.4220 O.2   113  ILE113     -0.2867
     74  CB       101.8420   69.4540   23.7640 C.3   113  ILE113      0.0252
     75  CG1      100.7700   69.4050   24.8640 C.3   113  ILE113      0.0019
     76  CG2      101.2350   69.4610   22.3780 C.3   113  ILE113      0.0019
     77  CD1      101.2550   69.6080   26.2450 C.3   113  ILE113      0.0001
     78  N         98.5280   65.0150   24.4610 N.3   115  ILE115     -0.1245
     79  CA        97.1380   65.2610   24.9810 C.3   115  ILE115      0.1561
     80  C         96.3930   63.9490   24.9730 C.2   115  ILE115      0.2260
     81  O         96.5060   63.1790   23.9960 O.2   115  ILE115     -0.2867
     82  CB        96.4530   66.3470   24.1570 C.3   115  ILE115      0.0252
     83  CG1       97.2800   67.6050   23.9590 C.3   115  ILE115      0.0019
     84  CG2       95.0900   66.6900   24.7650 C.3   115  ILE115      0.0019
     85  CD1       96.7130   68.5510   22.9470 C.3   115  ILE115      0.0001
     86  N         96.9080   62.5320   21.1610 N.3   131  TRP131     -0.1241
     87  CA        97.7670   63.4010   20.3390 C.3   131  TRP131      0.1605
     88  C         99.1850   63.3540   20.8700 C.2   131  TRP131      0.2264
     89  O         99.4210   63.6590   22.0460 O.2   131  TRP131     -0.2867
     90  CB        97.2620   64.8410   20.3470 C.3   131  TRP131      0.0550
     91  CG        98.1240   65.7750   19.5490 C.ar  131  TRP131      0.0003
     92  CD1       99.1430   66.5610   19.9910 C.ar  131  TRP131      0.0946
     93  CD2       97.9960   66.0220   18.1390 C.ar  131  TRP131      0.0152
     94  NE1       99.6340   67.3060   18.9500 N.ar  131  TRP131     -0.2442
     95  CE2       98.9800   66.9800   17.8040 C.ar  131  TRP131      0.0810
     96  CE3       97.1670   65.5380   17.1390 C.ar  131  TRP131      0.0012
     97  CZ2       99.0920   67.4760   16.5180 C.ar  131  TRP131      0.0191
     98  CZ3       97.2840   66.0210   15.8570 C.ar  131  TRP131      0.0001
     99  CH2       98.2470   66.9790   15.5570 C.ar  131  TRP131      0.0015
    100  N         95.5880   62.4950   15.5600 N.3   136  TRP136     -0.1241
    101  CA        94.7980   61.8960   16.6590 C.3   136  TRP136      0.1605
    102  C         94.5970   60.4060   16.3830 C.2   136  TRP136      0.2264
    103  O         94.2630   60.0480   15.2430 O.2   136  TRP136     -0.2867
    104  CB        93.4750   62.6210   16.7960 C.3   136  TRP136      0.0550
    105  CG        93.6620   63.9850   17.3900 C.ar  136  TRP136      0.0003
    106  CD1       93.8020   65.1460   16.7130 C.ar  136  TRP136      0.0946
    107  CD2       93.6940   64.3160   18.7820 C.ar  136  TRP136      0.0152
    108  NE1       93.9370   66.1910   17.5870 N.ar  136  TRP136     -0.2442
    109  CE2       93.8910   65.7190   18.8630 C.ar  136  TRP136      0.0810
    110  CE3       93.5970   63.6020   19.9660 C.ar  136  TRP136      0.0012
    111  CZ2       93.9340   66.3970   20.0850 C.ar  136  TRP136      0.0191
    112  CZ3       93.6410   64.2530   21.1690 C.ar  136  TRP136      0.0001
    113  CH2       93.8020   65.6340   21.2390 C.ar  136  TRP136      0.0015
@<TRIPOS>BOND
     1    68    67    2
     2    69    66    1
     3    66    67    1
     4    66    65    1
     5    64    63    2
     6    65    63   am
     7   103   102    2
     8    63    62    1
     9    53    54    1
    10    53    50    1
    11    99    98   ar
    12    99    97   ar
    13   100   101    1
    14    56    54   ar
    15    56    58   ar
    16    98    96   ar
    17    54    55   ar
    18    58    59   ar
    19    62    61    1
    20   102   101    1
    21    50    51    1
    22    50    49    1
    23    97    95   ar
    24   101   104    1
    25    51    52    2
    26   106   105   ar
    27   106   108   ar
    28   104   105    1
    29    55    57   ar
    30    59    57   ar
    31    59    60    1
    32    96    93   ar
    33   105   107   ar
    34   108   109   ar
    35    95    93   ar
    36    95    94   ar
    37    93    91   ar
    38    33    32   ar
    39    29    28    2
    40    48    46   ar
    41   107   109   ar
    42   107   110   ar
    43   109   111   ar
    44    94    92   ar
    45    40    39    1
    46    26    27    1
    47    39    36    1
    48    30    27    1
    49    30    31    1
    50    91    92   ar
    51    91    90    1
    52    32    31    1
    53    32    34   ar
    54    28    27    1
    55    46    45    1
    56    46    47   ar
    57    38    37    2
    58   110   112   ar
    59    45    42    1
    60   111   113   ar
    61    25    23    1
    62    87    90    1
    63    87    88    1
    64    87    86    1
    65    35    36    1
    66    36    37    1
    67    88    89    2
    68    23    22    2
    69    23    24    1
    70   112   113   ar
    71    22    21    1
    72    41    42    1
    73    42    43    1
    74    43    44    2
    75    21    20    1
    76    76    74    1
    77    73    72    2
    78    85    83    1
    79    70    71    1
    80    20    19    1
    81    72    71    1
    82    12    14   ar
    83    12    10   ar
    84    74    71    1
    85    74    75    1
    86    14    13   ar
    87    83    82    1
    88    81    80    2
    89    82    84    1
    90    82    79    1
    91    19    16    1
    92    78    79    1
    93    16    17    1
    94    16    15    1
    95    10     9   ar
    96    10     8   ar
    97     9     7   ar
    98    75    77    1
    99    80    79    1
   100    13    11   ar
   101    17    18    2
   102     8    11   ar
   103     8     6   ar
   104     7     6   ar
   105     6     5    1
   106     4     3    2
   107     5     2    1
   108     3     2    1
   109     1     2    1
