@<TRIPOS>MOLECULE
tmp/6htnB01.pdb
 113 109 0 0 0
SMALL
GASTEIGER

@<TRIPOS>ATOM
      1  N         97.4200   78.0450   35.5550 N.3     5  TRP5       -0.1241
      2  CA        98.8990   78.0210   35.4240 C.3     5  TRP5        0.1605
      3  C         99.4660   79.1650   36.2400 C.2     5  TRP5        0.2264
      4  O         98.7850   80.1310   36.5110 O.2     5  TRP5       -0.2867
      5  CB        99.3570   78.1260   33.9780 C.3     5  TRP5        0.0550
      6  CG        99.0380   79.4430   33.3190 C.ar    5  TRP5        0.0003
      7  CD1       99.8650   80.5220   33.1870 C.ar    5  TRP5        0.0946
      8  CD2       97.8040   79.8110   32.7090 C.ar    5  TRP5        0.0152
      9  NE1       99.2380   81.5330   32.5060 N.ar    5  TRP5       -0.2442
     10  CE2       97.9740   81.1270   32.1900 C.ar    5  TRP5        0.0810
     11  CE3       96.5830   79.1720   32.4980 C.ar    5  TRP5        0.0012
     12  CZ2       96.9450   81.7880   31.5240 C.ar    5  TRP5        0.0191
     13  CZ3       95.6140   79.7960   31.7480 C.ar    5  TRP5        0.0001
     14  CH2       95.7670   81.1170   31.3380 C.ar    5  TRP5        0.0015
     15  N         91.2140   79.7390   34.2420 N.3    15  ARG15      -0.1245
     16  CA        90.3320   79.8110   33.0730 C.3    15  ARG15       0.1563
     17  C         89.2350   78.7740   33.3020 C.2    15  ARG15       0.2260
     18  O         89.5660   77.5660   33.4090 O.2    15  ARG15      -0.2867
     19  CB        91.0110   79.6100   31.7320 C.3    15  ARG15       0.0307
     20  CG        92.0850   80.6170   31.3970 C.3    15  ARG15       0.0489
     21  CD        91.4720   81.9630   31.0930 C.3    15  ARG15       0.2205
     22  NE        92.4750   82.9980   30.6920 N.pl3  15  ARG15      -0.0865
     23  CZ        93.1580   83.7280   31.5280 C.cat  15  ARG15       0.5346
     24  NH1       93.0570   83.6170   32.8410 N.pl3  15  ARG15       0.1354
     25  NH2       94.0260   84.6080   31.0280 N.pl3  15  ARG15       0.1354
     26  N         84.0060   81.7180   28.6480 N.3    28  GLU28      -0.1245
     27  CA        85.3160   81.5840   29.3160 C.3    28  GLU28       0.1567
     28  C         85.3890   82.6780   30.3590 C.2    28  GLU28       0.2260
     29  O         85.2360   83.8920   29.9930 O.2    28  GLU28      -0.2867
     30  CB        86.4360   81.7470   28.2740 C.3    28  GLU28       0.0388
     31  CG        87.8150   81.7920   28.8810 C.3    28  GLU28       0.1160
     32  CD        88.9310   82.1020   27.8950 C.2    28  GLU28       0.3649
     33  OE1       88.7430   83.0330   27.0680 O.co2  28  GLU28      -0.2457
     34  OE2       89.9830   81.4150   27.9400 O.co2  28  GLU28      -0.2457
     35  N         87.8330   84.3250   33.3270 N.3    30  CYS30      -0.1235
     36  CA        89.2870   84.4580   33.4920 C.3    30  CYS30       0.1677
     37  C         89.6280   85.1720   34.7790 C.2    30  CYS30       0.2270
     38  O         88.9880   86.1990   35.1140 O.2    30  CYS30      -0.2867
     39  CB        89.8830   85.2660   32.3630 C.3    30  CYS30       0.0956
     40  SG        89.4940   84.7710   30.7080 S.3    30  CYS30      -0.0801
     41  N         93.2490   86.7510   36.3730 N.3    32  ASP32      -0.1239
     42  CA        94.6940   86.9860   36.1770 C.3    32  ASP32       0.1674
     43  C         95.3280   87.6690   37.3890 C.2    32  ASP32       0.2266
     44  O         96.5630   87.5980   37.5040 O.2    32  ASP32      -0.2867
     45  CB        94.9420   87.8400   34.9510 C.3    32  ASP32       0.1410
     46  CG        94.6000   87.1940   33.6410 C.2    32  ASP32       0.3668
     47  OD1       94.8140   85.9480   33.4880 O.co2  32  ASP32      -0.2456
     48  OD2       94.2910   87.9520   32.7120 O.co2  32  ASP32      -0.2456
     49  N         86.8610   88.1440   34.6620 N.3    37  TYR37      -0.1241
     50  CA        86.3840   88.8030   33.4370 C.3    37  TYR37       0.1605
     51  C         86.0780   87.8110   32.3500 C.2    37  TYR37       0.2264
     52  O         86.5090   86.6070   32.4070 O.2    37  TYR37      -0.2867
     53  CB        87.4080   89.8400   32.9570 C.3    37  TYR37       0.0534
     54  CG        88.7320   89.3100   32.4730 C.ar   37  TYR37      -0.0201
     55  CD1       88.9090   88.9800   31.1400 C.ar   37  TYR37      -0.0009
     56  CD2       89.7900   89.1030   33.3530 C.ar   37  TYR37      -0.0009
     57  CE1       90.0990   88.4550   30.6580 C.ar   37  TYR37       0.0417
     58  CE2       91.0080   88.6430   32.8720 C.ar   37  TYR37       0.0417
     59  CZ        91.1610   88.3110   31.5300 C.ar   37  TYR37       0.1957
     60  OH        92.3050   87.7770   31.0000 O.3    37  TYR37      -0.2866
     61  N         86.6190   86.0690   28.9460 N.3    39  GLY39      -0.1210
     62  CA        87.7010   85.8570   27.9950 C.3    39  GLY39       0.1956
     63  C         87.2590   85.8720   26.5570 C.2    39  GLY39       0.2611
     64  O         86.0480   85.7560   26.2710 O.2    39  GLY39      -0.2717
     65  N         88.2030   85.9350   25.6370 N.am   40  ALA40      -0.1979
     66  CA        87.9590   86.0530   24.1960 C.3    40  ALA40       0.1597
     67  C         87.2010   84.8670   23.6170 C.2    40  ALA40       0.2287
     68  O         86.5650   85.0270   22.5890 O.2    40  ALA40      -0.2864
     69  CB        89.2650   86.2180   23.4410 C.3    40  ALA40       0.0319
     70  N        101.2520   80.6000   27.4400 N.3    63  ILE63      -0.1245
     71  CA       100.2070   79.5710   27.7110 C.3    63  ILE63       0.1561
     72  C         99.6010   79.0700   26.4110 C.2    63  ILE63       0.2260
     73  O         99.3230   79.8190   25.4610 O.2    63  ILE63      -0.2867
     74  CB        99.1670   80.1250   28.6920 C.3    63  ILE63       0.0252
     75  CG1       98.2860   79.0050   29.2560 C.3    63  ILE63       0.0019
     76  CG2       98.3180   81.2090   28.0530 C.3    63  ILE63       0.0019
     77  CD1       99.0250   78.0290   30.1220 C.3    63  ILE63       0.0001
     78  N         96.1700   76.5950   25.4360 N.3    65  ILE65      -0.1245
     79  CA        94.9370   76.0360   26.0710 C.3    65  ILE65       0.1561
     80  C         94.2130   75.2210   25.0290 C.2    65  ILE65       0.2260
     81  O         94.1380   75.5840   23.8350 O.2    65  ILE65      -0.2867
     82  CB        94.0520   77.1690   26.6100 C.3    65  ILE65       0.0252
     83  CG1       94.8030   78.1620   27.4930 C.3    65  ILE65       0.0019
     84  CG2       92.8370   76.5750   27.3300 C.3    65  ILE65       0.0019
     85  CD1       94.0060   79.4080   27.7670 C.3    65  ILE65       0.0001
     86  N         93.9880   77.7200   21.7750 N.3    81  TRP81      -0.1241
     87  CA        94.6350   79.0230   21.9890 C.3    81  TRP81       0.1605
     88  C         96.1270   78.7610   22.0790 C.2    81  TRP81       0.2264
     89  O         96.5540   77.9910   22.9830 O.2    81  TRP81      -0.2867
     90  CB        94.1630   79.7070   23.2340 C.3    81  TRP81       0.0550
     91  CG        94.7970   81.0390   23.5000 C.ar   81  TRP81       0.0003
     92  CD1       95.9600   81.2650   24.1670 C.ar   81  TRP81       0.0946
     93  CD2       94.2670   82.3230   23.1500 C.ar   81  TRP81       0.0152
     94  NE1       96.1930   82.6170   24.2480 N.ar   81  TRP81      -0.2442
     95  CE2       95.1830   83.2790   23.6220 C.ar   81  TRP81       0.0810
     96  CE3       93.1440   82.7290   22.4490 C.ar   81  TRP81       0.0012
     97  CZ2       94.9290   84.6590   23.4760 C.ar   81  TRP81       0.0191
     98  CZ3       92.9090   84.0780   22.2940 C.ar   81  TRP81       0.0001
     99  CH2       93.8060   85.0130   22.7700 C.ar   81  TRP81       0.0015
    100  N         91.4350   82.1370   19.1720 N.3    86  TRP86      -0.1241
    101  CA        90.8930   80.7650   19.2770 C.3    86  TRP86       0.1605
    102  C         90.6660   80.1870   17.8930 C.2    86  TRP86       0.2264
    103  O         90.0980   80.8810   17.0340 O.2    86  TRP86      -0.2867
    104  CB        89.5960   80.8060   20.0820 C.3    86  TRP86       0.0550
    105  CG        89.8690   81.0230   21.5320 C.ar   86  TRP86       0.0003
    106  CD1       89.8510   82.2060   22.2040 C.ar   86  TRP86       0.0946
    107  CD2       90.2460   80.0360   22.5000 C.ar   86  TRP86       0.0152
    108  NE1       90.1650   82.0440   23.5130 N.ar   86  TRP86      -0.2442
    109  CE2       90.4190   80.6970   23.7160 C.ar   86  TRP86       0.0810
    110  CE3       90.4190   78.6510   22.4570 C.ar   86  TRP86       0.0012
    111  CZ2       90.7620   80.0360   24.9000 C.ar   86  TRP86       0.0191
    112  CZ3       90.7390   77.9970   23.6180 C.ar   86  TRP86       0.0001
    113  CH2       90.9070   78.6520   24.8250 C.ar   86  TRP86       0.0015
@<TRIPOS>BOND
     1   103   102    2
     2   102   101    1
     3   100   101    1
     4   101   104    1
     5   104   105    1
     6   105   106   ar
     7   105   107   ar
     8    86    87    1
     9    87    88    1
    10    87    90    1
    11    88    89    2
    12   106   108   ar
    13    98    96   ar
    14    98    99   ar
    15    96    93   ar
    16   110   107   ar
    17   110   112   ar
    18   107   109   ar
    19    68    67    2
    20    99    97   ar
    21    93    91   ar
    22    93    95   ar
    23    90    91    1
    24    69    66    1
    25    97    95   ar
    26    91    92   ar
    27   108   109   ar
    28    67    66    1
    29   112   113   ar
    30    95    94   ar
    31   109   111   ar
    32    81    80    2
    33    92    94   ar
    34    66    65    1
    35   113   111   ar
    36    80    79    1
    37    78    79    1
    38    73    72    2
    39    65    63   am
    40    79    82    1
    41    64    63    2
    42    72    71    1
    43    63    62    1
    44    82    84    1
    45    82    83    1
    46    33    32   ar
    47    70    71    1
    48    83    85    1
    49    71    74    1
    50    32    34   ar
    51    32    31    1
    52    62    61    1
    53    76    74    1
    54    30    31    1
    55    30    27    1
    56    26    27    1
    57    74    75    1
    58    75    77    1
    59    27    28    1
    60    29    28    2
    61    57    55   ar
    62    57    59   ar
    63    22    21    1
    64    22    23    2
    65    40    39    1
    66    60    59    1
    67    25    23    1
    68    21    20    1
    69    55    54   ar
    70    14    12   ar
    71    14    13   ar
    72    20    19    1
    73    12    10   ar
    74    23    24    1
    75    59    58   ar
    76    19    16    1
    77    13    11   ar
    78    10     9   ar
    79    10     8   ar
    80    51    52    2
    81    51    50    1
    82    39    36    1
    83    54    53    1
    84    54    56   ar
    85    11     8   ar
    86     9     7   ar
    87     8     6   ar
    88    48    46   ar
    89    58    56   ar
    90    53    50    1
    91    16    17    1
    92    16    15    1
    93     7     6   ar
    94    17    18    2
    95     6     5    1
    96    35    36    1
    97    50    49    1
    98    47    46   ar
    99    36    37    1
   100    46    45    1
   101     5     2    1
   102    37    38    2
   103    45    42    1
   104     2     1    1
   105     2     3    1
   106    42    41    1
   107    42    43    1
   108     3     4    2
   109    43    44    2
