@<TRIPOS>MOLECULE
tmp/6htpV00.pdb
 138 130 0 0 0
SMALL
GASTEIGER

@<TRIPOS>ATOM
      1  N          3.6220 -159.4610   43.4070 N.3     1  THR1       -0.1218
      2  CA         3.3190 -160.7190   44.1720 C.3     1  THR1        0.1862
      3  C          3.3530 -160.4740   45.6790 C.2     1  THR1        0.2287
      4  O          4.2630 -159.8280   46.1960 O.2     1  THR1       -0.2866
      5  CB         4.2860 -161.8480   43.8030 C.3     1  THR1        0.1770
      6  OG1        4.1020 -162.0950   42.4150 O.3     1  THR1       -0.2211
      7  CG2        3.9660 -163.1410   44.5390 C.3     1  THR1        0.0375
      8  N         -2.0430 -161.8060   40.7940 N.3    19  ARG19      -0.1231
      9  CA        -1.6180 -160.9560   39.6830 C.3    19  ARG19       0.1694
     10  C         -0.2640 -161.4100   39.1370 C.2    19  ARG19       0.2592
     11  O          0.7070 -161.5150   39.8800 O.2    19  ARG19      -0.2718
     12  CB        -1.5610 -159.4870   40.1120 C.3    19  ARG19       0.0321
     13  CG        -0.9690 -158.5540   39.0610 C.3    19  ARG19       0.0489
     14  CD        -0.9880 -157.1080   39.5150 C.3    19  ARG19       0.2205
     15  NE        -2.3390 -156.5580   39.5020 N.pl3  19  ARG19      -0.0865
     16  CZ        -2.6750 -155.3580   39.9680 C.cat  19  ARG19       0.5346
     17  NH1       -1.7610 -154.5490   40.5050 N.pl3  19  ARG19       0.1354
     18  NH2       -3.9420 -154.9640   39.9050 N.pl3  19  ARG19       0.1354
     19  N         -0.2190 -161.6660   37.8320 N.am   20  ALA20      -0.1966
     20  CA         1.0210 -161.9620   37.1130 C.3    20  ALA20       0.1728
     21  C          1.2940 -160.8010   36.1730 C.2    20  ALA20       0.2617
     22  O          0.4390 -160.4630   35.3470 O.2    20  ALA20      -0.2715
     23  CB         0.8780 -163.2480   36.3190 C.3    20  ALA20       0.0334
     24  N          2.4750 -160.1960   36.2900 N.am   21  THR21      -0.1937
     25  CA         2.8110 -159.0080   35.5130 C.3    21  THR21       0.2028
     26  C          4.0250 -159.1850   34.6100 C.2    21  THR21       0.2642
     27  O          4.9730 -159.8810   34.9530 O.2    21  THR21      -0.2714
     28  CB         3.0910 -157.7970   36.4220 C.3    21  THR21       0.1808
     29  OG1        4.2320 -158.0620   37.2430 O.3    21  THR21      -0.2208
     30  CG2        1.8980 -157.4960   37.3010 C.3    21  THR21       0.0379
     31  N          3.9650 -158.5200   33.4590 N.am   22  GLU22      -0.1963
     32  CA         5.0950 -158.3220   32.5520 C.3    22  GLU22       0.1733
     33  C          5.4220 -156.8280   32.5900 C.2    22  GLU22       0.2616
     34  O          4.6360 -156.0130   32.0920 O.2    22  GLU22      -0.2715
     35  CB         4.7020 -158.6900   31.1160 C.3    22  GLU22       0.0429
     36  CG         5.3380 -159.9500   30.5380 C.3    22  GLU22       0.1163
     37  CD         5.1700 -160.0580   29.0210 C.2    22  GLU22       0.3649
     38  OE1        4.5160 -159.1690   28.4120 O.co2  22  GLU22      -0.2457
     39  OE2        5.6870 -161.0520   28.4200 O.co2  22  GLU22      -0.2457
     40  N          6.5610 -156.4580   33.1700 N.am   23  GLY23      -0.1955
     41  CA         6.9080 -155.0470   33.3120 C.3    23  GLY23       0.1869
     42  C          5.8530 -154.3560   34.1570 C.2    23  GLY23       0.2309
     43  O          5.6550 -154.7300   35.3100 O.2    23  GLY23      -0.2863
     44  N         -0.6330 -159.4250   32.8080 N.3    27  ALA27      -0.1245
     45  CA        -0.9190 -160.4770   31.8150 C.3    27  ALA27       0.1562
     46  C         -2.0610 -161.3980   32.2450 C.2    27  ALA27       0.2260
     47  O         -2.8920 -161.7800   31.4120 O.2    27  ALA27      -0.2867
     48  CB         0.3310 -161.2910   31.5200 C.3    27  ALA27       0.0290
     49  N         -4.0770 -165.7800   38.2860 N.3    31  CYS31      -0.1221
     50  CA        -3.1240 -166.8770   38.1060 C.3    31  CYS31       0.1808
     51  C         -2.8990 -167.5560   39.4500 C.2    31  CYS31       0.2602
     52  O         -3.1060 -166.9490   40.4970 O.2    31  CYS31      -0.2717
     53  CB        -1.8080 -166.3580   37.5240 C.3    31  CYS31       0.0970
     54  SG        -0.6620 -165.6450   38.7290 S.3    31  CYS31      -0.0800
     55  N         -2.5020 -168.8220   39.4220 N.am   32  SER32      -0.1938
     56  CA        -2.2970 -169.5800   40.6530 C.3    32  SER32       0.2055
     57  C         -0.8420 -169.4640   41.0800 C.2    32  SER32       0.2642
     58  O          0.0660 -169.7260   40.2840 O.2    32  SER32      -0.2714
     59  CB        -2.6790 -171.0480   40.4660 C.3    32  SER32       0.2130
     60  OG        -3.0990 -171.6140   41.7020 O.3    32  SER32      -0.2179
     61  N         -0.6300 -169.0460   42.3270 N.am   33  LYS33      -0.1977
     62  CA         0.7130 -168.9540   42.8970 C.3    33  LYS33       0.1596
     63  C          0.9650 -169.9570   44.0120 C.2    33  LYS33       0.2287
     64  O          2.0930 -170.0480   44.4940 O.2    33  LYS33      -0.2864
     65  CB         0.9530 -167.5500   43.4210 C.3    33  LYS33       0.0298
     66  CG         0.7460 -166.4870   42.3670 C.3    33  LYS33       0.0038
     67  CD         1.1030 -165.1280   42.9110 C.3    33  LYS33       0.0206
     68  CE         0.8520 -164.0550   41.8730 C.3    33  LYS33       0.1093
     69  NZ         1.3870 -162.7790   42.3900 N.3    33  LYS33      -0.1314
     70  N          1.4020 -173.6800   44.8340 N.3    35  HIS35      -0.1241
     71  CA         1.7750 -174.8880   44.1120 C.3    35  HIS35       0.1621
     72  C          1.7180 -176.1210   44.9860 C.2    35  HIS35       0.2264
     73  O          1.8790 -176.0660   46.2070 O.2    35  HIS35      -0.2867
     74  CB         3.1800 -174.7500   43.5320 C.3    35  HIS35       0.0745
     75  CG         3.3130 -173.6060   42.5850 C.ar   35  HIS35       0.0817
     76  ND1        3.8900 -172.4090   42.9450 N.ar   35  HIS35      -0.2268
     77  CD2        2.9030 -173.4590   41.3040 C.ar   35  HIS35       0.1154
     78  CE1        3.8510 -171.5790   41.9180 C.ar   35  HIS35       0.1986
     79  NE2        3.2570 -172.1920   40.9100 N.ar   35  HIS35      -0.2212
     80  N          4.6440 -169.1630   45.6420 N.3    45  GLY45      -0.1210
     81  CA         5.7380 -168.7880   44.7540 C.3    45  GLY45       0.1956
     82  C          5.7850 -167.3110   44.4170 C.2    45  GLY45       0.2612
     83  O          4.7720 -166.7190   44.0570 O.2    45  GLY45      -0.2717
     84  N          6.9710 -166.7250   44.5420 N.am   46  ALA46      -0.1965
     85  CA         7.2350 -165.3470   44.1310 C.3    46  ALA46       0.1728
     86  C          8.5720 -165.3050   43.4020 C.2    46  ALA46       0.2617
     87  O          9.2460 -166.3250   43.2810 O.2    46  ALA46      -0.2715
     88  CB         7.2560 -164.4370   45.3440 C.3    46  ALA46       0.0334
     89  N          8.9710 -164.1270   42.9410 N.am   47  GLY47      -0.1940
     90  CA        10.1370 -163.9890   42.0720 C.3    47  GLY47       0.2014
     91  C          9.8180 -164.3110   40.6170 C.2    47  GLY47       0.2640
     92  O          8.7000 -164.0720   40.1460 O.2    47  GLY47      -0.2714
     93  N         10.8130 -164.8470   39.9070 N.am   48  THR48      -0.1936
     94  CA        10.6660 -165.2250   38.5010 C.3    48  THR48       0.2028
     95  C          9.7140 -166.4010   38.3760 C.2    48  THR48       0.2642
     96  O         10.0030 -167.4840   38.8680 O.2    48  THR48      -0.2714
     97  CB        12.0140 -165.5860   37.8610 C.3    48  THR48       0.1808
     98  OG1       12.9360 -164.5130   38.0630 O.3    48  THR48      -0.2208
     99  CG2       11.8590 -165.8210   36.3730 C.3    48  THR48       0.0379
    100  N          8.5880 -166.1780   37.7070 N.am   49  ALA49      -0.1963
    101  CA         7.4820 -167.1480   37.6860 C.3    49  ALA49       0.1728
    102  C          7.8140 -168.4910   37.0400 C.2    49  ALA49       0.2616
    103  O          7.3320 -169.5250   37.5040 O.2    49  ALA49      -0.2715
    104  CB         6.2590 -166.5410   37.0160 C.3    49  ALA49       0.0334
    105  N          8.6160 -168.4730   35.9740 N.am   50  ALA50      -0.1977
    106  CA         9.0580 -169.7100   35.3150 C.3    50  ALA50       0.1597
    107  C          9.8900 -170.5600   36.2570 C.2    50  ALA50       0.2287
    108  O          9.6780 -171.7650   36.3590 O.2    50  ALA50      -0.2864
    109  CB         9.8680 -169.4030   34.0680 C.3    50  ALA50       0.0319
    110  N          9.9500 -170.3130   39.5800 N.3    52  THR52      -0.1203
    111  CA         9.0650 -170.7010   40.6690 C.3    52  THR52       0.1994
    112  C          8.2730 -171.9540   40.3020 C.2    52  THR52       0.2617
    113  O          8.2070 -172.9000   41.0840 O.2    52  THR52      -0.2717
    114  CB         8.1360 -169.5190   41.0470 C.3    52  THR52       0.1784
    115  OG1        8.8170 -168.6710   41.9850 O.3    52  THR52      -0.2211
    116  CG2        6.8310 -169.9730   41.6620 C.3    52  THR52       0.0376
    117  N          7.6870 -171.9490   39.1070 N.am   53  ASP53      -0.1973
    118  CA         6.8800 -173.0790   38.6300 C.3    53  ASP53       0.1709
    119  C          7.6590 -174.3610   38.4140 C.2    53  ASP53       0.2293
    120  O          7.2530 -175.4100   38.8930 O.2    53  ASP53      -0.2864
    121  CB         6.1870 -172.7350   37.3110 C.3    53  ASP53       0.1436
    122  CG         4.9720 -171.8840   37.4950 C.2    53  ASP53       0.3671
    123  OD1        4.5460 -171.2870   36.4810 O.co2  53  ASP53      -0.2456
    124  OD2        4.4280 -171.7900   38.6230 O.co2  53  ASP53      -0.2456
    125  N          7.7580 -161.5700   48.2080 N.3   128  GLY128     -0.1210
    126  CA         7.3380 -160.8620   46.9990 C.3   128  GLY128      0.1956
    127  C          7.3900 -159.3620   47.2070 C.2   128  GLY128      0.2612
    128  O          7.8000 -158.9000   48.2620 O.2   128  GLY128     -0.2717
    129  N          6.9650 -158.6000   46.2040 N.am  129  SER129     -0.1952
    130  CA         7.0010 -157.1360   46.2730 C.3   129  SER129      0.1924
    131  C          6.0630 -156.5730   47.3410 C.2   129  SER129      0.2314
    132  O          6.3050 -155.4890   47.8600 O.2   129  SER129     -0.2863
    133  CB         6.6700 -156.5180   44.9150 C.3   129  SER129      0.2116
    134  OG         5.3980 -156.9320   44.4570 O.3   129  SER129     -0.2180
    135  N          2.6520 -154.2090   42.4050 N.3   168  GLY168     -0.1225
    136  CA         2.9990 -155.5310   41.8790 C.3   168  GLY168      0.1811
    137  C          2.0080 -156.6290   42.2300 C.2   168  GLY168      0.2280
    138  O          1.9700 -157.6640   41.5640 O.2   168  GLY168     -0.2866
@<TRIPOS>BOND
     1    38    37   ar
     2    39    37   ar
     3    37    36    1
     4    36    35    1
     5    35    32    1
     6    47    46    2
     7    48    45    1
     8    45    46    1
     9    45    44    1
    10    34    33    2
    11    32    33    1
    12    32    31    1
    13    33    40   am
    14    40    41    1
    15    41    42    1
    16    31    26   am
    17   109   106    1
    18    42    43    2
    19    26    27    2
    20    26    25    1
    21   106   105    1
    22   106   107    1
    23    22    21    2
    24    25    24    1
    25    25    28    1
    26   105   102   am
    27    21    24   am
    28    21    20    1
    29   107   108    2
    30    23    20    1
    31    99    97    1
    32    28    29    1
    33    28    30    1
    34   123   122   ar
    35   104   101    1
    36   102   103    2
    37   102   101    1
    38    20    19    1
    39   121   122    1
    40   121   118    1
    41   122   124   ar
    42    53    50    1
    43    53    54    1
    44   101   100    1
    45   100    95   am
    46    19    10   am
    47    97    98    1
    48    97    94    1
    49    50    49    1
    50    50    51    1
    51    95    94    1
    52    95    96    2
    53   119   118    1
    54   119   120    2
    55    94    93    1
    56   118   117    1
    57    13    14    1
    58    13    12    1
    59   117   112   am
    60    10     9    1
    61    10    11    2
    62    55    51   am
    63    55    56    1
    64    51    52    2
    65    15    14    1
    66    15    16    2
    67   110   111    1
    68     9    12    1
    69     9     8    1
    70    18    16    1
    71    93    91   am
    72    16    17    1
    73    92    91    2
    74    58    57    2
    75   112   111    1
    76   112   113    2
    77    59    56    1
    78    59    60    1
    79    91    90    1
    80    56    57    1
    81   111   114    1
    82    79    77   ar
    83    79    78   ar
    84   114   116    1
    85   114   115    1
    86    57    61   am
    87    77    75   ar
    88   138   137    2
    89    68    69    1
    90    68    67    1
    91   136   137    1
    92   136   135    1
    93    78    76   ar
    94    90    89    1
    95    61    62    1
    96    66    67    1
    97    66    65    1
    98     6     5    1
    99    75    76   ar
   100    75    74    1
   101    62    65    1
   102    62    63    1
   103    89    86   am
   104    87    86    2
   105    86    85    1
   106     1     2    1
   107    74    71    1
   108     5     2    1
   109     5     7    1
   110    63    64    2
   111    83    82    2
   112    71    70    1
   113    71    72    1
   114    85    84    1
   115    85    88    1
   116     2     3    1
   117    82    84   am
   118    82    81    1
   119   134   133    1
   120    81    80    1
   121   133   130    1
   122    72    73    2
   123     3     4    2
   124   129   130    1
   125   129   127   am
   126   130   131    1
   127   126   127    1
   128   126   125    1
   129   127   128    2
   130   131   132    2
