@<TRIPOS>MOLECULE
tmp/6htsF00.pdb
 208 201 0 0 0
SMALL
GASTEIGER

@<TRIPOS>ATOM
      1  N        147.7270  117.3910  202.2430 N.3    10  ALA10      -0.1231
      2  CA       147.8930  117.7120  203.6560 C.3    10  ALA10       0.1694
      3  C        146.5490  117.8360  204.3610 C.2    10  ALA10       0.2592
      4  O        146.3420  117.2460  205.4270 O.2    10  ALA10      -0.2718
      5  CB       148.6990  119.0020  203.8080 C.3    10  ALA10       0.0304
      6  N        145.6270  118.6060  203.7890 N.am   11  HIS11      -0.1976
      7  CA       144.3050  118.7990  204.3670 C.3    11  HIS11       0.1656
      8  C        143.2510  117.8730  203.7740 C.2    11  HIS11       0.2291
      9  O        142.0780  117.9780  204.1460 O.2    11  HIS11      -0.2864
     10  CB       143.8630  120.2550  204.1940 C.3    11  HIS11       0.0771
     11  CG       144.7600  121.2400  204.8750 C.ar   11  HIS11       0.0820
     12  ND1      144.7880  121.3960  206.2440 N.ar   11  HIS11      -0.2267
     13  CD2      145.6610  122.1190  204.3770 C.ar   11  HIS11       0.1154
     14  CE1      145.6690  122.3280  206.5610 C.ar   11  HIS11       0.1986
     15  NE2      146.2120  122.7840  205.4460 N.ar   11  HIS11      -0.2212
     16  N        142.9600  114.6020  204.0830 N.3    13  HIS13      -0.1226
     17  CA       142.6650  113.3910  204.8370 C.3    13  HIS13       0.1752
     18  C        141.4730  113.5440  205.7730 C.2    13  HIS13       0.2595
     19  O        141.0980  112.5690  206.4330 O.2    13  HIS13      -0.2718
     20  CB       143.8940  112.9470  205.6370 C.3    13  HIS13       0.0759
     21  CG       144.3090  113.9130  206.7030 C.ar   13  HIS13       0.0818
     22  ND1      143.6440  114.0300  207.9040 N.ar   13  HIS13      -0.2268
     23  CD2      145.3300  114.8010  206.7510 C.ar   13  HIS13       0.1154
     24  CE1      144.2330  114.9530  208.6440 C.ar   13  HIS13       0.1986
     25  NE2      145.2590  115.4360  207.9670 N.ar   13  HIS13      -0.2212
     26  N        140.8720  114.7290  205.8470 N.am   14  ILE14      -0.1980
     27  CA       139.7020  114.9750  206.6810 C.3    14  ILE14       0.1595
     28  C        138.5280  115.3350  205.7830 C.2    14  ILE14       0.2287
     29  O        138.6670  116.1310  204.8470 O.2    14  ILE14      -0.2864
     30  CB       139.9620  116.0860  207.7180 C.3    14  ILE14       0.0276
     31  CG1      140.6190  117.2990  207.0540 C.3    14  ILE14       0.0022
     32  CG2      140.8140  115.5620  208.8610 C.3    14  ILE14       0.0022
     33  CD1      140.8480  118.4630  207.9930 C.3    14  ILE14       0.0001
     34  N        138.7390  112.4330  211.8260 N.3    31  GLY31      -0.1210
     35  CA       140.1690  112.6370  211.7270 C.3    31  GLY31       0.1956
     36  C        140.6780  113.9240  212.3300 C.2    31  GLY31       0.2612
     37  O        141.7300  114.4170  211.9100 O.2    31  GLY31      -0.2717
     38  N        139.9670  114.4870  213.3040 N.am   32  MET32      -0.1965
     39  CA       140.3680  115.7250  213.9600 C.3    32  MET32       0.1736
     40  C        140.3810  115.5080  215.4640 C.2    32  MET32       0.2616
     41  O        139.3810  115.0660  216.0390 O.2    32  MET32      -0.2715
     42  CB       139.4240  116.8760  213.5960 C.3    32  MET32       0.0427
     43  CG       139.4390  117.2510  212.1230 C.3    32  MET32       0.0599
     44  SD       140.9850  118.0310  211.6230 S.3    32  MET32      -0.1393
     45  CE       140.9300  119.5370  212.5920 C.3    32  MET32       0.0692
     46  N        141.5110  115.8170  216.0970 N.am   33  VAL33      -0.1963
     47  CA       141.6960  115.6270  217.5310 C.3    33  VAL33       0.1727
     48  C        142.2390  116.9180  218.1260 C.2    33  VAL33       0.2617
     49  O        143.1840  117.5050  217.5870 O.2    33  VAL33      -0.2715
     50  CB       142.6450  114.4510  217.8360 C.3    33  VAL33       0.0290
     51  CG1      142.8770  114.3270  219.3340 C.3    33  VAL33       0.0023
     52  CG2      142.0880  113.1530  217.2710 C.3    33  VAL33       0.0023
     53  N        141.6450  117.3550  219.2320 N.am   34  GLY34      -0.1940
     54  CA       142.1070  118.5290  219.9470 C.3    34  GLY34       0.2014
     55  C        141.3170  119.7730  219.5870 C.2    34  GLY34       0.2638
     56  O        140.3730  119.7530  218.7910 O.2    34  GLY34      -0.2714
     57  N        141.7320  120.8800  220.2070 N.am   35  GLN35      -0.1977
     58  CA       141.1430  122.2020  219.9930 C.3    35  GLN35       0.1601
     59  C        139.6450  122.1900  220.3170 C.2    35  GLN35       0.2287
     60  O        138.7810  122.3330  219.4500 O.2    35  GLN35      -0.2864
     61  CB       141.3990  122.6870  218.5600 C.3    35  GLN35       0.0394
     62  CG       142.8550  122.6160  218.1220 C.3    35  GLN35       0.0908
     63  CD       143.7470  123.5980  218.8590 C.2    35  GLN35       0.2608
     64  OE1      143.2670  124.5380  219.4930 O.2    35  GLN35      -0.2717
     65  NE2      145.0540  123.3830  218.7770 N.am   35  GLN35      -0.0878
     66  N        149.8000  129.5370  217.8170 N.3    64  GLN64      -0.1231
     67  CA       151.1530  129.2320  217.3880 C.3    64  GLN64       0.1683
     68  C        151.1380  128.5430  216.0240 C.2    64  GLN64       0.2434
     69  O        150.1270  127.9640  215.6200 O.2    64  GLN64      -0.2733
     70  CB       151.8480  128.3440  218.4190 C.3    64  GLN64       0.0380
     71  CG       151.9610  128.9640  219.8020 C.3    64  GLN64       0.0905
     72  CD       152.6800  128.0620  220.7870 C.2    64  GLN64       0.2608
     73  OE1      152.8060  128.3880  221.9670 O.2    64  GLN64      -0.2717
     74  NE2      153.1560  126.9190  220.3060 N.am   64  GLN64      -0.0878
     75  N        152.2480  128.6090  215.2870 N.am   65  PRO65      -0.2718
     76  CA       152.3230  127.8840  214.0130 C.3    65  PRO65       0.1535
     77  C        152.2100  126.3810  214.2260 C.2    65  PRO65       0.2599
     78  O        152.8110  125.8150  215.1420 O.2    65  PRO65      -0.2715
     79  CB       153.7000  128.2750  213.4620 C.3    65  PRO65       0.0310
     80  CG       154.0140  129.5770  214.1230 C.3    65  PRO65       0.0237
     81  CD       153.4190  129.4790  215.4960 C.3    65  PRO65       0.0939
     82  N        151.4250  125.7370  213.3670 N.am   66  GLY66      -0.1941
     83  CA       151.1950  124.3120  213.4670 C.3    66  GLY66       0.2014
     84  C        150.0350  123.9080  214.3450 C.2    66  GLY66       0.2640
     85  O        149.9380  122.7310  214.7120 O.2    66  GLY66      -0.2714
     86  N        149.1530  124.8400  214.6970 N.am   67  THR67      -0.1936
     87  CA       147.9960  124.5480  215.5300 C.3    67  THR67       0.2028
     88  C        146.7660  124.1540  214.7230 C.2    67  THR67       0.2643
     89  O        145.6990  123.9470  215.3120 O.2    67  THR67      -0.2714
     90  CB       147.6680  125.7530  216.4180 C.3    67  THR67       0.1808
     91  OG1      147.7150  126.9530  215.6350 O.3    67  THR67      -0.2208
     92  CG2      148.6630  125.8560  217.5640 C.3    67  THR67       0.0379
     93  N        146.8860  124.0380  213.4030 N.am   68  GLY68      -0.1939
     94  CA       145.7670  123.6070  212.5890 C.3    68  GLY68       0.2014
     95  C        144.7520  124.6750  212.2540 C.2    68  GLY68       0.2639
     96  O        143.5500  124.3880  212.2370 O.2    68  GLY68      -0.2714
     97  N        145.1980  125.9060  211.9900 N.am   69  LYS69      -0.1963
     98  CA       144.2740  126.9580  211.5770 C.3    69  LYS69       0.1728
     99  C        143.5680  126.5870  210.2800 C.2    69  LYS69       0.2617
    100  O        142.3360  126.6580  210.1820 O.2    69  LYS69      -0.2715
    101  CB       145.0220  128.2820  211.4200 C.3    69  LYS69       0.0311
    102  CG       145.6260  128.8100  212.7040 C.3    69  LYS69       0.0038
    103  CD       144.5560  129.0430  213.7510 C.3    69  LYS69       0.0206
    104  CE       145.1550  129.6210  215.0150 C.3    69  LYS69       0.1093
    105  NZ       146.1760  128.7120  215.5990 N.3    69  LYS69      -0.1314
    106  N        144.3370  126.1910  209.2650 N.am   70  THR70      -0.1937
    107  CA       143.7370  125.7390  208.0170 C.3    70  THR70       0.2028
    108  C        142.9900  124.4220  208.1920 C.2    70  THR70       0.2642
    109  O        142.0650  124.1400  207.4230 O.2    70  THR70      -0.2714
    110  CB       144.8140  125.6020  206.9380 C.3    70  THR70       0.1808
    111  OG1      145.6930  126.7320  206.9960 O.3    70  THR70      -0.2208
    112  CG2      144.1840  125.5360  205.5540 C.3    70  THR70       0.0379
    113  N        143.3590  123.6200  209.1930 N.am   71  ALA71      -0.1977
    114  CA       142.6470  122.3710  209.4440 C.3    71  ALA71       0.1597
    115  C        141.2350  122.6380  209.9510 C.2    71  ALA71       0.2287
    116  O        140.2630  122.0690  209.4410 O.2    71  ALA71      -0.2864
    117  CB       143.4280  121.5130  210.4400 C.3    71  ALA71       0.0319
    118  N        144.2120  133.6910  204.3450 N.3   280  ASP280     -0.1225
    119  CA       145.2850  133.0970  205.1260 C.3   280  ASP280      0.1805
    120  C        146.5470  133.9390  204.9950 C.2   280  ASP280      0.2597
    121  O        146.7860  134.5720  203.9630 O.2   280  ASP280     -0.2718
    122  CB       145.5630  131.6590  204.6740 C.3   280  ASP280      0.1424
    123  CG       146.5890  130.9610  205.5450 C.2   280  ASP280      0.3668
    124  OD1      146.6700  131.2860  206.7480 O.co2 280  ASP280     -0.2456
    125  OD2      147.3150  130.0870  205.0260 O.co2 280  ASP280     -0.2456
    126  N        147.3500  133.9410  206.0620 N.am  281  GLU281     -0.1979
    127  CA       148.5940  134.7090  206.1210 C.3   281  GLU281      0.1602
    128  C        148.3280  136.1970  205.8950 C.2   281  GLU281      0.2287
    129  O        148.9760  136.8540  205.0770 O.2   281  GLU281     -0.2864
    130  CB       149.6230  134.1720  205.1210 C.3   281  GLU281      0.0415
    131  CG       149.8420  132.6680  205.1960 C.3   281  GLU281      0.1163
    132  CD       150.4530  132.2240  206.5120 C.2   281  GLU281      0.3649
    133  OE1      151.1550  133.0360  207.1510 O.co2 281  GLU281     -0.2457
    134  OE2      150.2290  131.0610  206.9080 O.co2 281  GLU281     -0.2457
    135  N        149.6180  134.0060  211.2460 N.3   310  ASN310     -0.1240
    136  CA       150.5910  133.0650  211.7820 C.3   310  ASN310      0.1653
    137  C        151.6950  133.7370  212.5920 C.2   310  ASN310      0.2266
    138  O        152.5510  133.0380  213.1430 O.2   310  ASN310     -0.2867
    139  CB       151.2100  132.2510  210.6410 C.3   310  ASN310      0.1155
    140  CG       151.8520  130.9660  211.1220 C.2   310  ASN310      0.2627
    141  OD1      151.4940  130.4380  212.1740 O.2   310  ASN310     -0.2716
    142  ND2      152.8090  130.4570  210.3540 N.am  310  ASN310     -0.0877
    143  N        149.4020  120.9850  220.2510 N.3   343  TYR343     -0.1241
    144  CA       148.9540  119.6120  220.4410 C.3   343  TYR343      0.1605
    145  C        149.8410  118.8890  221.4470 C.2   343  TYR343      0.2264
    146  O        151.0640  119.0640  221.4520 O.2   343  TYR343     -0.2867
    147  CB       148.9480  118.8690  219.1060 C.3   343  TYR343      0.0534
    148  CG       148.0330  119.4910  218.0760 C.ar  343  TYR343     -0.0201
    149  CD1      146.6870  119.1570  218.0250 C.ar  343  TYR343     -0.0009
    150  CD2      148.5150  120.4160  217.1590 C.ar  343  TYR343     -0.0009
    151  CE1      145.8450  119.7250  217.0890 C.ar  343  TYR343      0.0417
    152  CE2      147.6810  120.9890  216.2180 C.ar  343  TYR343      0.0417
    153  CZ       146.3470  120.6400  216.1880 C.ar  343  TYR343      0.1957
    154  OH       145.5130  121.2080  215.2530 O.3   343  TYR343     -0.2866
    155  N        146.6400  111.3680  216.4670 N.3   351  ILE351     -0.1245
    156  CA       146.5400  111.9170  215.1180 C.3   351  ILE351      0.1561
    157  C        147.4530  111.1630  214.1600 C.2   351  ILE351      0.2260
    158  O        147.1550  111.0580  212.9640 O.2   351  ILE351     -0.2867
    159  CB       146.8400  113.4280  215.1210 C.3   351  ILE351      0.0252
    160  CG1      148.2490  113.7010  215.6470 C.3   351  ILE351      0.0019
    161  CG2      145.8060  114.1730  215.9490 C.3   351  ILE351      0.0019
    162  CD1      148.5700  115.1700  215.7960 C.3   351  ILE351      0.0001
    163  N        145.5880  108.2160  213.1780 N.3   354  ILE354     -0.1231
    164  CA       144.6300  108.5960  212.1460 C.3   354  ILE354      0.1692
    165  C        145.3200  108.7090  210.7920 C.2   354  ILE354      0.2591
    166  O        144.7720  108.2940  209.7640 O.2   354  ILE354     -0.2718
    167  CB       143.9180  109.9050  212.5340 C.3   354  ILE354      0.0266
    168  CG1      143.1250  109.7160  213.8280 C.3   354  ILE354      0.0019
    169  CG2      143.0040  110.3700  211.4120 C.3   354  ILE354      0.0020
    170  CD1      142.3770  110.9540  214.2740 C.3   354  ILE354      0.0001
    171  N        146.5370  109.2590  210.7690 N.am  355  ARG355     -0.1980
    172  CA       147.2700  109.3870  209.5150 C.3   355  ARG355      0.1597
    173  C        147.7250  108.0410  208.9660 C.2   355  ARG355      0.2287
    174  O        148.0110  107.9420  207.7670 O.2   355  ARG355     -0.2864
    175  CB       148.4770  110.3090  209.6970 C.3   355  ARG355      0.0334
    176  CG       148.1120  111.7560  209.9870 C.3   355  ARG355      0.0492
    177  CD       147.1680  112.3090  208.9310 C.3   355  ARG355      0.2205
    178  NE       147.7680  112.3040  207.6010 N.pl3 355  ARG355     -0.0865
    179  CZ       148.4170  113.3350  207.0700 C.cat 355  ARG355      0.5346
    180  NH1      148.9320  113.2410  205.8510 N.pl3 355  ARG355      0.1354
    181  NH2      148.5510  114.4610  207.7570 N.pl3 355  ARG355      0.1354
    182  N        155.6680  118.6980  213.3450 N.3   380  LEU380     -0.1231
    183  CA       154.8510  117.5070  213.1360 C.3   380  LEU380      0.1693
    184  C        154.8200  117.1020  211.6670 C.2   380  LEU380      0.2591
    185  O        154.8260  115.9070  211.3470 O.2   380  LEU380     -0.2718
    186  CB       153.4350  117.7500  213.6550 C.3   380  LEU380      0.0284
    187  CG       152.4300  116.6080  213.4950 C.3   380  LEU380      0.0019
    188  CD1      152.8450  115.4030  214.3250 C.3   380  LEU380      0.0001
    189  CD2      151.0330  117.0720  213.8720 C.3   380  LEU380      0.0001
    190  N        154.7840  118.0830  210.7600 N.am  381  ARG381     -0.1980
    191  CA       154.7400  117.7770  209.3330 C.3   381  ARG381      0.1597
    192  C        155.9640  116.9870  208.8890 C.2   381  ARG381      0.2287
    193  O        155.8750  116.1720  207.9620 O.2   381  ARG381     -0.2864
    194  CB       154.6170  119.0680  208.5240 C.3   381  ARG381      0.0334
    195  CG       153.3350  119.8420  208.7840 C.3   381  ARG381      0.0492
    196  CD       153.3060  121.1410  207.9940 C.3   381  ARG381      0.2205
    197  NE       154.2920  122.1010  208.4830 N.pl3 381  ARG381     -0.0865
    198  CZ       154.0400  123.0220  209.4060 C.cat 381  ARG381      0.5346
    199  NH1      154.9950  123.8560  209.7940 N.pl3 381  ARG381      0.1354
    200  NH2      152.8300  123.1110  209.9430 N.pl3 381  ARG381      0.1354
    201  N        155.0280  113.5270  209.6730 N.3   384  ILE384     -0.1245
    202  CA       154.0070  113.1450  208.7010 C.3   384  ILE384      0.1561
    203  C        154.6500  112.7690  207.3740 C.2   384  ILE384      0.2260
    204  O        154.1470  111.9000  206.6510 O.2   384  ILE384     -0.2867
    205  CB       152.9790  114.2830  208.5370 C.3   384  ILE384      0.0252
    206  CG1      152.3110  114.5950  209.8780 C.3   384  ILE384      0.0019
    207  CG2      151.9250  113.9210  207.5030 C.3   384  ILE384      0.0019
    208  CD1      151.3110  115.7290  209.8130 C.3   384  ILE384      0.0001
@<TRIPOS>BOND
     1     1     2    1
     2     2     5    1
     3     2     3    1
     4     8     9    2
     5     8     7    1
     6     6     3   am
     7     6     7    1
     8   121   120    2
     9    16    17    1
    10    10     7    1
    11    10    11    1
    12   118   119    1
    13     3     4    2
    14    13    11   ar
    15    13    15   ar
    16   122   119    1
    17   122   123    1
    18    17    20    1
    19    17    18    1
    20    29    28    2
    21    11    12   ar
    22   120   119    1
    23   120   126   am
    24   125   123   ar
    25   129   128    2
    26   130   131    1
    27   130   127    1
    28   131   132    1
    29    15    14   ar
    30   123   124   ar
    31   112   110    1
    32    20    21    1
    33    18    26   am
    34    18    19    2
    35    28    27    1
    36    26    27    1
    37   180   179    1
    38   128   127    1
    39   126   127    1
    40    12    14   ar
    41   132   134   ar
    42   132   133   ar
    43   204   203    2
    44    27    30    1
    45    21    23   ar
    46    21    22   ar
    47    23    25   ar
    48   110   111    1
    49   110   107    1
    50    31    30    1
    51    31    33    1
    52   179   178    2
    53   179   181    1
    54   203   202    1
    55   109   108    2
    56   207   205    1
    57   178   177    1
    58    30    32    1
    59   174   173    2
    60    22    24   ar
    61   193   192    2
    62    25    24   ar
    63   196   197    1
    64   196   195    1
    65   107   108    1
    66   107   106    1
    67   108   113   am
    68   197   198    2
    69   194   195    1
    70   194   191    1
    71   205   202    1
    72   205   206    1
    73   202   201    1
    74   192   191    1
    75   177   176    1
    76   173   172    1
    77   113   114    1
    78   106    99   am
    79   191   190    1
    80   198   199    1
    81   198   200    1
    82   116   115    2
    83   114   115    1
    84   114   117    1
    85   172   175    1
    86   172   171    1
    87   175   176    1
    88   166   165    2
    89   208   206    1
    90   100    99    2
    91    99    98    1
    92   142   140   am
    93   139   140    1
    94   139   136    1
    95   190   184   am
    96   171   165   am
    97   165   164    1
    98   140   141    2
    99   135   136    1
   100   185   184    2
   101   169   167    1
   102   101    98    1
   103   101   102    1
   104    98    97    1
   105    44    43    1
   106    44    45    1
   107   184   183    1
   108    35    34    1
   109    35    36    1
   110   136   137    1
   111    37    36    2
   112    97    95   am
   113    43    42    1
   114   164   167    1
   115   164   163    1
   116    96    95    2
   117    95    94    1
   118    36    38   am
   119   167   168    1
   120    94    93    1
   121   137   138    2
   122   102   103    1
   123   158   157    2
   124   183   182    1
   125   183   186    1
   126    38    39    1
   127    82    83    1
   128    82    77   am
   129    93    88   am
   130    79    76    1
   131    79    80    1
   132    83    84    1
   133   187   186    1
   134   187   189    1
   135   187   188    1
   136    42    39    1
   137   103   104    1
   138   168   170    1
   139    39    40    1
   140    76    77    1
   141    76    75    1
   142    80    81    1
   143   157   156    1
   144    77    78    2
   145    84    86   am
   146    84    85    2
   147    86    87    1
   148    88    89    2
   149    88    87    1
   150   104   105    1
   151   156   159    1
   152   156   155    1
   153   159   160    1
   154   159   161    1
   155   154   153    1
   156    75    81    1
   157    75    68   am
   158    40    41    2
   159    40    46   am
   160    87    90    1
   161    69    68    2
   162    91    90    1
   163   160   162    1
   164    68    67    1
   165    46    47    1
   166   153   152   ar
   167   153   151   ar
   168   152   150   ar
   169    90    92    1
   170   151   149   ar
   171   150   148   ar
   172    52    50    1
   173    67    66    1
   174    67    70    1
   175    47    50    1
   176    47    48    1
   177    49    48    2
   178    50    51    1
   179   149   148   ar
   180   148   147    1
   181    62    61    1
   182    62    63    1
   183    48    53   am
   184    70    71    1
   185    61    58    1
   186    65    63   am
   187    56    55    2
   188    63    64    2
   189   147   144    1
   190    53    54    1
   191    60    59    2
   192    55    54    1
   193    55    57   am
   194    71    72    1
   195    58    57    1
   196    58    59    1
   197   143   144    1
   198    74    72   am
   199   144   145    1
   200    72    73    2
   201   145   146    2
