@<TRIPOS>MOLECULE
tmp/6htsE00.pdb
 178 171 0 0 0
SMALL
GASTEIGER

@<TRIPOS>ATOM
      1  N        125.5750  146.6790  210.3990 N.3     6  SER6       -0.1202
      2  CA       126.0850  147.2560  211.6400 C.3     6  SER6        0.2020
      3  C        125.5680  148.6750  211.8550 C.2     6  SER6        0.2618
      4  O        125.2630  149.0660  212.9870 O.2     6  SER6       -0.2717
      5  CB       127.6130  147.2370  211.6350 C.3     6  SER6        0.2103
      6  OG       128.1350  147.7970  212.8280 O.3     6  SER6       -0.2182
      7  N        125.4670  149.4590  210.7850 N.am    7  HIS7       -0.1975
      8  CA       124.9640  150.8240  210.8700 C.3     7  HIS7        0.1656
      9  C        123.4750  150.9320  210.5660 C.2     7  HIS7        0.2291
     10  O        122.9160  152.0310  210.6650 O.2     7  HIS7       -0.2864
     11  CB       125.7500  151.7350  209.9210 C.3     7  HIS7        0.0771
     12  CG       127.1750  151.9470  210.3270 C.ar    7  HIS7        0.0820
     13  ND1      127.6060  153.0940  210.9580 N.ar    7  HIS7       -0.2267
     14  CD2      128.2690  151.1600  210.1910 C.ar    7  HIS7        0.1154
     15  CE1      128.9030  153.0050  211.1920 C.ar    7  HIS7        0.1986
     16  NE2      129.3290  151.8410  210.7370 N.ar    7  HIS7       -0.2212
     17  N        120.9670  150.3920  212.1870 N.3     9  HIS9       -0.1241
     18  CA       120.1630  150.8930  213.2920 C.3     9  HIS9        0.1621
     19  C        120.2180  152.4090  213.4220 C.2     9  HIS9        0.2264
     20  O        119.5810  152.9610  214.3260 O.2     9  HIS9       -0.2867
     21  CB       120.6040  150.2460  214.6100 C.3     9  HIS9        0.0745
     22  CG       121.9790  150.6420  215.0510 C.ar    9  HIS9        0.0817
     23  ND1      122.2450  151.8440  215.6720 N.ar    9  HIS9       -0.2268
     24  CD2      123.1640  149.9930  214.9650 C.ar    9  HIS9        0.1154
     25  CE1      123.5350  151.9180  215.9460 C.ar    9  HIS9        0.1986
     26  NE2      124.1150  150.8080  215.5270 N.ar    9  HIS9       -0.2212
     27  N        118.1070  156.0880  217.4470 N.3    27  GLY27      -0.1210
     28  CA       119.0980  155.1250  217.8830 C.3    27  GLY27       0.1956
     29  C        120.4750  155.6950  218.1300 C.2    27  GLY27       0.2612
     30  O        121.4600  154.9540  218.0720 O.2    27  GLY27      -0.2717
     31  N        120.5770  156.9930  218.4040 N.am   28  LEU28      -0.1965
     32  CA       121.8500  157.6500  218.6670 C.3    28  LEU28       0.1728
     33  C        121.7940  158.3270  220.0280 C.2    28  LEU28       0.2616
     34  O        120.8750  159.1070  220.3010 O.2    28  LEU28      -0.2715
     35  CB       122.1790  158.6760  217.5790 C.3    28  LEU28       0.0311
     36  CG       122.4210  158.1240  216.1740 C.3    28  LEU28       0.0022
     37  CD1      122.7360  159.2510  215.2050 C.3    28  LEU28       0.0001
     38  CD2      123.5420  157.0970  216.1890 C.3    28  LEU28       0.0001
     39  N        122.7740  158.0280  220.8760 N.am   29  VAL29      -0.1977
     40  CA       122.8650  158.6100  222.2080 C.3    29  VAL29       0.1596
     41  C        124.2100  159.3080  222.3490 C.2    29  VAL29       0.2287
     42  O        125.2150  158.8920  221.7630 O.2    29  VAL29      -0.2864
     43  CB       122.6750  157.5500  223.3160 C.3    29  VAL29       0.0276
     44  CG1      121.2770  156.9570  223.2420 C.3    29  VAL29       0.0022
     45  CG2      123.7270  156.4580  223.1980 C.3    29  VAL29       0.0022
     46  N        127.0360  162.5090  222.1660 N.3    31  GLN31      -0.1245
     47  CA       127.6270  163.2800  221.0700 C.3    31  GLN31       0.1566
     48  C        126.7040  164.4180  220.6350 C.2    31  GLN31       0.2260
     49  O        126.4150  164.6000  219.4490 O.2    31  GLN31      -0.2867
     50  CB       127.9810  162.3760  219.8870 C.3    31  GLN31       0.0367
     51  CG       129.4700  162.2870  219.5960 C.3    31  GLN31       0.0905
     52  CD       130.2510  161.6340  220.7210 C.2    31  GLN31       0.2608
     53  OE1      130.6480  162.2920  221.6830 O.2    31  GLN31      -0.2717
     54  NE2      130.4810  160.3320  220.6020 N.am   31  GLN31      -0.0878
     55  N        138.7320  155.6470  217.7370 N.3    61  PRO61      -0.2102
     56  CA       137.9640  154.6390  216.9970 C.3    61  PRO61       0.1504
     57  C        136.7540  154.1700  217.7930 C.2    61  PRO61       0.2576
     58  O        136.8370  153.9170  218.9970 O.2    61  PRO61      -0.2718
     59  CB       138.9740  153.5040  216.7890 C.3    61  PRO61       0.0282
     60  CG       140.3170  154.1440  216.9590 C.3    61  PRO61       0.0208
     61  CD       140.1190  155.2190  217.9790 C.3    61  PRO61       0.0893
     62  N        135.6230  154.0550  217.1040 N.am   62  GLY62      -0.1943
     63  CA       134.3990  153.5980  217.7290 C.3    62  GLY62       0.2014
     64  C        133.5410  154.6810  218.3390 C.2    62  GLY62       0.2640
     65  O        132.6930  154.3730  219.1850 O.2    62  GLY62      -0.2714
     66  N        133.7290  155.9380  217.9430 N.am   63  THR63      -0.1936
     67  CA       132.9440  157.0380  218.4870 C.3    63  THR63       0.2028
     68  C        131.6770  157.3250  217.6930 C.2    63  THR63       0.2643
     69  O        130.8500  158.1220  218.1470 O.2    63  THR63      -0.2714
     70  CB       133.7920  158.3120  218.5630 C.3    63  THR63       0.1808
     71  OG1      134.4500  158.5300  217.3080 O.3    63  THR63      -0.2208
     72  CG2      134.8260  158.1960  219.6700 C.3    63  THR63       0.0379
     73  N        131.5030  156.7050  216.5290 N.am   64  GLY64      -0.1939
     74  CA       130.2710  156.8460  215.7830 C.3    64  GLY64       0.2014
     75  C        130.2340  157.9630  214.7670 C.2    64  GLY64       0.2639
     76  O        129.1450  158.3300  214.3100 O.2    64  GLY64      -0.2714
     77  N        131.3890  158.5220  214.3940 N.am   65  LYS65      -0.1963
     78  CA       131.3950  159.5630  213.3710 C.3    65  LYS65       0.1728
     79  C        130.9300  159.0220  212.0240 C.2    65  LYS65       0.2617
     80  O        130.3300  159.7610  211.2340 O.2    65  LYS65      -0.2715
     81  CB       132.7880  160.1840  213.2510 C.3    65  LYS65       0.0311
     82  CG       133.8810  159.2180  212.8240 C.3    65  LYS65       0.0038
     83  CD       135.2300  159.9140  212.7360 C.3    65  LYS65       0.0206
     84  CE       136.3240  158.9470  212.3140 C.3    65  LYS65       0.1093
     85  NZ       136.4550  157.8070  213.2640 N.3    65  LYS65      -0.1314
     86  N        131.1890  157.7420  211.7500 N.am   66  THR66      -0.1937
     87  CA       130.6630  157.1260  210.5370 C.3    66  THR66       0.2028
     88  C        129.1510  156.9620  210.6230 C.2    66  THR66       0.2642
     89  O        128.4430  157.1350  209.6230 O.2    66  THR66      -0.2714
     90  CB       131.3400  155.7770  210.2950 C.3    66  THR66       0.1808
     91  OG1      132.7630  155.9510  210.2810 O.3    66  THR66      -0.2208
     92  CG2      130.8980  155.1880  208.9640 C.3    66  THR66       0.0379
     93  N        128.6370  156.6360  211.8120 N.am   67  ALA67      -0.1963
     94  CA       127.1930  156.5390  211.9900 C.3    67  ALA67       0.1728
     95  C        126.5210  157.8960  211.8420 C.2    67  ALA67       0.2616
     96  O        125.3790  157.9760  211.3740 O.2    67  ALA67      -0.2715
     97  CB       126.8700  155.9300  213.3550 C.3    67  ALA67       0.0334
     98  N        127.2070  158.9720  212.2340 N.am   68  LEU68      -0.1977
     99  CA       126.6570  160.3090  212.0440 C.3    68  LEU68       0.1596
    100  C        126.7140  160.7320  210.5810 C.2    68  LEU68       0.2287
    101  O        125.7480  161.3010  210.0590 O.2    68  LEU68      -0.2864
    102  CB       127.4050  161.3140  212.9190 C.3    68  LEU68       0.0297
    103  CG       127.3630  161.0670  214.4280 C.3    68  LEU68       0.0022
    104  CD1      128.2220  162.0850  215.1580 C.3    68  LEU68       0.0001
    105  CD2      125.9330  161.1020  214.9410 C.3    68  LEU68       0.0001
    106  N        140.3680  158.5530  211.9190 N.3   321  ASN321     -0.1240
    107  CA       140.4680  157.8670  213.1990 C.3   321  ASN321      0.1653
    108  C        141.8830  157.8650  213.7650 C.2   321  ASN321      0.2266
    109  O        142.1080  157.2850  214.8310 O.2   321  ASN321     -0.2867
    110  CB       139.9610  156.4260  213.0680 C.3   321  ASN321      0.1155
    111  CG       140.5690  155.6960  211.8840 C.2   321  ASN321      0.2627
    112  OD1      141.5560  156.1450  211.3010 O.2   321  ASN321     -0.2716
    113  ND2      139.9800  154.5610  211.5240 N.am  321  ASN321     -0.0877
    114  N        132.5880  157.0860  224.5840 N.3   355  TYR355     -0.1241
    115  CA       131.3840  156.9740  225.3910 C.3   355  TYR355      0.1605
    116  C        131.7170  156.5420  226.8150 C.2   355  TYR355      0.2264
    117  O        132.7390  155.9010  227.0730 O.2   355  TYR355     -0.2867
    118  CB       130.4090  155.9760  224.7630 C.3   355  TYR355      0.0534
    119  CG       130.0550  156.2810  223.3250 C.ar  355  TYR355     -0.0201
    120  CD1      129.0540  157.1930  223.0150 C.ar  355  TYR355     -0.0009
    121  CD2      130.7170  155.6540  222.2780 C.ar  355  TYR355     -0.0009
    122  CE1      128.7260  157.4740  221.7030 C.ar  355  TYR355      0.0417
    123  CE2      130.3950  155.9280  220.9630 C.ar  355  TYR355      0.0417
    124  CZ       129.3990  156.8390  220.6810 C.ar  355  TYR355      0.1957
    125  OH       129.0740  157.1160  219.3730 O.3   355  TYR355     -0.2866
    126  N        123.9270  151.7010  224.3180 N.3   363  ILE363     -0.1245
    127  CA       124.1730  151.2930  222.9370 C.3   363  ILE363      0.1561
    128  C        124.0550  149.7800  222.8010 C.2   363  ILE363      0.2260
    129  O        123.5170  149.2690  221.8100 O.2   363  ILE363     -0.2867
    130  CB       125.5470  151.8040  222.4640 C.3   363  ILE363      0.0252
    131  CG1      125.5420  153.3300  222.3600 C.3   363  ILE363      0.0019
    132  CG2      125.9280  151.1830  221.1280 C.3   363  ILE363      0.0019
    133  CD1      126.8890  153.9210  222.0090 C.3   363  ILE363      0.0001
    134  N        120.4770  149.0150  222.6130 N.3   366  ILE366     -0.1231
    135  CA       119.9100  149.3860  221.3180 C.3   366  ILE366      0.1692
    136  C        120.2500  148.3350  220.2680 C.2   366  ILE366      0.2591
    137  O        119.3980  147.9340  219.4660 O.2   366  ILE366     -0.2718
    138  CB       120.3980  150.7850  220.8980 C.3   366  ILE366      0.0266
    139  CG1      119.8330  151.8500  221.8390 C.3   366  ILE366      0.0019
    140  CG2      120.0030  151.0810  219.4590 C.3   366  ILE366      0.0020
    141  CD1      120.2670  153.2590  221.4990 C.3   366  ILE366      0.0001
    142  N        121.5020  147.8710  220.2580 N.am  367  ARG367     -0.1980
    143  CA       121.8930  146.8320  219.3100 C.3   367  ARG367      0.1597
    144  C        121.1840  145.5170  219.6120 C.2   367  ARG367      0.2287
    145  O        120.8340  144.7680  218.6920 O.2   367  ARG367     -0.2864
    146  CB       123.4110  146.6490  219.3300 C.3   367  ARG367      0.0334
    147  CG       123.9210  145.5190  218.4450 C.3   367  ARG367      0.0492
    148  CD       123.4720  145.6920  217.0020 C.3   367  ARG367      0.2205
    149  NE       124.0910  146.8490  216.3630 N.pl3 367  ARG367     -0.0865
    150  CZ       125.1930  146.7920  215.6230 C.cat 367  ARG367      0.5346
    151  NH1      125.8010  145.6300  215.4250 N.pl3 367  ARG367      0.1354
    152  NH2      125.6880  147.8950  215.0780 N.pl3 367  ARG367      0.1354
    153  N        133.7270  149.0580  223.3870 N.3   392  LEU392     -0.1231
    154  CA       132.3070  148.8970  223.0940 C.3   392  LEU392      0.1693
    155  C        132.0860  147.9110  221.9540 C.2   392  LEU392      0.2591
    156  O        131.1380  147.1170  221.9860 O.2   392  LEU392     -0.2718
    157  CB       131.6890  150.2550  222.7580 C.3   392  LEU392      0.0284
    158  CG       130.3230  150.2680  222.0670 C.3   392  LEU392      0.0019
    159  CD1      129.2480  149.6570  222.9540 C.3   392  LEU392      0.0001
    160  CD2      129.9470  151.6850  221.6610 C.3   392  LEU392      0.0001
    161  N        132.9590  147.9420  220.9420 N.am  393  ARG393     -0.1980
    162  CA       132.7740  147.0930  219.7690 C.3   393  ARG393      0.1597
    163  C        132.7830  145.6170  220.1430 C.2   393  ARG393      0.2287
    164  O        131.9380  144.8460  219.6740 O.2   393  ARG393     -0.2864
    165  CB       133.8610  147.3840  218.7350 C.3   393  ARG393      0.0334
    166  CG       133.5270  146.8940  217.3370 C.3   393  ARG393      0.0492
    167  CD       132.6320  147.8870  216.6190 C.3   393  ARG393      0.2205
    168  NE       133.3140  149.1610  216.4180 N.pl3 393  ARG393     -0.0865
    169  CZ       134.0450  149.4530  215.3480 C.cat 393  ARG393      0.5346
    170  NH1      134.6360  150.6350  215.2470 N.pl3 393  ARG393      0.1354
    171  NH2      134.1800  148.5630  214.3750 N.pl3 393  ARG393      0.1354
    172  N        129.6840  144.5920  221.7720 N.3   396  VAL396     -0.1245
    173  CA       128.6210  144.4640  220.7800 C.3   396  VAL396      0.1561
    174  C        128.7410  143.1360  220.0410 C.2   396  VAL396      0.2260
    175  O        127.7370  142.4650  219.7740 O.2   396  VAL396     -0.2867
    176  CB       128.6440  145.6610  219.8120 C.3   396  VAL396      0.0252
    177  CG1      127.6880  145.4290  218.6520 C.3   396  VAL396      0.0019
    178  CG2      128.2810  146.9410  220.5470 C.3   396  VAL396      0.0019
@<TRIPOS>BOND
     1    92    90    1
     2    89    88    2
     3    11    12    1
     4    11     8    1
     5   101   100    2
     6    14    12   ar
     7    14    16   ar
     8    91    90    1
     9    90    87    1
    10    12    13   ar
    11     1     2    1
    12    87    88    1
    13    87    86    1
    14     9    10    2
    15     9     8    1
    16   100    99    1
    17    88    93   am
    18    16    15   ar
    19     7     8    1
    20     7     3   am
    21    13    15   ar
    22    80    79    2
    23   112   111    2
    24    96    95    2
    25   113   111   am
    26     5     2    1
    27     5     6    1
    28     2     3    1
    29    86    79   am
    30    93    94    1
    31    95    94    1
    32    95    98   am
    33     3     4    2
    34   111   110    1
    35   106   107    1
    36    94    97    1
    37    79    78    1
    38    99    98    1
    39    99   102    1
    40    17    18    1
    41    84    83    1
    42    84    85    1
    43    83    82    1
    44    82    81    1
    45   102   103    1
    46   110   107    1
    47   107   108    1
    48    81    78    1
    49    18    19    1
    50    18    21    1
    51    78    77    1
    52    19    20    2
    53   108   109    2
    54    76    75    2
    55   171   169    1
    56    77    75   am
    57   103   105    1
    58   103   104    1
    59    21    22    1
    60    75    74    1
    61    24    22   ar
    62    24    26   ar
    63    22    23   ar
    64   152   150    1
    65    37    36    1
    66   170   169    1
    67   169   168    2
    68   151   150    1
    69    26    25   ar
    70   150   149    2
    71    23    25   ar
    72    74    73    1
    73    36    38    1
    74    36    35    1
    75   149   148    1
    76   168   167    1
    77    73    68   am
    78   167   166    1
    79    59    60    1
    80    59    56    1
    81    60    61    1
    82    56    55    1
    83    56    57    1
    84   148   147    1
    85    62    63    1
    86    62    57   am
    87    71    70    1
    88   166   165    1
    89    27    28    1
    90    35    32    1
    91    68    69    2
    92    68    67    1
    93    63    64    1
    94    55    61    1
    95    57    58    2
    96    28    29    1
    97    66    64   am
    98    66    67    1
    99    30    29    2
   100    29    31   am
   101    64    65    2
   102    31    32    1
   103   147   146    1
   104    67    70    1
   105    70    72    1
   106   177   176    1
   107    32    33    1
   108   145   144    2
   109   165   162    1
   110   143   146    1
   111   143   144    1
   112   143   142    1
   113   125   124    1
   114    49    48    2
   115   140   138    1
   116   137   136    2
   117    51    50    1
   118    51    52    1
   119   164   163    2
   120   162   163    1
   121   162   161    1
   122   175   174    2
   123   176   178    1
   124   176   173    1
   125    50    47    1
   126    33    34    2
   127    33    39   am
   128   174   173    1
   129   142   136   am
   130   136   135    1
   131    54    52   am
   132    48    47    1
   133   124   123   ar
   134   124   122   ar
   135    52    53    2
   136   173   172    1
   137    39    40    1
   138   138   135    1
   139   138   139    1
   140   161   155   am
   141   123   121   ar
   142    47    46    1
   143   132   130    1
   144   135   134    1
   145   141   139    1
   146   160   158    1
   147   122   120   ar
   148    42    41    2
   149   129   128    2
   150   155   156    2
   151   155   154    1
   152   133   131    1
   153   158   157    1
   154   158   159    1
   155    40    41    1
   156    40    43    1
   157   121   119   ar
   158   131   130    1
   159   130   127    1
   160   157   154    1
   161   128   127    1
   162   127   126    1
   163   120   119   ar
   164   154   153    1
   165    45    43    1
   166    44    43    1
   167   119   118    1
   168   114   115    1
   169   118   115    1
   170   115   116    1
   171   116   117    2
