@<TRIPOS>MOLECULE
tmp/6httD00.pdb
 117 112 0 0 0
SMALL
GASTEIGER

@<TRIPOS>ATOM
      1  N         47.5740   38.9910   25.7620 N.3    19  LYS19      -0.1245
      2  CA        48.5400   39.7400   24.9580 C.3    19  LYS19       0.1561
      3  C         49.1470   38.9010   23.8400 C.2    19  LYS19       0.2260
      4  O         49.3170   39.3910   22.7190 O.2    19  LYS19      -0.2867
      5  CB        49.6630   40.2860   25.8370 C.3    19  LYS19       0.0271
      6  CG        50.5110   41.3240   25.1040 C.3    19  LYS19       0.0035
      7  CD        51.5320   41.9520   26.0060 C.3    19  LYS19       0.0206
      8  CE        51.9510   43.3230   25.4880 C.3    19  LYS19       0.1093
      9  NZ        52.8060   44.0330   26.4870 N.3    19  LYS19      -0.1314
     10  N         49.7550   47.2180   32.6030 N.3    99  ASP99      -0.1239
     11  CA        50.3020   46.4350   31.5040 C.3    99  ASP99       0.1674
     12  C         50.5220   44.9750   31.8650 C.2    99  ASP99       0.2266
     13  O         50.7610   44.1660   30.9610 O.2    99  ASP99      -0.2867
     14  CB        51.6230   47.0380   31.0500 C.3    99  ASP99       0.1410
     15  CG        52.6050   47.1690   32.1900 C.2    99  ASP99       0.3668
     16  OD1       52.1980   47.6460   33.2750 O.co2  99  ASP99      -0.2456
     17  OD2       53.7730   46.7710   32.0110 O.co2  99  ASP99      -0.2456
     18  N         61.9750   38.4290   29.8500 N.3   140  HIS140     -0.1226
     19  CA        63.1820   38.9750   30.4570 C.3   140  HIS140      0.1752
     20  C         62.9410   40.1490   31.4030 C.2   140  HIS140      0.2596
     21  O         63.8820   40.5490   32.0990 O.2   140  HIS140     -0.2718
     22  CB        64.1860   39.3880   29.3640 C.3   140  HIS140      0.0759
     23  CG        63.6480   40.3520   28.3480 C.ar  140  HIS140      0.0818
     24  ND1       64.4480   40.9190   27.3780 N.ar  140  HIS140     -0.2268
     25  CD2       62.3990   40.8360   28.1340 C.ar  140  HIS140      0.1154
     26  CE1       63.7230   41.7170   26.6170 C.ar  140  HIS140      0.1986
     27  NE2       62.4740   41.6780   27.0450 N.ar  140  HIS140     -0.2212
     28  N         61.7160   40.6900   31.4840 N.am  141  HIS141     -0.1975
     29  CA        61.4800   41.8920   32.2900 C.3   141  HIS141      0.1656
     30  C         61.0710   41.6170   33.7340 C.2   141  HIS141      0.2291
     31  O         61.1250   42.5390   34.5580 O.2   141  HIS141     -0.2864
     32  CB        60.3860   42.7680   31.6590 C.3   141  HIS141      0.0771
     33  CG        60.7540   43.3480   30.3270 C.ar  141  HIS141      0.0820
     34  ND1       61.9040   44.0810   30.1290 N.ar  141  HIS141     -0.2267
     35  CD2       60.1030   43.3400   29.1380 C.ar  141  HIS141      0.1154
     36  CE1       61.9600   44.4770   28.8690 C.ar  141  HIS141      0.1986
     37  NE2       60.8760   44.0490   28.2490 N.ar  141  HIS141     -0.2212
     38  N         56.2090   44.6070   31.8660 N.3   149  GLY149     -0.1225
     39  CA        56.1950   44.3510   30.4180 C.3   149  GLY149      0.1811
     40  C         55.5830   43.0280   30.0140 C.2   149  GLY149      0.2280
     41  O         56.1250   42.3140   29.1510 O.2   149  GLY149     -0.2866
     42  N         55.6870   40.3920   31.5110 N.3   151  CYS151     -0.1235
     43  CA        56.4860   39.3070   32.0540 C.3   151  CYS151      0.1677
     44  C         56.1380   39.1750   33.5240 C.2   151  CYS151      0.2270
     45  O         56.2680   40.1400   34.2800 O.2   151  CYS151     -0.2867
     46  CB        57.9830   39.5690   31.9040 C.3   151  CYS151      0.0956
     47  SG        58.4820   39.8200   30.1940 S.3   151  CYS151     -0.0801
     48  N         66.2340   40.8960   21.8870 N.3   176  ASP176     -0.1239
     49  CA        64.9490   41.5770   21.8710 C.3   176  ASP176      0.1674
     50  C         65.1250   43.0690   21.5630 C.2   176  ASP176      0.2266
     51  O         66.1650   43.6630   21.8240 O.2   176  ASP176     -0.2867
     52  CB        64.2840   41.4060   23.2400 C.3   176  ASP176      0.1410
     53  CG        62.7920   41.6720   23.2270 C.2   176  ASP176      0.3668
     54  OD1       62.3790   42.8480   23.2980 O.co2 176  ASP176     -0.2456
     55  OD2       62.0310   40.6910   23.2380 O.co2 176  ASP176     -0.2456
     56  N         63.7950   45.3020   23.2200 N.3   178  HIS178     -0.1241
     57  CA        63.8350   45.9620   24.5150 C.3   178  HIS178      0.1621
     58  C         65.0260   45.4920   25.3350 C.2   178  HIS178      0.2264
     59  O         65.5060   44.3680   25.1840 O.2   178  HIS178     -0.2867
     60  CB        62.5470   45.7030   25.2920 C.3   178  HIS178      0.0745
     61  CG        61.3280   46.2000   24.5880 C.ar  178  HIS178      0.0817
     62  ND1       60.6200   45.4280   23.6900 N.ar  178  HIS178     -0.2268
     63  CD2       60.7310   47.4140   24.5990 C.ar  178  HIS178      0.1154
     64  CE1       59.6130   46.1380   23.2090 C.ar  178  HIS178      0.1986
     65  NE2       59.6600   47.3480   23.7420 N.ar  178  HIS178     -0.2212
     66  N         60.2860   52.0230   26.6610 N.3   206  PHE206     -0.1241
     67  CA        60.3290   50.9800   27.6830 C.3   206  PHE206      0.1605
     68  C         61.5810   50.1240   27.5860 C.2   206  PHE206      0.2264
     69  O         61.9940   49.8080   26.4800 O.2   206  PHE206     -0.2867
     70  CB        59.1100   50.0860   27.5220 C.3   206  PHE206      0.0534
     71  CG        58.9280   49.0910   28.6300 C.ar  206  PHE206     -0.0203
     72  CD1       58.3210   49.4640   29.8210 C.ar  206  PHE206     -0.0042
     73  CD2       59.3420   47.7780   28.4750 C.ar  206  PHE206     -0.0042
     74  CE1       58.1300   48.5340   30.8450 C.ar  206  PHE206     -0.0003
     75  CE2       59.1630   46.8460   29.5010 C.ar  206  PHE206     -0.0003
     76  CZ        58.5500   47.2230   30.6780 C.ar  206  PHE206     -0.0000
     77  N         60.6730   41.3100   18.1120 N.3   269  ASP269     -0.1239
     78  CA        60.1350   42.6470   17.9120 C.3   269  ASP269      0.1674
     79  C         61.1130   43.6040   17.2370 C.2   269  ASP269      0.2266
     80  O         60.7670   44.7750   17.0710 O.2   269  ASP269     -0.2867
     81  CB        59.6010   43.2440   19.2410 C.3   269  ASP269      0.1410
     82  CG        60.4230   42.8910   20.4600 C.2   269  ASP269      0.3668
     83  OD1       61.5400   42.3600   20.3420 O.co2 269  ASP269     -0.2456
     84  OD2       59.9330   43.2000   21.5740 O.co2 269  ASP269     -0.2456
     85  N         54.7460   45.6490   15.0190 N.3   275  PRO275     -0.2102
     86  CA        54.0220   46.9250   15.1980 C.3   275  PRO275      0.1504
     87  C         54.8080   47.9880   15.9620 C.2   275  PRO275      0.2575
     88  O         54.4450   49.1720   15.8840 O.2   275  PRO275     -0.2718
     89  CB        52.7410   46.5200   15.9490 C.3   275  PRO275      0.0282
     90  CG        53.0570   45.1800   16.5860 C.3   275  PRO275      0.0208
     91  CD        54.0150   44.5080   15.6090 C.3   275  PRO275      0.0893
     92  N         55.8710   47.6230   16.6920 N.am  276  HIS276     -0.1976
     93  CA        56.7390   48.6540   17.2650 C.3   276  HIS276      0.1656
     94  C         57.3190   49.5410   16.1740 C.2   276  HIS276      0.2291
     95  O         57.4960   50.7530   16.3730 O.2   276  HIS276     -0.2864
     96  CB        57.8770   48.0270   18.0790 C.3   276  HIS276      0.0771
     97  CG        57.4770   47.6080   19.4620 C.ar  276  HIS276      0.0820
     98  ND1       57.4240   48.4900   20.5200 N.ar  276  HIS276     -0.2267
     99  CD2       57.1120   46.4010   19.9610 C.ar  276  HIS276      0.1154
    100  CE1       57.0420   47.8490   21.6110 C.ar  276  HIS276      0.1986
    101  NE2       56.8410   46.5810   21.3000 N.ar  276  HIS276     -0.2212
    102  N         59.6070   38.9400   23.0160 N.3   311  GLY311     -0.1225
    103  CA        58.6740   39.7980   22.3300 C.3   311  GLY311      0.1811
    104  C         58.4600   39.3500   20.8940 C.2   311  GLY311      0.2280
    105  O         59.1210   38.4560   20.3730 O.2   311  GLY311     -0.2866
    106  N         55.2110   40.9240   18.1730 N.3   313  TYR313     -0.1241
    107  CA        53.7890   41.2210   18.2170 C.3   313  TYR313      0.1605
    108  C         53.1350   41.1440   16.8450 C.2   313  TYR313      0.2264
    109  O         51.9250   41.3680   16.7260 O.2   313  TYR313     -0.2867
    110  CB        53.6010   42.5850   18.9040 C.3   313  TYR313      0.0534
    111  CG        54.3010   42.5160   20.2450 C.ar  313  TYR313     -0.0201
    112  CD1       53.6770   41.9200   21.3370 C.ar  313  TYR313     -0.0009
    113  CD2       55.6280   42.9300   20.3900 C.ar  313  TYR313     -0.0009
    114  CE1       54.3330   41.7840   22.5570 C.ar  313  TYR313      0.0417
    115  CE2       56.2940   42.7920   21.6130 C.ar  313  TYR313      0.0417
    116  CZ        55.6350   42.2210   22.6880 C.ar  313  TYR313      0.1957
    117  OH        56.2820   42.0840   23.9020 O.3   313  TYR313     -0.2866
@<TRIPOS>BOND
     1    85    86    1
     2    85    91    1
     3    86    89    1
     4    86    87    1
     5    91    90    1
     6    88    87    2
     7    89    90    1
     8    87    92   am
     9    94    95    2
    10    94    93    1
    11    92    93    1
    12   109   108    2
    13   108   107    1
    14    80    79    2
    15    79    78    1
    16    93    96    1
    17    78    77    1
    18    78    81    1
    19    96    97    1
    20   106   107    1
    21   107   110    1
    22   110   111    1
    23    81    82    1
    24    97    99   ar
    25    97    98   ar
    26    99   101   ar
    27   111   113   ar
    28   111   112   ar
    29    83    82   ar
    30   105   104    2
    31   113   115   ar
    32    82    84   ar
    33    98   100   ar
    34   104   103    1
    35   101   100   ar
    36   112   114   ar
    37    50    51    2
    38    50    49    1
    39   115   116   ar
    40    49    48    1
    41    49    52    1
    42   103   102    1
    43   114   116   ar
    44   116   117    1
    45     4     3    2
    46    64    62   ar
    47    64    65   ar
    48    56    57    1
    49    53    55   ar
    50    53    52    1
    51    53    54   ar
    52    62    61   ar
    53    65    63   ar
    54     3     2    1
    55    57    60    1
    56    57    58    1
    57    61    63   ar
    58    61    60    1
    59     2     1    1
    60     2     5    1
    61     6     5    1
    62     6     7    1
    63    59    58    2
    64     8     7    1
    65     8     9    1
    66    69    68    2
    67    26    27   ar
    68    26    24   ar
    69    66    67    1
    70    27    25   ar
    71    24    23   ar
    72    70    67    1
    73    70    71    1
    74    68    67    1
    75    25    23   ar
    76    37    36   ar
    77    37    35   ar
    78    23    22    1
    79    73    71   ar
    80    73    75   ar
    81    71    72   ar
    82    36    34   ar
    83    35    33   ar
    84    41    40    2
    85    22    19    1
    86    75    76   ar
    87    72    74   ar
    88    18    19    1
    89    40    39    1
    90    34    33   ar
    91    47    46    1
    92    33    32    1
    93    39    38    1
    94    19    20    1
    95    76    74   ar
    96    13    12    2
    97    14    11    1
    98    14    15    1
    99    20    28   am
   100    20    21    2
   101    28    29    1
   102    11    12    1
   103    11    10    1
   104    42    43    1
   105    32    29    1
   106    46    43    1
   107    17    15   ar
   108    43    44    1
   109    15    16   ar
   110    29    30    1
   111    44    45    2
   112    30    31    2
