@<TRIPOS>MOLECULE
tmp/6htzA00.pdb
 117 112 0 0 0
SMALL
GASTEIGER

@<TRIPOS>ATOM
      1  N         51.9780   43.3670   85.5180 N.3    19  LYS19      -0.1245
      2  CA        51.1120   42.4890   86.3010 C.3    19  LYS19       0.1561
      3  C         51.8560   41.7900   87.4360 C.2    19  LYS19       0.2260
      4  O         51.3170   41.6640   88.5440 O.2    19  LYS19      -0.2867
      5  CB        50.4620   41.4380   85.3980 C.3    19  LYS19       0.0271
      6  CG        49.5550   40.4810   86.1530 C.3    19  LYS19       0.0035
      7  CD        48.5260   39.8360   85.2370 C.3    19  LYS19       0.0206
      8  CE        47.6160   38.8550   85.9840 C.3    19  LYS19       0.1093
      9  NZ        46.4840   38.3640   85.1310 N.3    19  LYS19      -0.1314
     10  N         43.5290   41.5740   78.7430 N.3    99  ASP99      -0.1239
     11  CA        44.3740   41.0330   79.8040 C.3    99  ASP99       0.1674
     12  C         45.7810   40.6810   79.3460 C.2    99  ASP99       0.2266
     13  O         46.5910   40.2400   80.1750 O.2    99  ASP99      -0.2867
     14  CB        43.7120   39.8020   80.4270 C.3    99  ASP99       0.1410
     15  CG        42.6190   40.1720   81.4030 C.2    99  ASP99       0.3668
     16  OD1       42.8230   41.1180   82.1980 O.co2  99  ASP99      -0.2456
     17  OD2       41.5550   39.5220   81.3720 O.co2  99  ASP99      -0.2456
     18  N         51.2580   28.7790   81.3190 N.3   140  HIS140     -0.1226
     19  CA        50.5920   27.6330   80.7100 C.3   140  HIS140      0.1752
     20  C         49.4280   27.9930   79.7820 C.2   140  HIS140      0.2596
     21  O         48.9320   27.0980   79.0880 O.2   140  HIS140     -0.2718
     22  CB        50.1080   26.6610   81.8010 C.3   140  HIS140      0.0759
     23  CG        49.2340   27.2790   82.8490 C.ar  140  HIS140      0.0818
     24  ND1       48.6200   26.5280   83.8360 N.ar  140  HIS140     -0.2268
     25  CD2       48.8800   28.5660   83.0820 C.ar  140  HIS140      0.1154
     26  CE1       47.9240   27.3280   84.6270 C.ar  140  HIS140      0.1986
     27  NE2       48.0600   28.5670   84.1900 N.ar  140  HIS140     -0.2212
     28  N         49.0070   29.2630   79.7040 N.am  141  HIS141     -0.1975
     29  CA        47.8220   29.6180   78.9150 C.3   141  HIS141      0.1656
     30  C         48.1080   29.9810   77.4590 C.2   141  HIS141      0.2291
     31  O         47.1690   29.9790   76.6500 O.2   141  HIS141     -0.2864
     32  CB        47.0810   30.8080   79.5500 C.3   141  HIS141      0.0771
     33  CG        46.4960   30.5190   80.9030 C.ar  141  HIS141      0.0820
     34  ND1       45.6780   29.4340   81.1460 N.ar  141  HIS141     -0.2267
     35  CD2       46.5880   31.1900   82.0760 C.ar  141  HIS141      0.1154
     36  CE1       45.3090   29.4370   82.4170 C.ar  141  HIS141      0.1986
     37  NE2       45.8480   30.4920   83.0040 N.ar  141  HIS141     -0.2212
     38  N         45.4960   35.1350   79.3820 N.3   149  GLY149     -0.1225
     39  CA        45.7770   35.0990   80.8320 C.3   149  GLY149      0.1811
     40  C         47.1370   35.6230   81.2560 C.2   149  GLY149      0.2280
     41  O         47.7790   35.0330   82.1420 O.2   149  GLY149     -0.2866
     42  N         49.7560   35.3410   79.6930 N.3   151  CYS151     -0.1235
     43  CA        50.7770   34.4690   79.1220 C.3   151  CYS151      0.1677
     44  C         50.9270   34.8300   77.6550 C.2   151  CYS151      0.2270
     45  O         49.9540   34.7560   76.9040 O.2   151  CYS151     -0.2867
     46  CB        50.4010   32.9920   79.2440 C.3   151  CYS151      0.0956
     47  SG        50.1060   32.4460   80.9450 S.3   151  CYS151     -0.0801
     48  N         48.3450   24.7230   89.3650 N.3   177  ASP177     -0.1239
     49  CA        47.8220   26.0820   89.4040 C.3   177  ASP177      0.1674
     50  C         46.3110   26.0950   89.7140 C.2   177  ASP177      0.2266
     51  O         45.5860   25.1310   89.4750 O.2   177  ASP177     -0.2867
     52  CB        48.1180   26.7330   88.0480 C.3   177  ASP177      0.1410
     53  CG        47.9290   28.2210   88.0440 C.2   177  ASP177      0.3668
     54  OD1       46.7660   28.6550   87.9480 O.co2 177  ASP177     -0.2456
     55  OD2       48.9440   28.9510   88.1130 O.co2 177  ASP177     -0.2456
     56  N         44.2390   27.5920   88.0430 N.3   179  HIS179     -0.1241
     57  CA        43.5820   27.5970   86.7470 C.3   179  HIS179      0.1621
     58  C         43.9530   26.3710   85.9040 C.2   179  HIS179      0.2264
     59  O         45.0440   25.7980   86.0250 O.2   179  HIS179     -0.2867
     60  CB        43.9340   28.8830   85.9940 C.3   179  HIS179      0.0745
     61  CG        43.5020   30.1300   86.7010 C.ar  179  HIS179      0.0817
     62  ND1       44.3100   30.8010   87.5920 N.ar  179  HIS179     -0.2268
     63  CD2       42.3300   30.8090   86.6680 C.ar  179  HIS179      0.1154
     64  CE1       43.6670   31.8590   88.0570 C.ar  179  HIS179      0.1986
     65  NE2       42.4630   31.8900   87.5080 N.ar  179  HIS179     -0.2212
     66  N         37.6490   31.6830   84.5900 N.3   207  PHE207     -0.1241
     67  CA        38.7240   31.5630   83.5850 C.3   207  PHE207      0.1605
     68  C         39.4900   30.2400   83.6770 C.2   207  PHE207      0.2264
     69  O         39.8170   29.8130   84.7780 O.2   207  PHE207     -0.2867
     70  CB        39.7060   32.7350   83.7650 C.3   207  PHE207      0.0534
     71  CG        40.7660   32.8130   82.6970 C.ar  207  PHE207     -0.0203
     72  CD1       41.9610   32.1230   82.8290 C.ar  207  PHE207     -0.0042
     73  CD2       40.5500   33.5700   81.5540 C.ar  207  PHE207     -0.0042
     74  CE1       42.9380   32.1880   81.8340 C.ar  207  PHE207     -0.0003
     75  CE2       41.5130   33.6470   80.5610 C.ar  207  PHE207     -0.0003
     76  CZ        42.7120   32.9650   80.7050 C.ar  207  PHE207     -0.0000
     77  N         48.4940   30.3980   93.2240 N.3   270  ASP270     -0.1239
     78  CA        47.2060   31.0370   93.4370 C.3   270  ASP270      0.1674
     79  C         46.1710   30.1430   94.1200 C.2   270  ASP270      0.2266
     80  O         45.0430   30.6130   94.3260 O.2   270  ASP270     -0.2867
     81  CB        46.6280   31.6080   92.1200 C.3   270  ASP270      0.1410
     82  CG        46.9960   30.8170   90.8740 C.2   270  ASP270      0.3668
     83  OD1       47.5230   29.6840   90.9440 O.co2 270  ASP270     -0.2456
     84  OD2       46.7170   31.3650   89.7840 O.co2 270  ASP270     -0.2456
     85  N         44.6820   36.6650   96.6080 N.3   276  PRO276     -0.2102
     86  CA        43.4860   37.5140   96.4430 C.3   276  PRO276      0.1504
     87  C         42.3520   36.8610   95.6740 C.2   276  PRO276      0.2575
     88  O         41.2180   37.3460   95.7640 O.2   276  PRO276     -0.2718
     89  CB        44.0220   38.7470   95.6950 C.3   276  PRO276      0.0282
     90  CG        45.3080   38.2810   95.0590 C.3   276  PRO276      0.0208
     91  CD        45.8830   37.3050   96.0460 C.3   276  PRO276      0.0893
     92  N         42.6100   35.7880   94.9110 N.am  277  HIS277     -0.1976
     93  CA        41.5010   35.0350   94.3270 C.3   277  HIS277      0.1656
     94  C         40.5580   34.5290   95.4050 C.2   277  HIS277      0.2291
     95  O         39.3350   34.5440   95.2240 O.2   277  HIS277     -0.2864
     96  CB        42.0230   33.8630   93.4880 C.3   277  HIS277      0.0771
     97  CG        42.4820   34.2750   92.1250 C.ar  277  HIS277      0.0820
     98  ND1       43.7690   34.7030   91.8700 N.ar  277  HIS277     -0.2267
     99  CD2       41.8130   34.3650   90.9510 C.ar  277  HIS277      0.1154
    100  CE1       43.8740   35.0270   90.5920 C.ar  277  HIS277      0.1986
    101  NE2       42.7030   34.8290   90.0130 N.ar  277  HIS277     -0.2212
    102  N         50.9970   31.2720   88.2890 N.3   312  GLY312     -0.1225
    103  CA        50.1910   32.2350   89.0240 C.3   312  GLY312      0.1811
    104  C         50.6950   32.4600   90.4400 C.2   312  GLY312      0.2280
    105  O         51.6060   31.8030   90.9420 O.2   312  GLY312     -0.2866
    106  N         49.4400   35.8810   93.2180 N.3   314  TYR314     -0.1241
    107  CA        49.2170   37.3190   93.2240 C.3   314  TYR314      0.1605
    108  C         49.3250   37.9440   94.6070 C.2   314  TYR314      0.2264
    109  O         49.1250   39.1550   94.7510 O.2   314  TYR314     -0.2867
    110  CB        47.8570   37.5950   92.5600 C.3   314  TYR314      0.0534
    111  CG        47.8620   36.8990   91.2100 C.ar  314  TYR314     -0.0201
    112  CD1       48.4390   37.5170   90.0990 C.ar  314  TYR314     -0.0009
    113  CD2       47.3890   35.5880   91.0640 C.ar  314  TYR314     -0.0009
    114  CE1       48.5010   36.8710   88.8690 C.ar  314  TYR314      0.0417
    115  CE2       47.4580   34.9270   89.8290 C.ar  314  TYR314      0.0417
    116  CZ        48.0120   35.5900   88.7370 C.ar  314  TYR314      0.1957
    117  OH        48.0960   34.9760   87.5010 O.3   314  TYR314     -0.2866
@<TRIPOS>BOND
     1    31    30    2
     2    45    44    2
     3    30    29    1
     4    44    43    1
     5    10    11    1
     6    29    32    1
     7    29    28    1
     8    21    20    2
     9    43    46    1
    10    43    42    1
    11    46    47    1
    12    12    11    1
    13    12    13    2
    14    38    39    1
    15    32    33    1
    16    28    20   am
    17    20    19    1
    18    11    14    1
    19    14    15    1
    20    75    76   ar
    21    75    73   ar
    22    76    74   ar
    23    19    18    1
    24    19    22    1
    25    39    40    1
    26    33    34   ar
    27    33    35   ar
    28    34    36   ar
    29    40    41    2
    30    17    15   ar
    31    15    16   ar
    32    73    71   ar
    33    22    23    1
    34    74    72   ar
    35    35    37   ar
    36    36    37   ar
    37    71    72   ar
    38    71    70    1
    39    23    25   ar
    40    23    24   ar
    41    25    27   ar
    42    67    68    1
    43    67    70    1
    44    67    66    1
    45    68    69    2
    46    24    26   ar
    47    27    26   ar
    48     9     8    1
    49     7     8    1
    50     7     6    1
    51     5     6    1
    52     5     2    1
    53     1     2    1
    54    58    59    2
    55    58    57    1
    56    60    61    1
    57    60    57    1
    58     2     3    1
    59    63    61   ar
    60    63    65   ar
    61    61    62   ar
    62    57    56    1
    63     3     4    2
    64   117   116    1
    65    65    64   ar
    66    62    64   ar
    67    54    53   ar
    68    53    52    1
    69    53    55   ar
    70    52    49    1
    71   102   103    1
    72   116   114   ar
    73   116   115   ar
    74   114   112   ar
    75   103   104    1
    76    48    49    1
    77    49    50    1
    78    51    50    2
    79    84    82   ar
    80   115   113   ar
    81   101   100   ar
    82   101    99   ar
    83   112   111   ar
    84   104   105    2
    85   100    98   ar
    86    82    83   ar
    87    82    81    1
    88    99    97   ar
    89   113   111   ar
    90   111   110    1
    91    98    97   ar
    92    81    78    1
    93    97    96    1
    94   110   107    1
    95   106   107    1
    96    77    78    1
    97   107   108    1
    98    78    79    1
    99    96    93    1
   100    79    80    2
   101    93    92    1
   102    93    94    1
   103   108   109    2
   104    92    87   am
   105    90    89    1
   106    90    91    1
   107    95    94    2
   108    87    88    2
   109    87    86    1
   110    89    86    1
   111    91    85    1
   112    86    85    1
