@<TRIPOS>MOLECULE
tmp/6hu1A00.pdb
 131 128 0 0 0
SMALL
GASTEIGER

@<TRIPOS>ATOM
      1  N         52.0090   43.2980   85.7040 N.3    19  LYS19      -0.1245
      2  CA        51.1860   42.3960   86.5160 C.3    19  LYS19       0.1561
      3  C         51.9770   41.7170   87.6380 C.2    19  LYS19       0.2260
      4  O         51.4910   41.6180   88.7760 O.2    19  LYS19      -0.2867
      5  CB        50.5260   41.3230   85.6410 C.3    19  LYS19       0.0271
      6  CG        49.6760   40.3560   86.4530 C.3    19  LYS19       0.0035
      7  CD        49.0220   39.3050   85.5730 C.3    19  LYS19       0.0206
      8  CE        47.7670   38.7180   86.2110 C.3    19  LYS19       0.1093
      9  NZ        47.0210   37.8040   85.2750 N.3    19  LYS19      -0.1314
     10  N         43.4850   41.3480   78.9610 N.3    99  ASP99      -0.1239
     11  CA        44.3150   40.7120   79.9810 C.3    99  ASP99       0.1674
     12  C         45.7590   40.4930   79.5550 C.2    99  ASP99       0.2266
     13  O         46.5900   40.1820   80.4200 O.2    99  ASP99      -0.2867
     14  CB        43.7230   39.3670   80.4040 C.3    99  ASP99       0.1410
     15  CG        42.6870   39.5110   81.4790 C.2    99  ASP99       0.3668
     16  OD1       42.6530   40.5880   82.1140 O.co2  99  ASP99      -0.2456
     17  OD2       41.9140   38.5520   81.6880 O.co2  99  ASP99      -0.2456
     18  N         54.2340   29.2700   82.3470 N.3   139  TRP139     -0.1227
     19  CA        53.1800   30.1270   81.7700 C.3   139  TRP139      0.1737
     20  C         52.2690   29.2820   80.8740 C.2   139  TRP139      0.2595
     21  O         52.3600   29.2780   79.6410 O.2   139  TRP139     -0.2718
     22  CB        53.8270   31.3140   81.0430 C.3   139  TRP139      0.0564
     23  CG        54.6920   32.0230   82.0410 C.ar  139  TRP139      0.0003
     24  CD1       56.0660   32.0860   82.0700 C.ar  139  TRP139      0.0946
     25  CD2       54.2350   32.6440   83.2530 C.ar  139  TRP139      0.0152
     26  NE1       56.4860   32.7480   83.2170 N.ar  139  TRP139     -0.2442
     27  CE2       55.3820   33.1070   83.9500 C.ar  139  TRP139      0.0810
     28  CE3       52.9650   32.8810   83.8020 C.ar  139  TRP139      0.0012
     29  CZ2       55.2900   33.7940   85.1730 C.ar  139  TRP139      0.0191
     30  CZ3       52.8760   33.5570   85.0360 C.ar  139  TRP139      0.0001
     31  CH2       54.0330   34.0100   85.6930 C.ar  139  TRP139      0.0015
     32  N         51.3220   28.5920   81.5240 N.am  140  HIS140     -0.1961
     33  CA        50.6820   27.4300   80.9150 C.3   140  HIS140      0.1787
     34  C         49.5080   27.7540   79.9940 C.2   140  HIS140      0.2620
     35  O         49.0220   26.8290   79.3310 O.2   140  HIS140     -0.2715
     36  CB        50.2280   26.4260   82.0000 C.3   140  HIS140      0.0785
     37  CG        49.3350   27.0040   83.0480 C.ar  140  HIS140      0.0821
     38  ND1       48.6620   26.2140   83.9630 N.ar  140  HIS140     -0.2267
     39  CD2       49.0220   28.2870   83.3600 C.ar  140  HIS140      0.1154
     40  CE1       47.9600   26.9840   84.7770 C.ar  140  HIS140      0.1986
     41  NE2       48.1640   28.2460   84.4380 N.ar  140  HIS140     -0.2212
     42  N         49.0630   29.0240   79.8920 N.am  141  HIS141     -0.1973
     43  CA        47.8840   29.3630   79.0810 C.3   141  HIS141      0.1656
     44  C         48.1980   29.7710   77.6340 C.2   141  HIS141      0.2291
     45  O         47.2700   29.8470   76.8260 O.2   141  HIS141     -0.2864
     46  CB        47.0720   30.5240   79.7220 C.3   141  HIS141      0.0771
     47  CG        46.4710   30.1970   81.0530 C.ar  141  HIS141      0.0820
     48  ND1       45.7030   29.0680   81.2670 N.ar  141  HIS141     -0.2267
     49  CD2       46.5090   30.8610   82.2370 C.ar  141  HIS141      0.1154
     50  CE1       45.3060   29.0430   82.5310 C.ar  141  HIS141      0.1986
     51  NE2       45.7750   30.1190   83.1380 N.ar  141  HIS141     -0.2212
     52  N         45.5560   34.8830   79.5730 N.3   149  GLY149     -0.1225
     53  CA        45.7840   34.7770   81.0250 C.3   149  GLY149      0.1811
     54  C         47.1600   35.2420   81.4750 C.2   149  GLY149      0.2280
     55  O         47.7910   34.5920   82.3260 O.2   149  GLY149     -0.2866
     56  N         49.8360   35.0160   79.8540 N.3   151  CYS151     -0.1235
     57  CA        50.8860   34.1720   79.2940 C.3   151  CYS151      0.1677
     58  C         51.0540   34.5420   77.8250 C.2   151  CYS151      0.2270
     59  O         50.0820   34.5040   77.0590 O.2   151  CYS151     -0.2867
     60  CB        50.5560   32.6810   79.4490 C.3   151  CYS151      0.0956
     61  SG        50.1800   32.1300   81.1650 S.3   151  CYS151     -0.0801
     62  N         48.4710   24.3800   89.4720 N.3   176  ASP176     -0.1239
     63  CA        47.9150   25.7280   89.5200 C.3   176  ASP176      0.1674
     64  C         46.4110   25.7140   89.8590 C.2   176  ASP176      0.2266
     65  O         45.7010   24.7460   89.5870 O.2   176  ASP176     -0.2867
     66  CB        48.1590   26.3800   88.1480 C.3   176  ASP176      0.1410
     67  CG        48.0010   27.8870   88.1560 C.2   176  ASP176      0.3668
     68  OD1       46.8560   28.3460   88.1200 O.co2 176  ASP176     -0.2456
     69  OD2       49.0140   28.6120   88.1380 O.co2 176  ASP176     -0.2456
     70  N         44.3320   27.1690   88.1870 N.3   178  HIS178     -0.1241
     71  CA        43.6800   27.2160   86.8870 C.3   178  HIS178      0.1621
     72  C         44.0700   26.0040   86.0350 C.2   178  HIS178      0.2264
     73  O         45.1680   25.4520   86.1580 O.2   178  HIS178     -0.2867
     74  CB        44.0450   28.5240   86.1600 C.3   178  HIS178      0.0745
     75  CG        43.5460   29.7710   86.8410 C.ar  178  HIS178      0.0817
     76  ND1       44.3240   30.5160   87.7020 N.ar  178  HIS178     -0.2268
     77  CD2       42.3520   30.4130   86.7720 C.ar  178  HIS178      0.1154
     78  CE1       43.6310   31.5530   88.1440 C.ar  178  HIS178      0.1986
     79  NE2       42.4300   31.5130   87.5930 N.ar  178  HIS178     -0.2212
     80  N         37.7440   31.3780   84.6630 N.3   206  PHE206     -0.1241
     81  CA        38.8480   31.2540   83.6980 C.3   206  PHE206      0.1605
     82  C         39.6440   29.9710   83.8520 C.2   206  PHE206      0.2264
     83  O         39.8940   29.5480   84.9870 O.2   206  PHE206     -0.2867
     84  CB        39.8000   32.4420   83.8600 C.3   206  PHE206      0.0534
     85  CG        40.8500   32.5320   82.7850 C.ar  206  PHE206     -0.0203
     86  CD1       40.5730   33.1480   81.5810 C.ar  206  PHE206     -0.0042
     87  CD2       42.1150   31.9870   82.9800 C.ar  206  PHE206     -0.0042
     88  CE1       41.5550   33.2380   80.5920 C.ar  206  PHE206     -0.0003
     89  CE2       43.0800   32.0710   81.9980 C.ar  206  PHE206     -0.0003
     90  CZ        42.8000   32.6950   80.8070 C.ar  206  PHE206     -0.0000
     91  N         48.5670   29.9370   93.3610 N.3   269  ASP269     -0.1239
     92  CA        47.3040   30.6150   93.6080 C.3   269  ASP269      0.1674
     93  C         46.2530   29.7290   94.2840 C.2   269  ASP269      0.2266
     94  O         45.1310   30.2130   94.5120 O.2   269  ASP269     -0.2867
     95  CB        46.7390   31.2280   92.3210 C.3   269  ASP269      0.1410
     96  CG        47.0110   30.4000   91.0600 C.2   269  ASP269      0.3668
     97  OD1       47.4330   29.2160   91.1170 O.co2 269  ASP269     -0.2456
     98  OD2       46.7790   30.9800   89.9790 O.co2 269  ASP269     -0.2456
     99  N         44.6450   36.2140   96.8180 N.3   275  PRO275     -0.2102
    100  CA        43.4230   37.0310   96.6960 C.3   275  PRO275      0.1504
    101  C         42.3160   36.3770   95.8650 C.2   275  PRO275      0.2575
    102  O         41.1670   36.8330   95.9380 O.2   275  PRO275     -0.2718
    103  CB        43.9200   38.3380   96.0470 C.3   275  PRO275      0.0282
    104  CG        45.2380   37.9860   95.4040 C.3   275  PRO275      0.0208
    105  CD        45.8260   36.8910   96.2530 C.3   275  PRO275      0.0893
    106  N         42.6140   35.3400   95.0640 N.am  276  HIS276     -0.1976
    107  CA        41.5250   34.5790   94.4560 C.3   276  HIS276      0.1656
    108  C         40.5740   34.0530   95.5230 C.2   276  HIS276      0.2291
    109  O         39.3510   34.0400   95.3240 O.2   276  HIS276     -0.2864
    110  CB        42.0790   33.4210   93.6180 C.3   276  HIS276      0.0771
    111  CG        42.6030   33.8460   92.2770 C.ar  276  HIS276      0.0820
    112  ND1       43.9460   34.0350   92.0230 N.ar  276  HIS276     -0.2267
    113  CD2       41.9590   34.1310   91.1180 C.ar  276  HIS276      0.1154
    114  CE1       44.1080   34.4150   90.7670 C.ar  276  HIS276      0.1986
    115  NE2       42.9180   34.4790   90.1950 N.ar  276  HIS276     -0.2212
    116  N         51.0140   30.8260   88.4800 N.3   311  GLY311     -0.1225
    117  CA        50.1990   31.7970   89.2000 C.3   311  GLY311      0.1811
    118  C         50.6920   32.0260   90.6270 C.2   311  GLY311      0.2280
    119  O         51.5700   31.3360   91.1530 O.2   311  GLY311     -0.2866
    120  N         49.4890   35.4920   93.4000 N.3   313  TYR313     -0.1241
    121  CA        49.2950   36.9390   93.3890 C.3   313  TYR313      0.1605
    122  C         49.4170   37.5740   94.7720 C.2   313  TYR313      0.2264
    123  O         49.3340   38.8030   94.9030 O.2   313  TYR313     -0.2867
    124  CB        47.9470   37.2260   92.7080 C.3   313  TYR313      0.0534
    125  CG        47.9600   36.5430   91.3350 C.ar  313  TYR313     -0.0201
    126  CD1       48.5990   37.1450   90.2530 C.ar  313  TYR313     -0.0009
    127  CD2       47.4220   35.2540   91.1470 C.ar  313  TYR313     -0.0009
    128  CE1       48.6620   36.5180   89.0070 C.ar  313  TYR313      0.0417
    129  CE2       47.4930   34.6100   89.8990 C.ar  313  TYR313      0.0417
    130  CZ        48.1120   35.2640   88.8390 C.ar  313  TYR313      0.1957
    131  OH        48.1980   34.6780   87.6020 O.3   313  TYR313     -0.2866
@<TRIPOS>BOND
     1    45    44    2
     2    59    58    2
     3    44    43    1
     4    58    57    1
     5    10    11    1
     6    43    46    1
     7    43    42    1
     8    57    60    1
     9    57    56    1
    10    35    34    2
    11    60    61    1
    12    12    11    1
    13    12    13    2
    14    52    53    1
    15    21    20    2
    16    46    47    1
    17    42    34   am
    18    11    14    1
    19    34    33    1
    20    14    15    1
    21    88    90   ar
    22    88    86   ar
    23    90    89   ar
    24    20    32   am
    25    20    19    1
    26    33    32    1
    27    33    36    1
    28    53    54    1
    29    22    19    1
    30    22    23    1
    31    47    48   ar
    32    47    49   ar
    33    48    50   ar
    34    54    55    2
    35    15    17   ar
    36    15    16   ar
    37    86    85   ar
    38    19    18    1
    39    89    87   ar
    40    36    37    1
    41    23    24   ar
    42    23    25   ar
    43    24    26   ar
    44    49    51   ar
    45    50    51   ar
    46    85    87   ar
    47    85    84    1
    48    37    39   ar
    49    37    38   ar
    50    26    27   ar
    51    25    28   ar
    52    25    27   ar
    53    39    41   ar
    54    81    82    1
    55    81    84    1
    56    81    80    1
    57    28    30   ar
    58    82    83    2
    59    27    29   ar
    60    38    40   ar
    61    41    40   ar
    62    30    31   ar
    63    29    31   ar
    64     9     8    1
    65     7     8    1
    66     7     6    1
    67     5     6    1
    68     5     2    1
    69     1     2    1
    70    72    73    2
    71    72    71    1
    72    74    75    1
    73    74    71    1
    74     2     3    1
    75    77    75   ar
    76    77    79   ar
    77    75    76   ar
    78    71    70    1
    79    79    78   ar
    80   131   130    1
    81     3     4    2
    82    76    78   ar
    83    68    67   ar
    84    69    67   ar
    85    66    67    1
    86    66    63    1
    87   116   117    1
    88   130   128   ar
    89   130   129   ar
    90   128   126   ar
    91   117   118    1
    92    62    63    1
    93    63    64    1
    94    65    64    2
    95   129   127   ar
    96    98    96   ar
    97   115   114   ar
    98   115   113   ar
    99   126   125   ar
   100   118   119    2
   101   114   112   ar
   102    96    97   ar
   103    96    95    1
   104   113   111   ar
   105   127   125   ar
   106   125   124    1
   107   112   111   ar
   108   111   110    1
   109    95    92    1
   110   124   121    1
   111    91    92    1
   112   121   120    1
   113   121   122    1
   114    92    93    1
   115   110   107    1
   116    93    94    2
   117   107   106    1
   118   107   108    1
   119   122   123    2
   120   106   101   am
   121   109   108    2
   122   104   103    1
   123   104   105    1
   124   101   102    2
   125   101   100    1
   126   103   100    1
   127   105    99    1
   128   100    99    1
