@<TRIPOS>MOLECULE
tmp/6hu2A00.pdb
 117 112 0 0 0
SMALL
GASTEIGER

@<TRIPOS>ATOM
      1  N         51.8760   43.3020   85.4140 N.3    19  LYS19      -0.1245
      2  CA        51.0470   42.4290   86.2400 C.3    19  LYS19       0.1561
      3  C         51.8320   41.8240   87.4010 C.2    19  LYS19       0.2260
      4  O         51.3390   41.7870   88.5370 O.2    19  LYS19      -0.2867
      5  CB        50.4300   41.3110   85.4020 C.3    19  LYS19       0.0271
      6  CG        49.4260   40.4730   86.1980 C.3    19  LYS19       0.0035
      7  CD        48.7100   39.4650   85.3160 C.3    19  LYS19       0.0206
      8  CE        47.4700   38.8700   85.9930 C.3    19  LYS19       0.1093
      9  NZ        46.7200   37.9210   85.0960 N.3    19  LYS19      -0.1314
     10  N         43.5240   41.2920   78.7150 N.3    99  ASP99      -0.1239
     11  CA        44.3480   40.6000   79.7140 C.3    99  ASP99       0.1674
     12  C         45.8200   40.4980   79.3220 C.2    99  ASP99       0.2266
     13  O         46.6730   40.2570   80.1930 O.2    99  ASP99      -0.2867
     14  CB        43.8150   39.1860   79.9600 C.3    99  ASP99       0.1410
     15  CG        42.5440   39.1700   80.7910 C.2    99  ASP99       0.3668
     16  OD1       42.3670   40.0930   81.6210 O.co2  99  ASP99      -0.2456
     17  OD2       41.7310   38.2280   80.6170 O.co2  99  ASP99      -0.2456
     18  N         51.2810   28.6930   81.2810 N.3   140  HIS140     -0.1226
     19  CA        50.6300   27.5240   80.6990 C.3   140  HIS140      0.1752
     20  C         49.4340   27.8380   79.8010 C.2   140  HIS140      0.2596
     21  O         48.9250   26.9160   79.1490 O.2   140  HIS140     -0.2718
     22  CB        50.2070   26.5230   81.8070 C.3   140  HIS140      0.0759
     23  CG        49.3200   27.0890   82.8850 C.ar  140  HIS140      0.0818
     24  ND1       48.6690   26.2830   83.8000 N.ar  140  HIS140     -0.2268
     25  CD2       48.9960   28.3630   83.2150 C.ar  140  HIS140      0.1154
     26  CE1       47.9700   27.0330   84.6320 C.ar  140  HIS140      0.1986
     27  NE2       48.1570   28.3000   84.3030 N.ar  140  HIS140     -0.2212
     28  N         48.9820   29.0920   79.7270 N.am  141  HIS141     -0.1975
     29  CA        47.7920   29.4220   78.9330 C.3   141  HIS141      0.1656
     30  C         48.0940   29.8220   77.4890 C.2   141  HIS141      0.2291
     31  O         47.1570   29.9220   76.6840 O.2   141  HIS141     -0.2864
     32  CB        47.0200   30.5940   79.5710 C.3   141  HIS141      0.0771
     33  CG        46.4420   30.3060   80.9320 C.ar  141  HIS141      0.0820
     34  ND1       45.6250   29.2230   81.1890 N.ar  141  HIS141     -0.2267
     35  CD2       46.5320   30.9910   82.0990 C.ar  141  HIS141      0.1154
     36  CE1       45.2530   29.2390   82.4570 C.ar  141  HIS141      0.1986
     37  NE2       45.7890   30.3030   83.0330 N.ar  141  HIS141     -0.2212
     38  N         45.5730   34.9650   79.3480 N.3   149  GLY149     -0.1225
     39  CA        45.7970   34.8780   80.7920 C.3   149  GLY149      0.1811
     40  C         47.1460   35.4010   81.2370 C.2   149  GLY149      0.2280
     41  O         47.7720   34.8160   82.1320 O.2   149  GLY149     -0.2866
     42  N         49.7790   35.1000   79.7140 N.3   151  CYS151     -0.1235
     43  CA        50.7930   34.2330   79.1330 C.3   151  CYS151      0.1677
     44  C         50.9430   34.5980   77.6570 C.2   151  CYS151      0.2270
     45  O         49.9660   34.5310   76.9060 O.2   151  CYS151     -0.2867
     46  CB        50.3920   32.7610   79.2940 C.3   151  CYS151      0.0956
     47  SG        50.0630   32.2250   81.0330 S.3   151  CYS151     -0.0801
     48  N         48.4390   24.5990   89.3970 N.3   178  ASP178     -0.1239
     49  CA        47.8540   25.9390   89.4200 C.3   178  ASP178      0.1674
     50  C         46.3550   25.8950   89.7460 C.2   178  ASP178      0.2266
     51  O         45.6690   24.8970   89.5090 O.2   178  ASP178     -0.2867
     52  CB        48.1040   26.5850   88.0500 C.3   178  ASP178      0.1410
     53  CG        47.9310   28.0800   88.0460 C.2   178  ASP178      0.3668
     54  OD1       46.7700   28.5570   87.9420 O.co2 178  ASP178     -0.2456
     55  OD2       48.9470   28.7820   88.0950 O.co2 178  ASP178     -0.2456
     56  N         44.2080   27.4090   88.0710 N.3   180  HIS180     -0.1241
     57  CA        43.5490   27.4420   86.7690 C.3   180  HIS180      0.1621
     58  C         43.9070   26.2140   85.9310 C.2   180  HIS180      0.2264
     59  O         45.0020   25.6520   86.0450 O.2   180  HIS180     -0.2867
     60  CB        43.9400   28.7230   86.0100 C.3   180  HIS180      0.0745
     61  CG        43.4930   29.9830   86.6870 C.ar  180  HIS180      0.0817
     62  ND1       44.3170   30.7160   87.5140 N.ar  180  HIS180     -0.2268
     63  CD2       42.2950   30.6170   86.6950 C.ar  180  HIS180      0.1154
     64  CE1       43.6540   31.7550   87.9910 C.ar  180  HIS180      0.1986
     65  NE2       42.4200   31.7140   87.5170 N.ar  180  HIS180     -0.2212
     66  N         37.6990   31.4890   84.5800 N.3   208  PHE208     -0.1241
     67  CA        38.7830   31.3210   83.5910 C.3   208  PHE208      0.1605
     68  C         39.5340   29.9900   83.7300 C.2   208  PHE208      0.2264
     69  O         39.8140   29.5740   84.8580 O.2   208  PHE208     -0.2867
     70  CB        39.7740   32.4820   83.7480 C.3   208  PHE208      0.0534
     71  CG        40.7970   32.5780   82.6440 C.ar  208  PHE208     -0.0203
     72  CD1       42.0070   31.8940   82.7320 C.ar  208  PHE208     -0.0042
     73  CD2       40.5510   33.3700   81.5210 C.ar  208  PHE208     -0.0042
     74  CE1       42.9580   31.9810   81.7100 C.ar  208  PHE208     -0.0003
     75  CE2       41.4990   33.4660   80.4900 C.ar  208  PHE208     -0.0003
     76  CZ        42.7030   32.7690   80.5840 C.ar  208  PHE208     -0.0000
     77  N         48.4850   30.3650   93.2060 N.3   271  ASP271     -0.1239
     78  CA        47.2060   31.0290   93.4330 C.3   271  ASP271      0.1674
     79  C         46.1750   30.1330   94.1070 C.2   271  ASP271      0.2266
     80  O         45.0420   30.5820   94.3300 O.2   271  ASP271     -0.2867
     81  CB        46.6480   31.6120   92.1180 C.3   271  ASP271      0.1410
     82  CG        46.8940   30.7270   90.8830 C.2   271  ASP271      0.3668
     83  OD1       47.3810   29.5840   90.9830 O.co2 271  ASP271     -0.2456
     84  OD2       46.5600   31.2100   89.7810 O.co2 271  ASP271     -0.2456
     85  N         44.5990   36.6030   96.6290 N.3   277  PRO277     -0.2102
     86  CA        43.3770   37.4180   96.4800 C.3   277  PRO277      0.1504
     87  C         42.2450   36.7390   95.6880 C.2   277  PRO277      0.2575
     88  O         41.1090   37.2260   95.7500 O.2   277  PRO277     -0.2718
     89  CB        43.8800   38.6860   95.7740 C.3   277  PRO277      0.0282
     90  CG        45.2190   38.3250   95.2060 C.3   277  PRO277      0.0208
     91  CD        45.7920   37.3010   96.1200 C.3   277  PRO277      0.0893
     92  N         42.4970   35.6430   94.9640 N.am  278  HIS278     -0.1976
     93  CA        41.3830   34.9040   94.3670 C.3   278  HIS278      0.1656
     94  C         40.4360   34.3920   95.4450 C.2   278  HIS278      0.2291
     95  O         39.2110   34.4110   95.2640 O.2   278  HIS278     -0.2864
     96  CB        41.8900   33.7330   93.5180 C.3   278  HIS278      0.0771
     97  CG        42.3540   34.1160   92.1410 C.ar  278  HIS278      0.0820
     98  ND1       43.6770   34.3680   91.8470 N.ar  278  HIS278     -0.2267
     99  CD2       41.6770   34.2580   90.9730 C.ar  278  HIS278      0.1154
    100  CE1       43.7940   34.6710   90.5650 C.ar  278  HIS278      0.1986
    101  NE2       42.5940   34.6130   90.0110 N.ar  278  HIS278     -0.2212
    102  N         51.0190   31.2070   88.2240 N.3   313  GLY313     -0.1225
    103  CA        50.2230   32.1880   88.9370 C.3   313  GLY313      0.1811
    104  C         50.6760   32.3500   90.3810 C.2   313  GLY313      0.2280
    105  O         51.4840   31.5900   90.9080 O.2   313  GLY313     -0.2866
    106  N         49.3530   35.7680   93.1860 N.3   315  TYR315     -0.1241
    107  CA        49.1330   37.2130   93.1780 C.3   315  TYR315      0.1605
    108  C         49.2820   37.8680   94.5470 C.2   315  TYR315      0.2264
    109  O         49.1290   39.0910   94.6580 O.2   315  TYR315     -0.2867
    110  CB        47.7540   37.4910   92.5430 C.3   315  TYR315      0.0534
    111  CG        47.7690   36.8390   91.1830 C.ar  315  TYR315     -0.0201
    112  CD1       48.4010   37.4640   90.1080 C.ar  315  TYR315     -0.0009
    113  CD2       47.2720   35.5450   90.9950 C.ar  315  TYR315     -0.0009
    114  CE1       48.4890   36.8430   88.8680 C.ar  315  TYR315      0.0417
    115  CE2       47.3580   34.9150   89.7530 C.ar  315  TYR315      0.0417
    116  CZ        47.9700   35.5680   88.7010 C.ar  315  TYR315      0.1957
    117  OH        48.0650   34.9500   87.4750 O.3   315  TYR315     -0.2866
@<TRIPOS>BOND
     1    31    30    2
     2    45    44    2
     3    30    29    1
     4    44    43    1
     5    10    11    1
     6    29    32    1
     7    29    28    1
     8    43    46    1
     9    43    42    1
    10    21    20    2
    11    46    47    1
    12    12    11    1
    13    12    13    2
    14    38    39    1
    15    32    33    1
    16    11    14    1
    17    28    20   am
    18    20    19    1
    19    14    15    1
    20    75    76   ar
    21    75    73   ar
    22    76    74   ar
    23    17    15   ar
    24    19    18    1
    25    19    22    1
    26    15    16   ar
    27    39    40    1
    28    33    34   ar
    29    33    35   ar
    30    34    36   ar
    31    40    41    2
    32    73    71   ar
    33    74    72   ar
    34    22    23    1
    35    35    37   ar
    36    36    37   ar
    37    71    72   ar
    38    71    70    1
    39    23    25   ar
    40    23    24   ar
    41    25    27   ar
    42    67    68    1
    43    67    70    1
    44    67    66    1
    45    68    69    2
    46    24    26   ar
    47    27    26   ar
    48     9     8    1
    49     7     8    1
    50     7     6    1
    51     5     6    1
    52     5     2    1
    53     1     2    1
    54    58    59    2
    55    58    57    1
    56    60    61    1
    57    60    57    1
    58     2     3    1
    59    61    63   ar
    60    61    62   ar
    61    63    65   ar
    62    57    56    1
    63     3     4    2
    64   117   116    1
    65    62    64   ar
    66    65    64   ar
    67    54    53   ar
    68    53    52    1
    69    53    55   ar
    70    52    49    1
    71   102   103    1
    72   116   114   ar
    73   116   115   ar
    74   114   112   ar
    75   103   104    1
    76    48    49    1
    77    49    50    1
    78    51    50    2
    79   115   113   ar
    80    84    82   ar
    81   101   100   ar
    82   101    99   ar
    83   112   111   ar
    84   104   105    2
    85   100    98   ar
    86    82    83   ar
    87    82    81    1
    88    99    97   ar
    89   113   111   ar
    90   111   110    1
    91    98    97   ar
    92    81    78    1
    93    97    96    1
    94   110   107    1
    95   107   106    1
    96   107   108    1
    97    77    78    1
    98    78    79    1
    99    96    93    1
   100    79    80    2
   101    93    92    1
   102    93    94    1
   103   108   109    2
   104    92    87   am
   105    90    89    1
   106    90    91    1
   107    95    94    2
   108    87    88    2
   109    87    86    1
   110    89    86    1
   111    91    85    1
   112    86    85    1
