@<TRIPOS>MOLECULE
tmp/6hu3D00.pdb
 131 128 0 0 0
SMALL
GASTEIGER

@<TRIPOS>ATOM
      1  N         48.2070   38.8340   25.5490 N.3    19  LYS19      -0.1245
      2  CA        49.1150   39.6010   24.6990 C.3    19  LYS19       0.1561
      3  C         49.6910   38.7560   23.5730 C.2    19  LYS19       0.2260
      4  O         49.7540   39.2010   22.4200 O.2    19  LYS19      -0.2867
      5  CB        50.2610   40.1920   25.5260 C.3    19  LYS19       0.0271
      6  CG        49.8550   41.4080   26.3430 C.3    19  LYS19       0.0035
      7  CD        49.3870   42.5610   25.4640 C.3    19  LYS19       0.0206
      8  CE        50.5320   43.1780   24.6700 C.3    19  LYS19       0.1093
      9  NZ        50.0910   44.4080   23.9440 N.3    19  LYS19      -0.1314
     10  N         50.5210   46.8900   31.8950 N.3    99  ASP99      -0.1239
     11  CA        51.0390   46.0070   30.8560 C.3    99  ASP99       0.1674
     12  C         51.2180   44.5740   31.3280 C.2    99  ASP99       0.2266
     13  O         51.4310   43.6850   30.4940 O.2    99  ASP99      -0.2867
     14  CB        52.3580   46.5520   30.3000 C.3    99  ASP99       0.1410
     15  CG        52.1380   47.6620   29.2880 C.2    99  ASP99       0.3668
     16  OD1       51.0650   47.6640   28.6450 O.co2  99  ASP99      -0.2456
     17  OD2       53.0240   48.5310   29.1400 O.co2  99  ASP99      -0.2456
     18  N         61.7270   35.6650   28.8330 N.3   139  TRP139     -0.1227
     19  CA        60.9750   36.7740   29.4540 C.3   139  TRP139      0.1737
     20  C         61.9130   37.6300   30.3240 C.2   139  TRP139      0.2595
     21  O         61.8750   37.6290   31.5650 O.2   139  TRP139     -0.2718
     22  CB        59.7660   36.2060   30.2060 C.3   139  TRP139      0.0564
     23  CG        58.9330   35.4150   29.2070 C.ar  139  TRP139      0.0003
     24  CD1       58.6390   34.0820   29.2500 C.ar  139  TRP139      0.0946
     25  CD2       58.3720   35.9140   27.9790 C.ar  139  TRP139      0.0152
     26  NE1       57.9050   33.7190   28.1150 N.ar  139  TRP139     -0.2442
     27  CE2       57.7310   34.8310   27.3310 C.ar  139  TRP139      0.0810
     28  CE3       58.3430   37.1830   27.3630 C.ar  139  TRP139      0.0012
     29  CZ2       57.0570   34.9820   26.1110 C.ar  139  TRP139      0.0191
     30  CZ3       57.6740   37.3210   26.1550 C.ar  139  TRP139      0.0001
     31  CH2       57.0450   36.2240   25.5430 C.ar  139  TRP139      0.0015
     32  N         62.7200   38.4480   29.6290 N.am  140  HIS140     -0.1961
     33  CA        63.9070   39.0580   30.2240 C.3   140  HIS140      0.1787
     34  C         63.6270   40.2440   31.1410 C.2   140  HIS140      0.2620
     35  O         64.5420   40.6450   31.8700 O.2   140  HIS140     -0.2715
     36  CB        64.9090   39.4750   29.1120 C.3   140  HIS140      0.0785
     37  CG        64.3480   40.3780   28.0560 C.ar  140  HIS140      0.0821
     38  ND1       65.1520   41.0280   27.1370 N.ar  140  HIS140     -0.2267
     39  CD2       63.0740   40.7370   27.7580 C.ar  140  HIS140      0.1154
     40  CE1       64.3930   41.7350   26.3160 C.ar  140  HIS140      0.1986
     41  NE2       63.1310   41.5760   26.6700 N.ar  140  HIS140     -0.2212
     42  N         62.4070   40.8100   31.1480 N.am  141  HIS141     -0.1973
     43  CA        62.1580   42.0040   31.9550 C.3   141  HIS141      0.1656
     44  C         61.7400   41.7290   33.4000 C.2   141  HIS141      0.2291
     45  O         61.7570   42.6610   34.2160 O.2   141  HIS141     -0.2864
     46  CB        61.0570   42.8660   31.3200 C.3   141  HIS141      0.0771
     47  CG        61.4080   43.3980   29.9710 C.ar  141  HIS141      0.0820
     48  ND1       62.5480   44.1390   29.7400 N.ar  141  HIS141     -0.2267
     49  CD2       60.7660   43.3030   28.7830 C.ar  141  HIS141      0.1154
     50  CE1       62.5920   44.4780   28.4620 C.ar  141  HIS141      0.1986
     51  NE2       61.5200   43.9880   27.8610 N.ar  141  HIS141     -0.2212
     52  N         56.8570   44.5910   31.4750 N.3   149  GLY149     -0.1225
     53  CA        56.9070   44.3340   30.0350 C.3   149  GLY149      0.1811
     54  C         56.3300   43.0030   29.6020 C.2   149  GLY149      0.2280
     55  O         56.9160   42.3020   28.7630 O.2   149  GLY149     -0.2866
     56  N         56.3470   40.4070   31.1760 N.3   151  CYS151     -0.1235
     57  CA        57.1440   39.3290   31.7530 C.3   151  CYS151      0.1677
     58  C         56.7690   39.1930   33.2230 C.2   151  CYS151      0.2270
     59  O         56.9100   40.1570   33.9860 O.2   151  CYS151     -0.2867
     60  CB        58.6400   39.6190   31.6280 C.3   151  CYS151      0.0956
     61  SG        59.1800   39.8750   29.9130 S.3   151  CYS151     -0.0801
     62  N         66.8890   41.0350   21.6870 N.3   176  ASP176     -0.1239
     63  CA        65.5870   41.6880   21.6650 C.3   176  ASP176      0.1674
     64  C         65.7390   43.1760   21.3380 C.2   176  ASP176      0.2266
     65  O         66.7650   43.7930   21.6270 O.2   176  ASP176     -0.2867
     66  CB        64.9510   41.4840   23.0480 C.3   176  ASP176      0.1410
     67  CG        63.4700   41.7160   23.0900 C.2   176  ASP176      0.3668
     68  OD1       63.0670   42.8660   23.2960 O.co2 176  ASP176     -0.2456
     69  OD2       62.6980   40.7470   22.9940 O.co2 176  ASP176     -0.2456
     70  N         64.3830   45.4060   22.9490 N.3   178  HIS178     -0.1241
     71  CA        64.4730   46.0770   24.2430 C.3   178  HIS178      0.1621
     72  C         65.6720   45.6220   25.0730 C.2   178  HIS178      0.2264
     73  O         66.1480   44.4870   24.9770 O.2   178  HIS178     -0.2867
     74  CB        63.1910   45.8550   25.0570 C.3   178  HIS178      0.0745
     75  CG        61.9550   46.3010   24.3380 C.ar  178  HIS178      0.0817
     76  ND1       61.2520   45.4800   23.4850 N.ar  178  HIS178     -0.2268
     77  CD2       61.3420   47.5080   24.2860 C.ar  178  HIS178      0.1154
     78  CE1       60.2410   46.1520   22.9610 C.ar  178  HIS178      0.1986
     79  NE2       60.2720   47.3840   23.4350 N.ar  178  HIS178     -0.2212
     80  N         60.7580   52.1450   26.3870 N.3   206  PHE206     -0.1241
     81  CA        60.8350   51.0660   27.3830 C.3   206  PHE206      0.1605
     82  C         62.1050   50.1970   27.2310 C.2   206  PHE206      0.2264
     83  O         62.4830   49.8720   26.1110 O.2   206  PHE206     -0.2867
     84  CB        59.5740   50.2040   27.2360 C.3   206  PHE206      0.0534
     85  CG        59.4630   49.0980   28.2360 C.ar  206  PHE206     -0.0203
     86  CD1       58.8450   49.3110   29.4580 C.ar  206  PHE206     -0.0042
     87  CD2       59.9550   47.8410   27.9500 C.ar  206  PHE206     -0.0042
     88  CE1       58.7270   48.2900   30.3730 C.ar  206  PHE206     -0.0003
     89  CE2       59.8460   46.8150   28.8680 C.ar  206  PHE206     -0.0003
     90  CZ        59.2400   47.0340   30.0750 C.ar  206  PHE206     -0.0000
     91  N         61.3040   41.3850   17.8440 N.3   269  ASP269     -0.1239
     92  CA        60.7650   42.7100   17.6110 C.3   269  ASP269      0.1674
     93  C         61.7440   43.6540   16.9200 C.2   269  ASP269      0.2266
     94  O         61.3860   44.8140   16.6830 O.2   269  ASP269     -0.2867
     95  CB        60.2190   43.3320   18.9170 C.3   269  ASP269      0.1410
     96  CG        60.9990   42.9530   20.1750 C.2   269  ASP269      0.3668
     97  OD1       62.1370   42.4180   20.1070 O.co2 269  ASP269     -0.2456
     98  OD2       60.4270   43.2240   21.2600 O.co2 269  ASP269     -0.2456
     99  N         55.3340   45.7230   14.5670 N.3   275  PRO275     -0.2102
    100  CA        54.6040   46.9860   14.7400 C.3   275  PRO275      0.1504
    101  C         55.3770   48.0420   15.5430 C.2   275  PRO275      0.2575
    102  O         55.0660   49.2320   15.4090 O.2   275  PRO275     -0.2718
    103  CB        53.3110   46.5540   15.4500 C.3   275  PRO275      0.0282
    104  CG        53.6140   45.1820   16.0220 C.3   275  PRO275      0.0208
    105  CD        54.5670   44.5640   15.0630 C.3   275  PRO275      0.0893
    106  N         56.3900   47.6700   16.3430 N.am  276  HIS276     -0.1976
    107  CA        57.2570   48.7020   16.9160 C.3   276  HIS276      0.1656
    108  C         57.8560   49.5880   15.8270 C.2   276  HIS276      0.2291
    109  O         58.0360   50.7990   16.0300 O.2   276  HIS276     -0.2864
    110  CB        58.3920   48.0870   17.7400 C.3   276  HIS276      0.0771
    111  CG        58.0020   47.6930   19.1290 C.ar  276  HIS276      0.0820
    112  ND1       57.5340   46.4330   19.4390 N.ar  276  HIS276     -0.2267
    113  CD2       58.0360   48.3830   20.2980 C.ar  276  HIS276      0.1154
    114  CE1       57.2850   46.3670   20.7360 C.ar  276  HIS276      0.1986
    115  NE2       57.5750   47.5370   21.2790 N.ar  276  HIS276     -0.2212
    116  N         60.3120   38.9860   22.7230 N.3   314  GLY314     -0.1225
    117  CA        59.3650   39.8540   22.0480 C.3   314  GLY314      0.1811
    118  C         59.0700   39.4230   20.6220 C.2   314  GLY314      0.2280
    119  O         59.7220   38.5680   20.0240 O.2   314  GLY314     -0.2866
    120  N         55.5970   40.8950   18.0620 N.3   316  TYR316     -0.1241
    121  CA        54.1640   41.1230   18.0780 C.3   316  TYR316      0.1605
    122  C         53.5490   40.9990   16.6960 C.2   316  TYR316      0.2264
    123  O         52.3340   41.1710   16.5420 O.2   316  TYR316     -0.2867
    124  CB        53.9030   42.4850   18.7230 C.3   316  TYR316      0.0534
    125  CG        54.6280   42.4720   20.0530 C.ar  316  TYR316     -0.0201
    126  CD1       54.0300   41.9110   21.1720 C.ar  316  TYR316     -0.0009
    127  CD2       55.9540   42.9090   20.1640 C.ar  316  TYR316     -0.0009
    128  CE1       54.6960   41.8430   22.3800 C.ar  316  TYR316      0.0417
    129  CE2       56.6350   42.8340   21.3740 C.ar  316  TYR316      0.0417
    130  CZ        55.9930   42.2990   22.4730 C.ar  316  TYR316      0.1957
    131  OH        56.6290   42.2180   23.6860 O.3   316  TYR316     -0.2866
@<TRIPOS>BOND
     1    99   100    1
     2    99   105    1
     3   100   103    1
     4   100   101    1
     5   105   104    1
     6   102   101    2
     7   103   104    1
     8   101   106   am
     9   108   109    2
    10   108   107    1
    11   106   107    1
    12   123   122    2
    13    94    93    2
    14   122   121    1
    15   107   110    1
    16    93    92    1
    17    92    91    1
    18    92    95    1
    19   110   111    1
    20   120   121    1
    21   121   124    1
    22   124   125    1
    23    95    96    1
    24   111   112   ar
    25   111   113   ar
    26   112   114   ar
    27   119   118    2
    28   125   127   ar
    29   125   126   ar
    30    97    96   ar
    31   127   129   ar
    32    96    98   ar
    33   113   115   ar
    34   118   117    1
    35   114   115   ar
    36   126   128   ar
    37    64    65    2
    38    64    63    1
    39   129   130   ar
    40    63    62    1
    41    63    66    1
    42   117   116    1
    43   128   130   ar
    44     4     3    2
    45   130   131    1
    46    70    71    1
    47    78    79   ar
    48    78    76   ar
    49    69    67   ar
    50    66    67    1
    51    67    68   ar
    52    79    77   ar
    53    76    75   ar
    54     3     2    1
    55     9     8    1
    56    71    74    1
    57    71    72    1
    58    77    75   ar
    59    75    74    1
    60     8     7    1
    61     2     5    1
    62     2     1    1
    63    73    72    2
    64     7     6    1
    65     5     6    1
    66    31    29   ar
    67    31    30   ar
    68    83    82    2
    69    29    27   ar
    70    30    28   ar
    71    40    41   ar
    72    40    38   ar
    73    80    81    1
    74    41    39   ar
    75    38    37   ar
    76    82    81    1
    77    84    81    1
    78    84    85    1
    79    27    25   ar
    80    27    26   ar
    81    28    25   ar
    82    39    37   ar
    83    51    50   ar
    84    51    49   ar
    85    87    85   ar
    86    87    89   ar
    87    25    23   ar
    88    37    36    1
    89    26    24   ar
    90    85    86   ar
    91    50    48   ar
    92    16    15   ar
    93    55    54    2
    94    49    47   ar
    95    18    19    1
    96    89    90   ar
    97    36    33    1
    98    17    15   ar
    99    23    24   ar
   100    23    22    1
   101    15    14    1
   102    19    22    1
   103    19    20    1
   104    86    88   ar
   105    54    53    1
   106    32    33    1
   107    32    20   am
   108    48    47   ar
   109    61    60    1
   110    47    46    1
   111    53    52    1
   112    90    88   ar
   113    33    34    1
   114    14    11    1
   115    20    21    2
   116    13    12    2
   117    11    12    1
   118    11    10    1
   119    34    42   am
   120    34    35    2
   121    42    43    1
   122    56    57    1
   123    46    43    1
   124    60    57    1
   125    57    58    1
   126    43    44    1
   127    58    59    2
   128    44    45    2
