@<TRIPOS>MOLECULE
tmp/6hu9O01.pdb
 90 88 0 0 0
SMALL
GASTEIGER

@<TRIPOS>ATOM
      1  N        218.8500  195.1160  247.0360 N.3    36  LEU36      -0.1231
      2  CA       218.1010  194.1380  246.2590 C.3    36  LEU36       0.1693
      3  C        217.9480  194.5710  244.8090 C.2    36  LEU36       0.2592
      4  O        217.9220  193.7170  243.9180 O.2    36  LEU36      -0.2718
      5  CB       216.7360  193.8890  246.8880 C.3    36  LEU36       0.0284
      6  CG       216.6830  193.5130  248.3640 C.3    36  LEU36       0.0019
      7  CD1      215.3120  193.0390  248.7080 C.3    36  LEU36       0.0001
      8  CD2      217.6830  192.4530  248.6940 C.3    36  LEU36       0.0001
      9  N        217.9040  195.8820  244.5470 N.am   37  SER37      -0.1952
     10  CA       217.8930  196.3660  243.1740 C.3    37  SER37       0.1924
     11  C        219.2230  196.1290  242.4800 C.2    37  SER37       0.2314
     12  O        219.2420  195.8460  241.2810 O.2    37  SER37      -0.2863
     13  CB       217.5570  197.8500  243.1390 C.3    37  SER37       0.2116
     14  OG       216.3220  198.1080  243.7770 O.3    37  SER37      -0.2180
     15  N        221.2930  193.5900  243.1990 N.3    39  ALA39      -0.1231
     16  CA       221.3260  192.1550  242.9290 C.3    39  ALA39       0.1694
     17  C        220.4170  191.7910  241.7620 C.2    39  ALA39       0.2593
     18  O        220.7830  190.9620  240.9150 O.2    39  ALA39      -0.2718
     19  CB       220.9320  191.3740  244.1780 C.3    39  ALA39       0.0304
     20  N        219.2550  192.4390  241.6710 N.am   40  GLY40      -0.1942
     21  CA       218.3700  192.1970  240.5480 C.3    40  GLY40       0.2014
     22  C        218.9210  192.7150  239.2360 C.2    40  GLY40       0.2639
     23  O        218.7390  192.0890  238.1890 O.2    40  GLY40      -0.2714
     24  N        219.6180  193.8490  239.2710 N.am   41  ALA41      -0.1963
     25  CA       220.1920  194.3910  238.0480 C.3    41  ALA41       0.1728
     26  C        221.3650  193.5510  237.5710 C.2    41  ALA41       0.2616
     27  O        221.5370  193.3500  236.3600 O.2    41  ALA41      -0.2715
     28  CB       220.6150  195.8370  238.2710 C.3    41  ALA41       0.0334
     29  N        222.1560  193.0210  238.5080 N.am   42  LYS42      -0.1963
     30  CA       223.2160  192.0910  238.1380 C.3    42  LYS42       0.1728
     31  C        222.6470  190.8180  237.5310 C.2    42  LYS42       0.2617
     32  O        223.1510  190.3350  236.5100 O.2    42  LYS42      -0.2715
     33  CB       224.0790  191.7580  239.3490 C.3    42  LYS42       0.0311
     34  CG       225.2580  190.8660  239.0200 C.3    42  LYS42       0.0038
     35  CD       225.0830  189.4590  239.5700 C.3    42  LYS42       0.0206
     36  CE       226.1620  188.5410  239.0570 C.3    42  LYS42       0.1093
     37  NZ       225.8800  187.1250  239.3800 N.3    42  LYS42      -0.1314
     38  N        221.5840  190.2730  238.1310 N.am   43  SER43      -0.1936
     39  CA       220.9690  189.0630  237.5950 C.3    43  SER43       0.2055
     40  C        220.3520  189.3000  236.2220 C.2    43  SER43       0.2644
     41  O        220.4420  188.4380  235.3430 O.2    43  SER43      -0.2714
     42  CB       219.9210  188.5440  238.5680 C.3    43  SER43       0.2130
     43  OG       220.5190  188.1530  239.7910 O.3    43  SER43      -0.2179
     44  N        219.7600  190.4750  236.0080 N.am   44  THR44      -0.1936
     45  CA       219.1460  190.7960  234.7220 C.3    44  THR44       0.2028
     46  C        220.1930  190.9320  233.6210 C.2    44  THR44       0.2642
     47  O        220.0440  190.3610  232.5260 O.2    44  THR44      -0.2714
     48  CB       218.3350  192.0780  234.8640 C.3    44  THR44       0.1808
     49  OG1      217.2910  191.8670  235.8190 O.3    44  THR44      -0.2208
     50  CG2      217.7300  192.4850  233.5510 C.3    44  THR44       0.0379
     51  N        221.2800  191.6520  233.9100 N.am   45  VAL45      -0.1963
     52  CA       222.3300  191.8370  232.9170 C.3    45  VAL45       0.1727
     53  C        223.0260  190.5140  232.6160 C.2    45  VAL45       0.2616
     54  O        223.2980  190.1980  231.4480 O.2    45  VAL45      -0.2715
     55  CB       223.3060  192.9310  233.3920 C.3    45  VAL45       0.0290
     56  CG1      224.6950  192.7550  232.8140 C.3    45  VAL45       0.0023
     57  CG2      222.7730  194.2890  233.0100 C.3    45  VAL45       0.0023
     58  N        223.2380  189.6800  233.6380 N.am   46  GLU46      -0.1963
     59  CA       223.8540  188.3820  233.3930 C.3    46  GLU46       0.1733
     60  C        222.9230  187.4380  232.6510 C.2    46  GLU46       0.2617
     61  O        223.3980  186.6070  231.8720 O.2    46  GLU46      -0.2715
     62  CB       224.3020  187.7540  234.7050 C.3    46  GLU46       0.0429
     63  CG       225.5180  188.4270  235.2940 C.3    46  GLU46       0.1163
     64  CD       226.6050  187.4440  235.6350 C.2    46  GLU46       0.3649
     65  OE1      226.4160  186.2400  235.3710 O.co2  46  GLU46      -0.2457
     66  OE2      227.6510  187.8780  236.1570 O.co2  46  GLU46      -0.2457
     67  N        221.6070  187.5870  232.8390 N.am   47  THR47      -0.1937
     68  CA       220.6350  186.8200  232.0650 C.3    47  THR47       0.2028
     69  C        220.7480  187.1220  230.5790 C.2    47  THR47       0.2642
     70  O        220.9000  186.2080  229.7560 O.2    47  THR47      -0.2714
     71  CB       219.2220  187.1250  232.5620 C.3    47  THR47       0.1808
     72  OG1      219.0300  186.5270  233.8460 O.3    47  THR47      -0.2208
     73  CG2      218.1760  186.5960  231.5930 C.3    47  THR47       0.0379
     74  N        220.7320  188.4090  230.2230 N.am   48  PHE48      -0.1973
     75  CA       220.7740  188.7590  228.8030 C.3    48  PHE48       0.1639
     76  C        222.1400  188.4630  228.1790 C.2    48  PHE48       0.2290
     77  O        222.2190  187.9940  227.0320 O.2    48  PHE48      -0.2864
     78  CB       220.3950  190.2220  228.6140 C.3    48  PHE48       0.0560
     79  CG       218.9340  190.5040  228.8330 C.ar   48  PHE48      -0.0200
     80  CD1      217.9850  190.0670  227.9340 C.ar   48  PHE48      -0.0042
     81  CD2      218.5100  191.2260  229.9310 C.ar   48  PHE48      -0.0042
     82  CE1      216.6430  190.3400  228.1380 C.ar   48  PHE48      -0.0003
     83  CE2      217.1700  191.4860  230.1350 C.ar   48  PHE48      -0.0003
     84  CZ       216.2410  191.0450  229.2350 C.ar   48  PHE48      -0.0000
     85  N        224.4350  186.1050  229.1890 N.3    50  SER50      -0.1217
     86  CA       224.5920  184.6640  229.0560 C.3    50  SER50       0.1889
     87  C        223.6490  184.0830  228.0160 C.2    50  SER50       0.2288
     88  O        223.9230  183.0060  227.4760 O.2    50  SER50      -0.2866
     89  CB       224.3660  183.9980  230.4050 C.3    50  SER50       0.2089
     90  OG       223.0360  184.2110  230.8390 O.3    50  SER50      -0.2183
@<TRIPOS>BOND
     1    77    76    2
     2    88    87    2
     3    80    82   ar
     4    80    79   ar
     5    87    86    1
     6    82    84   ar
     7    76    75    1
     8    78    75    1
     9    78    79    1
    10    75    74    1
    11    79    81   ar
    12    86    85    1
    13    86    89    1
    14    84    83   ar
    15    70    69    2
    16    81    83   ar
    17    74    69   am
    18    89    90    1
    19    69    68    1
    20    54    53    2
    21    73    71    1
    22    61    60    2
    23    68    71    1
    24    68    67    1
    25    47    46    2
    26    71    72    1
    27    53    52    1
    28    53    58   am
    29    60    67   am
    30    60    59    1
    31    56    55    1
    32    52    55    1
    33    52    51    1
    34    57    55    1
    35    59    58    1
    36    59    62    1
    37    50    48    1
    38    46    51   am
    39    46    45    1
    40    62    63    1
    41    45    48    1
    42    45    44    1
    43    48    49    1
    44    63    64    1
    45    41    40    2
    46    65    64   ar
    47    64    66   ar
    48    44    40   am
    49    40    39    1
    50    27    26    2
    51    32    31    2
    52    31    38   am
    53    31    30    1
    54    26    25    1
    55    26    29   am
    56    39    38    1
    57    39    42    1
    58    25    28    1
    59    25    24    1
    60    30    29    1
    61    30    33    1
    62    23    22    2
    63    42    43    1
    64    34    33    1
    65    34    35    1
    66    36    37    1
    67    36    35    1
    68    22    24   am
    69    22    21    1
    70    21    20    1
    71    18    17    2
    72    12    11    2
    73    20    17   am
    74    17    16    1
    75    11    10    1
    76    16    15    1
    77    16    19    1
    78    13    10    1
    79    13    14    1
    80    10     9    1
    81     4     3    2
    82     9     3   am
    83     3     2    1
    84     2     5    1
    85     2     1    1
    86     5     6    1
    87     6     8    1
    88     6     7    1
