@<TRIPOS>MOLECULE
tmp/6hu9M11.pdb
 257 256 0 0 0
SMALL
GASTEIGER

@<TRIPOS>ATOM
      1  N        196.4630  209.6270  241.3080 N.3    27  ASN27      -0.1240
      2  CA       196.4990  208.3670  242.0280 C.3    27  ASN27       0.1653
      3  C        197.2790  207.3260  241.2390 C.2    27  ASN27       0.2266
      4  O        197.9320  207.6350  240.2400 O.2    27  ASN27      -0.2867
      5  CB       195.0810  207.9040  242.3520 C.3    27  ASN27       0.1155
      6  CG       194.1510  207.9490  241.1620 C.2    27  ASN27       0.2627
      7  OD1      194.5670  207.8370  240.0210 O.2    27  ASN27      -0.2716
      8  ND2      192.8670  208.1030  241.4330 N.am   27  ASN27      -0.0877
      9  N        196.3470  205.1500  239.2230 N.3    29  TRP29      -0.1241
     10  CA       195.9630  204.9380  237.8370 C.3    29  TRP29       0.1605
     11  C        196.8250  205.7300  236.8750 C.2    29  TRP29       0.2264
     12  O        196.8870  205.3890  235.6900 O.2    29  TRP29      -0.2867
     13  CB       194.5000  205.3020  237.6300 C.3    29  TRP29       0.0550
     14  CG       193.5870  204.3720  238.3040 C.ar   29  TRP29       0.0003
     15  CD1      192.8110  204.6300  239.3820 C.ar   29  TRP29       0.0946
     16  CD2      193.3520  203.0090  237.9520 C.ar   29  TRP29       0.0152
     17  NE1      192.0970  203.5130  239.7270 N.ar   29  TRP29      -0.2442
     18  CE2      192.4150  202.5020  238.8600 C.ar   29  TRP29       0.0810
     19  CE3      193.8430  202.1670  236.9530 C.ar   29  TRP29       0.0012
     20  CZ2      191.9570  201.1940  238.7990 C.ar   29  TRP29       0.0191
     21  CZ3      193.3890  200.8750  236.8960 C.ar   29  TRP29       0.0001
     22  CH2      192.4590  200.3990  237.8110 C.ar   29  TRP29       0.0015
     23  N        195.0680  198.6150  228.2230 N.3    94  PHE94      -0.1227
     24  CA       193.6350  198.7470  228.4560 C.3    94  PHE94       0.1736
     25  C        193.3430  199.5460  229.7170 C.2    94  PHE94       0.2595
     26  O        192.3670  200.2970  229.7520 O.2    94  PHE94      -0.2718
     27  CB       192.9740  197.3770  228.5300 C.3    94  PHE94       0.0547
     28  CG       192.8460  196.6990  227.2030 C.ar   94  PHE94      -0.0202
     29  CD1      192.7330  197.4400  226.0410 C.ar   94  PHE94      -0.0042
     30  CD2      192.8480  195.3220  227.1140 C.ar   94  PHE94      -0.0042
     31  CE1      192.6230  196.8180  224.8150 C.ar   94  PHE94      -0.0003
     32  CE2      192.7370  194.6980  225.8920 C.ar   94  PHE94      -0.0003
     33  CZ       192.6250  195.4470  224.7430 C.ar   94  PHE94      -0.0000
     34  N        194.1990  199.4440  230.7330 N.am   95  MET95      -0.1979
     35  CA       193.9950  200.2510  231.9330 C.3    95  MET95       0.1605
     36  C        194.2710  201.7310  231.6740 C.2    95  MET95       0.2287
     37  O        193.5560  202.5970  232.1890 O.2    95  MET95      -0.2864
     38  CB       194.8680  199.7210  233.0620 C.3    95  MET95       0.0413
     39  CG       194.3280  198.4590  233.7000 C.3    95  MET95       0.0598
     40  SD       195.6430  197.4770  234.4260 S.3    95  MET95      -0.1393
     41  CE       194.7490  196.5830  235.6890 C.3    95  MET95       0.0692
     42  N        193.9600  203.2810  228.6870 N.3    97  MET97      -0.1230
     43  CA       192.8360  203.7530  227.8870 C.3    97  MET97       0.1702
     44  C        191.5590  203.8790  228.7040 C.2    97  MET97       0.2592
     45  O        190.7880  204.8190  228.4940 O.2    97  MET97      -0.2718
     46  CB       192.6030  202.8140  226.7090 C.3    97  MET97       0.0401
     47  CG       193.7500  202.7530  225.7490 C.3    97  MET97       0.0596
     48  SD       193.5530  201.4690  224.5250 S.3    97  MET97      -0.1393
     49  CE       192.0110  202.0000  223.8110 C.3    97  MET97       0.0692
     50  N        191.3250  202.9710  229.6510 N.am   98  ALA98      -0.1966
     51  CA       190.0900  203.0350  230.4190 C.3    98  ALA98       0.1728
     52  C        190.1330  204.1570  231.4400 C.2    98  ALA98       0.2616
     53  O        189.1110  204.7960  231.7020 O.2    98  ALA98      -0.2715
     54  CB       189.8220  201.7020  231.1020 C.3    98  ALA98       0.0334
     55  N        191.3080  204.4430  232.0070 N.am   99  LYS99      -0.1977
     56  CA       191.3930  205.5810  232.9120 C.3    99  LYS99       0.1596
     57  C        191.3260  206.8930  232.1390 C.2    99  LYS99       0.2287
     58  O        190.8800  207.9120  232.6770 O.2    99  LYS99      -0.2864
     59  CB       192.6580  205.4910  233.7700 C.3    99  LYS99       0.0298
     60  CG       193.9250  206.0550  233.1520 C.3    99  LYS99       0.0038
     61  CD       194.3290  207.3640  233.7980 C.3    99  LYS99       0.0206
     62  CE       195.2610  208.1420  232.8990 C.3    99  LYS99       0.1093
     63  NZ       196.6490  207.6420  232.8770 N.3    99  LYS99      -0.1314
     64  N        189.3340  207.1510  229.4190 N.3   101  LEU101     -0.1231
     65  CA       187.8990  207.2080  229.1580 C.3   101  LEU101      0.1693
     66  C        187.1320  207.6420  230.3960 C.2   101  LEU101      0.2592
     67  O        186.0980  208.3080  230.2960 O.2   101  LEU101     -0.2718
     68  CB       187.4050  205.8400  228.7060 C.3   101  LEU101      0.0284
     69  CG       186.7400  205.6300  227.3540 C.3   101  LEU101      0.0019
     70  CD1      187.7290  205.1390  226.3360 C.3   101  LEU101      0.0001
     71  CD2      185.6120  204.6420  227.5020 C.3   101  LEU101      0.0001
     72  N        187.6200  207.2590  231.5680 N.am  102  TYR102     -0.1962
     73  CA       186.9220  207.5380  232.8110 C.3   102  TYR102      0.1771
     74  C        187.1550  208.9640  233.2720 C.2   102  TYR102      0.2619
     75  O        186.2030  209.7130  233.5060 O.2   102  TYR102     -0.2715
     76  CB       187.3820  206.5440  233.8650 C.3   102  TYR102      0.0574
     77  CG       186.6860  206.6310  235.1830 C.ar  102  TYR102     -0.0198
     78  CD1      185.3230  206.4620  235.2800 C.ar  102  TYR102     -0.0009
     79  CD2      187.3980  206.8390  236.3370 C.ar  102  TYR102     -0.0009
     80  CE1      184.6910  206.5160  236.4910 C.ar  102  TYR102      0.0417
     81  CE2      186.7720  206.9020  237.5440 C.ar  102  TYR102      0.0417
     82  CZ       185.4240  206.7340  237.6170 C.ar  102  TYR102      0.1957
     83  OH       184.8030  206.7970  238.8340 O.3   102  TYR102     -0.2866
     84  N        188.4130  209.3660  233.3960 N.am  103  TYR103     -0.1974
     85  CA       188.7130  210.6630  233.9770 C.3   103  TYR103      0.1639
     86  C        188.6810  211.7970  232.9740 C.2   103  TYR103      0.2290
     87  O        189.1240  212.8950  233.3140 O.2   103  TYR103     -0.2864
     88  CB       190.0690  210.6200  234.6590 C.3   103  TYR103      0.0560
     89  CG       190.0590  209.8030  235.9120 C.ar  103  TYR103     -0.0198
     90  CD1      189.3100  210.1940  236.9950 C.ar  103  TYR103     -0.0009
     91  CD2      190.8080  208.6500  236.0180 C.ar  103  TYR103     -0.0009
     92  CE1      189.2960  209.4620  238.1420 C.ar  103  TYR103      0.0417
     93  CE2      190.8010  207.9090  237.1740 C.ar  103  TYR103      0.0417
     94  CZ       190.0370  208.3260  238.2300 C.ar  103  TYR103      0.1957
     95  OH       190.0040  207.6220  239.3980 O.3   103  TYR103     -0.2866
     96  N        197.8220  202.7870  219.8720 N.3   121  PHE121     -0.1241
     97  CA       197.0100  201.5910  220.0820 C.3   121  PHE121      0.1605
     98  C        196.9150  200.7520  218.8150 C.2   121  PHE121      0.2264
     99  O        197.0620  199.5220  218.8650 O.2   121  PHE121     -0.2867
    100  CB       195.6230  202.0040  220.5550 C.3   121  PHE121      0.0534
    101  CG       194.7260  200.8610  220.8850 C.ar  121  PHE121     -0.0203
    102  CD1      195.1370  199.8650  221.7500 C.ar  121  PHE121     -0.0042
    103  CD2      193.4520  200.8030  220.3620 C.ar  121  PHE121     -0.0042
    104  CE1      194.2980  198.8190  222.0680 C.ar  121  PHE121     -0.0003
    105  CE2      192.6120  199.7600  220.6720 C.ar  121  PHE121     -0.0003
    106  CZ       193.0350  198.7720  221.5340 C.ar  121  PHE121     -0.0000
    107  N        192.3190  213.2690  239.1210 N.3   209  PRO209     -0.2102
    108  CA       191.0290  212.5750  239.2420 C.3   209  PRO209      0.1504
    109  C        189.8670  213.4460  239.6630 C.2   209  PRO209      0.2575
    110  O        188.7380  212.9500  239.6780 O.2   209  PRO209     -0.2718
    111  CB       191.3050  211.5050  240.3000 C.3   209  PRO209      0.0282
    112  CG       192.4780  211.9690  241.0020 C.3   209  PRO209      0.0208
    113  CD       193.3190  212.6050  239.9630 C.3   209  PRO209      0.0893
    114  N        190.0800  214.7060  240.0140 N.am  210  LEU210     -0.1980
    115  CA       188.9390  215.5410  240.3430 C.3   210  LEU210      0.1596
    116  C        188.3360  216.1720  239.1000 C.2   210  LEU210      0.2287
    117  O        187.1440  216.4870  239.0850 O.2   210  LEU210     -0.2864
    118  CB       189.3490  216.6090  241.3540 C.3   210  LEU210      0.0297
    119  CG       189.8660  216.0810  242.6910 C.3   210  LEU210      0.0022
    120  CD1      190.0000  217.1890  243.6960 C.3   210  LEU210      0.0001
    121  CD2      188.9360  215.0200  243.2250 C.3   210  LEU210      0.0001
    122  N        188.0230  192.6590  219.4240 N.3   278  PHE278     -0.1241
    123  CA       187.9470  193.1060  218.0420 C.3   278  PHE278      0.1605
    124  C        187.6490  191.9480  217.1040 C.2   278  PHE278      0.2264
    125  O        186.9810  192.1400  216.0840 O.2   278  PHE278     -0.2867
    126  CB       189.2380  193.8210  217.6750 C.3   278  PHE278      0.0534
    127  CG       189.6630  194.8170  218.7050 C.ar  278  PHE278     -0.0203
    128  CD1      188.9320  195.9720  218.9020 C.ar  278  PHE278     -0.0042
    129  CD2      190.7650  194.5840  219.5000 C.ar  278  PHE278     -0.0042
    130  CE1      189.3040  196.8850  219.8590 C.ar  278  PHE278     -0.0003
    131  CE2      191.1400  195.4950  220.4570 C.ar  278  PHE278     -0.0003
    132  CZ       190.4050  196.6460  220.6340 C.ar  278  PHE278     -0.0000
    133  N        187.0170  205.7550  219.1580 N.3   302  LEU302     -0.1245
    134  CA       187.4970  206.5450  220.2820 C.3   302  LEU302      0.1561
    135  C        187.8190  207.9690  219.8550 C.2   302  LEU302      0.2260
    136  O        187.9040  208.8720  220.6940 O.2   302  LEU302     -0.2867
    137  CB       188.7270  205.8830  220.8840 C.3   302  LEU302      0.0270
    138  CG       188.7340  204.3580  220.8670 C.3   302  LEU302      0.0019
    139  CD1      190.1290  203.8560  221.1370 C.3   302  LEU302      0.0001
    140  CD2      187.7850  203.8190  221.8980 C.3   302  LEU302      0.0001
    141  N        184.2380  211.2160  237.8870 N.3   317  THR317     -0.1203
    142  CA       184.4410  211.1500  239.3300 C.3   317  THR317      0.1994
    143  C        183.1790  211.5310  240.0830 C.2   317  THR317      0.2617
    144  O        182.8050  210.8750  241.0610 O.2   317  THR317     -0.2717
    145  CB       185.5730  212.0830  239.7390 C.3   317  THR317      0.1784
    146  OG1      186.7150  211.8480  238.9120 O.3   317  THR317     -0.2211
    147  CG2      185.9450  211.8660  241.1870 C.3   317  THR317      0.0376
    148  N        182.5080  212.5820  239.6340 N.am  318  PHE318     -0.1975
    149  CA       181.3550  213.1250  240.3290 C.3   318  PHE318      0.1639
    150  C        180.0630  212.8920  239.5570 C.2   318  PHE318      0.2290
    151  O        179.1030  213.6360  239.7290 O.2   318  PHE318     -0.2864
    152  CB       181.5410  214.6170  240.5950 C.3   318  PHE318      0.0560
    153  CG       182.8160  214.9600  241.3030 C.ar  318  PHE318     -0.0200
    154  CD1      183.0420  214.5400  242.5980 C.ar  318  PHE318     -0.0042
    155  CD2      183.7710  215.7400  240.6840 C.ar  318  PHE318     -0.0042
    156  CE1      184.2130  214.8650  243.2500 C.ar  318  PHE318     -0.0003
    157  CE2      184.9350  216.0770  241.3380 C.ar  318  PHE318     -0.0003
    158  CZ       185.1560  215.6360  242.6210 C.ar  318  PHE318     -0.0000
    159  N        179.2810  207.0060  235.7500 N.3   323  LYS323     -0.1245
    160  CA       180.0550  205.9460  236.3880 C.3   323  LYS323      0.1561
    161  C        179.4340  204.5750  236.1290 C.2   323  LYS323      0.2260
    162  O        180.1350  203.6170  235.7590 O.2   323  LYS323     -0.2867
    163  CB       180.1590  206.2230  237.8840 C.3   323  LYS323      0.0271
    164  CG       181.5690  206.4210  238.3740 C.3   323  LYS323      0.0035
    165  CD       181.6300  206.5280  239.8790 C.3   323  LYS323      0.0206
    166  CE       181.2120  207.8980  240.3310 C.3   323  LYS323      0.1093
    167  NZ       181.2790  208.0370  241.8000 N.3   323  LYS323     -0.1314
    168  N        179.9190  203.6170  232.5470 N.3   326  PHE326     -0.1227
    169  CA       181.3130  203.3160  232.2410 C.3   326  PHE326      0.1736
    170  C        181.6660  201.8960  232.6360 C.2   326  PHE326      0.2595
    171  O        182.3300  201.1790  231.8730 O.2   326  PHE326     -0.2718
    172  CB       182.2500  204.2880  232.9410 C.3   326  PHE326      0.0547
    173  CG       183.6900  203.8790  232.8720 C.ar  326  PHE326     -0.0202
    174  CD1      184.3850  203.9660  231.6830 C.ar  326  PHE326     -0.0042
    175  CD2      184.3510  203.4140  233.9940 C.ar  326  PHE326     -0.0042
    176  CE1      185.7090  203.5960  231.6140 C.ar  326  PHE326     -0.0003
    177  CE2      185.6740  203.0320  233.9260 C.ar  326  PHE326     -0.0003
    178  CZ       186.3500  203.1270  232.7360 C.ar  326  PHE326     -0.0000
    179  N        181.2290  201.4590  233.8120 N.am  327  PHE327     -0.1976
    180  CA       181.5220  200.0670  234.1350 C.3   327  PHE327      0.1639
    181  C        180.6460  199.0890  233.3610 C.2   327  PHE327      0.2290
    182  O        181.0690  197.9450  233.1500 O.2   327  PHE327     -0.2864
    183  CB       181.4280  199.8350  235.6360 C.3   327  PHE327      0.0560
    184  CG       182.4890  200.5540  236.4090 C.ar  327  PHE327     -0.0200
    185  CD1      183.7940  200.1050  236.3990 C.ar  327  PHE327     -0.0042
    186  CD2      182.1870  201.6910  237.1220 C.ar  327  PHE327     -0.0042
    187  CE1      184.7680  200.7800  237.0950 C.ar  327  PHE327     -0.0003
    188  CE2      183.1530  202.3660  237.8190 C.ar  327  PHE327     -0.0003
    189  CZ       184.4450  201.9100  237.8080 C.ar  327  PHE327     -0.0000
    190  N        180.2200  199.5900  230.1900 N.3   329  PHE329     -0.1227
    191  CA       181.0700  199.4940  229.0040 C.3   329  PHE329      0.1736
    192  C        182.2470  198.5540  229.2360 C.2   329  PHE329      0.2595
    193  O        182.6100  197.7720  228.3480 O.2   329  PHE329     -0.2718
    194  CB       181.5660  200.8830  228.6110 C.3   329  PHE329      0.0547
    195  CG       182.5800  200.8800  227.5060 C.ar  329  PHE329     -0.0202
    196  CD1      182.1820  200.7460  226.1930 C.ar  329  PHE329     -0.0042
    197  CD2      183.9280  201.0420  227.7770 C.ar  329  PHE329     -0.0042
    198  CE1      183.1040  200.7520  225.1840 C.ar  329  PHE329     -0.0003
    199  CE2      184.8500  201.0410  226.7660 C.ar  329  PHE329     -0.0003
    200  CZ       184.4380  200.8980  225.4730 C.ar  329  PHE329     -0.0000
    201  N        182.8480  198.6230  230.4250 N.am  330  VAL330     -0.1966
    202  CA       184.0120  197.7940  230.7430 C.3   330  VAL330      0.1727
    203  C        183.6370  196.3150  230.7660 C.2   330  VAL330      0.2616
    204  O        184.2970  195.4720  230.1360 O.2   330  VAL330     -0.2715
    205  CB       184.6240  198.2460  232.0780 C.3   330  VAL330      0.0290
    206  CG1      185.5170  197.1730  232.6620 C.3   330  VAL330      0.0023
    207  CG2      185.4070  199.5190  231.8760 C.3   330  VAL330      0.0023
    208  N        182.5540  195.9740  231.4570 N.am  331  PHE331     -0.1974
    209  CA       182.1710  194.5710  231.4740 C.3   331  PHE331      0.1639
    210  C        181.5390  194.1220  230.1670 C.2   331  PHE331      0.2290
    211  O        181.5710  192.9260  229.8670 O.2   331  PHE331     -0.2864
    212  CB       181.2580  194.2930  232.6560 C.3   331  PHE331      0.0560
    213  CG       181.9350  194.4850  233.9700 C.ar  331  PHE331     -0.0200
    214  CD1      183.1090  193.8140  234.2540 C.ar  331  PHE331     -0.0042
    215  CD2      181.4260  195.3560  234.9050 C.ar  331  PHE331     -0.0042
    216  CE1      183.7480  193.9920  235.4590 C.ar  331  PHE331     -0.0003
    217  CE2      182.0570  195.5410  236.1050 C.ar  331  PHE331     -0.0003
    218  CZ       183.2200  194.8570  236.3850 C.ar  331  PHE331     -0.0000
    219  N        183.0060  195.0090  227.3960 N.3   333  PHE333     -0.1227
    220  CA       184.2550  194.6640  226.7230 C.3   333  PHE333      0.1736
    221  C        184.7430  193.2770  227.1310 C.2   333  PHE333      0.2595
    222  O        185.2140  192.4980  226.2880 O.2   333  PHE333     -0.2718
    223  CB       185.3020  195.7260  227.0410 C.3   333  PHE333      0.0547
    224  CG       186.4510  195.7540  226.0940 C.ar  333  PHE333     -0.0202
    225  CD1      186.3020  196.2630  224.8190 C.ar  333  PHE333     -0.0042
    226  CD2      187.6940  195.3180  226.4960 C.ar  333  PHE333     -0.0042
    227  CE1      187.3640  196.3030  223.9580 C.ar  333  PHE333     -0.0003
    228  CE2      188.7560  195.3540  225.6410 C.ar  333  PHE333     -0.0003
    229  CZ       188.5940  195.8430  224.3710 C.ar  333  PHE333     -0.0000
    230  N        184.6180  192.9460  228.4190 N.am  334  VAL334     -0.1980
    231  CA       185.0170  191.6120  228.8770 C.3   334  VAL334      0.1595
    232  C        184.0960  190.5390  228.2980 C.2   334  VAL334      0.2287
    233  O        184.5530  189.4560  227.8950 O.2   334  VAL334     -0.2864
    234  CB       185.0550  191.5620  230.4120 C.3   334  VAL334      0.0276
    235  CG1      185.6070  190.2400  230.8840 C.3   334  VAL334      0.0022
    236  CG2      185.9060  192.6840  230.9450 C.3   334  VAL334      0.0022
    237  N        185.1250  187.3600  225.8150 N.3   338  GLN338     -0.1245
    238  CA       184.7260  185.9820  226.0810 C.3   338  GLN338      0.1566
    239  C        183.8170  185.4360  224.9850 C.2   338  GLN338      0.2260
    240  O        183.8240  184.2290  224.7240 O.2   338  GLN338     -0.2867
    241  CB       184.0570  185.8950  227.4500 C.3   338  GLN338      0.0367
    242  CG       183.8790  184.4900  227.9730 C.3   338  GLN338      0.0905
    243  CD       185.1920  183.7720  228.1900 C.2   338  GLN338      0.2608
    244  OE1      186.1560  184.3520  228.6880 O.2   338  GLN338     -0.2717
    245  NE2      185.2370  182.4990  227.8190 N.am  338  GLN338     -0.0878
    246  N        178.6960  198.3080  222.6180 N.3   359  TYR359     -0.1241
    247  CA       180.0220  198.9120  222.4630 C.3   359  TYR359      0.1605
    248  C        179.9680  200.1780  221.6250 C.2   359  TYR359      0.2264
    249  O        180.6050  201.1810  221.9590 O.2   359  TYR359     -0.2867
    250  CB       180.9870  197.9130  221.8200 C.3   359  TYR359      0.0534
    251  CG       182.4150  198.4060  221.6510 C.ar  359  TYR359     -0.0201
    252  CD1      183.3430  198.2320  222.6570 C.ar  359  TYR359     -0.0009
    253  CD2      182.8390  199.0140  220.4730 C.ar  359  TYR359     -0.0009
    254  CE1      184.6420  198.6680  222.5090 C.ar  359  TYR359      0.0417
    255  CE2      184.1320  199.4630  220.3250 C.ar  359  TYR359      0.0417
    256  CZ       185.0270  199.2860  221.3430 C.ar  359  TYR359      0.1957
    257  OH       186.3190  199.7200  221.1890 O.3   359  TYR359     -0.2866
@<TRIPOS>BOND
     1   125   124    2
     2   124   123    1
     3   126   123    1
     4   126   127    1
     5   123   122    1
     6   127   128   ar
     7   127   129   ar
     8    98    99    2
     9    98    97    1
    10   128   130   ar
    11   133   134    1
    12   129   131   ar
    13   135   134    1
    14   135   136    2
    15   130   132   ar
    16    96    97    1
    17    97   100    1
    18   134   137    1
    19   255   253   ar
    20   255   256   ar
    21   103   105   ar
    22   103   101   ar
    23   131   132   ar
    24   253   251   ar
    25   100   101    1
    26   105   106   ar
    27   138   137    1
    28   138   139    1
    29   138   140    1
    30   101   102   ar
    31   257   256    1
    32   256   254   ar
    33   106   104   ar
    34   248   249    2
    35   248   247    1
    36   251   250    1
    37   251   252   ar
    38   102   104   ar
    39   250   247    1
    40   247   246    1
    41   254   252   ar
    42    49    48    1
    43   227   229   ar
    44   227   225   ar
    45   229   228   ar
    46    48    47    1
    47   240   239    2
    48    33    31   ar
    49    33    32   ar
    50    31    29   ar
    51   225   224   ar
    52   239   238    1
    53   198   200   ar
    54   198   196   ar
    55   200   199   ar
    56   228   226   ar
    57    47    46    1
    58   237   238    1
    59    32    30   ar
    60    29    28   ar
    61   238   241    1
    62   224   226   ar
    63   224   223    1
    64   196   195   ar
    65   222   221    2
    66    70    69    1
    67    46    43    1
    68   220   223    1
    69   220   221    1
    70   220   219    1
    71   199   197   ar
    72    30    28   ar
    73   221   230   am
    74    28    27    1
    75    69    71    1
    76    69    68    1
    77   241   242    1
    78   195   197   ar
    79   195   194    1
    80   245   243   am
    81    43    42    1
    82    43    44    1
    83   233   232    2
    84   242   243    1
    85   243   244    2
    86    23    24    1
    87   232   231    1
    88   193   192    2
    89   230   231    1
    90    24    27    1
    91    24    25    1
    92    45    44    2
    93   194   191    1
    94    44    50   am
    95    68    65    1
    96   231   234    1
    97   191   192    1
    98   191   190    1
    99    65    64    1
   100    65    66    1
   101   192   201   am
   102    50    51    1
   103    25    26    2
   104    25    34   am
   105   211   210    2
   106   204   203    2
   107   210   209    1
   108    67    66    2
   109    66    72   am
   110   234   235    1
   111   234   236    1
   112    51    54    1
   113    51    52    1
   114   201   202    1
   115    34    35    1
   116   202   203    1
   117   202   205    1
   118   203   208   am
   119    52    53    2
   120    52    55   am
   121   208   209    1
   122   209   212    1
   123    72    73    1
   124   176   174   ar
   125   176   178   ar
   126    36    35    1
   127    36    37    2
   128   174   173   ar
   129   171   170    2
   130   207   205    1
   131    35    38    1
   132    55    56    1
   133   205   206    1
   134    57    58    2
   135    57    56    1
   136   169   168    1
   137   169   170    1
   138   169   172    1
   139   170   179   am
   140   212   213    1
   141   178   177   ar
   142    73    74    1
   143    73    76    1
   144   173   172    1
   145   173   175   ar
   146    63    62    1
   147    62    61    1
   148    56    59    1
   149    86    87    2
   150    86    85    1
   151    38    39    1
   152   182   181    2
   153    60    59    1
   154    60    61    1
   155    74    84   am
   156    74    75    2
   157   181   180    1
   158    84    85    1
   159    39    40    1
   160   179   180    1
   161    76    77    1
   162   177   175   ar
   163   213   214   ar
   164   213   215   ar
   165    85    88    1
   166   180   183    1
   167   214   216   ar
   168    40    41    1
   169    88    89    1
   170   215   217   ar
   171    77    78   ar
   172    77    79   ar
   173    78    80   ar
   174   216   218   ar
   175   183   184    1
   176    12    11    2
   177   159   160    1
   178   162   161    2
   179    89    91   ar
   180    89    90   ar
   181    91    93   ar
   182   217   218   ar
   183   161   160    1
   184    79    81   ar
   185   160   163    1
   186   185   184   ar
   187   185   187   ar
   188   184   186   ar
   189    80    82   ar
   190    11    10    1
   191    21    19   ar
   192    21    22   ar
   193    19    16   ar
   194    90    92   ar
   195   187   189   ar
   196   186   188   ar
   197    93    94   ar
   198    81    82   ar
   199    82    83    1
   200    13    10    1
   201    13    14    1
   202   189   188   ar
   203    22    20   ar
   204    10     9    1
   205   163   164    1
   206   141   142    1
   207    16    14   ar
   208    16    18   ar
   209    92    94   ar
   210    94    95    1
   211    14    15   ar
   212   164   165    1
   213    20    18   ar
   214    18    17   ar
   215   146   145    1
   216   117   116    2
   217   116   115    1
   218   107   108    1
   219   107   113    1
   220   108   109    1
   221   108   111    1
   222   142   145    1
   223   142   143    1
   224    15    17   ar
   225   150   151    2
   226   150   149    1
   227   148   143   am
   228   148   149    1
   229   109   110    2
   230   109   114   am
   231   145   147    1
   232   165   166    1
   233   113   112    1
   234   114   115    1
   235     7     6    2
   236   143   144    2
   237     4     3    2
   238   111   112    1
   239   149   152    1
   240   166   167    1
   241   115   118    1
   242   152   153    1
   243   155   153   ar
   244   155   157   ar
   245     6     8   am
   246     6     5    1
   247     3     2    1
   248   153   154   ar
   249     1     2    1
   250   157   158   ar
   251   118   119    1
   252     2     5    1
   253   154   156   ar
   254   158   156   ar
   255   119   121    1
   256   119   120    1
