@<TRIPOS>MOLECULE
tmp/6hu9C01.pdb
 103 95 0 0 0
SMALL
GASTEIGER

@<TRIPOS>ATOM
      1  N        234.5790  226.1380  220.3500 N.3   108  SER108     -0.1203
      2  CA       234.0850  226.4040  221.7030 C.3   108  SER108      0.2005
      3  C        232.5710  226.3530  221.9350 C.2   108  SER108      0.2460
      4  O        232.1630  225.8500  222.9880 O.2   108  SER108     -0.2732
      5  CB       234.6270  227.7570  222.1800 C.3   108  SER108      0.2103
      6  OG       236.0190  227.8590  221.9380 O.3   108  SER108     -0.2182
      7  N        231.6810  226.8460  221.0280 N.am  109  PRO109     -0.2728
      8  CA       230.2510  226.6080  221.2760 C.3   109  PRO109      0.1401
      9  C        229.7630  225.2360  220.8410 C.2   109  PRO109      0.2269
     10  O        228.8230  224.7010  221.4330 O.2   109  PRO109     -0.2865
     11  CB       229.5590  227.7080  220.4620 C.3   109  PRO109      0.0296
     12  CG       230.6030  228.6670  220.1420 C.3   109  PRO109      0.0237
     13  CD       231.8310  227.8600  219.9720 C.3   109  PRO109      0.0939
     14  N        231.2410  222.1560  220.6610 N.3   111  VAL111     -0.1231
     15  CA       232.0450  221.0040  221.0490 C.3   111  VAL111      0.1692
     16  C        231.1630  219.7910  221.2990 C.2   111  VAL111      0.2592
     17  O        231.5130  218.6640  220.9230 O.2   111  VAL111     -0.2718
     18  CB       232.8930  221.3600  222.2780 C.3   111  VAL111      0.0266
     19  CG1      233.7900  220.2120  222.6590 C.3   111  VAL111      0.0020
     20  CG2      233.7170  222.5720  221.9840 C.3   111  VAL111      0.0020
     21  N        229.9900  219.9980  221.8970 N.am  112  THR112     -0.1953
     22  CA       229.0820  218.8760  222.1080 C.3   112  THR112      0.1897
     23  C        228.4950  218.3840  220.7970 C.2   112  THR112      0.2313
     24  O        228.2670  217.1800  220.6330 O.2   112  THR112     -0.2863
     25  CB       227.9730  219.2630  223.0810 C.3   112  THR112      0.1794
     26  OG1      226.8760  218.3580  222.9360 O.3   112  THR112     -0.2208
     27  CG2      227.5040  220.6850  222.8320 C.3   112  THR112      0.0378
     28  N        231.1690  216.1750  219.3630 N.3   115  ASN115     -0.1225
     29  CA       231.2710  214.8690  220.0150 C.3   115  ASN115      0.1785
     30  C        230.1010  213.9610  219.6490 C.2   115  ASN115      0.2597
     31  O        230.2830  212.7450  219.4970 O.2   115  ASN115     -0.2718
     32  CB       231.3570  215.0230  221.5250 C.3   115  ASN115      0.1169
     33  CG       232.4740  215.9300  221.9530 C.2   115  ASN115      0.2627
     34  OD1      233.3500  216.2670  221.1690 O.2   115  ASN115     -0.2716
     35  ND2      232.4480  216.3350  223.2120 N.am  115  ASN115     -0.0877
     36  N        228.9000  214.5260  219.4850 N.am  116  VAL116     -0.1980
     37  CA       227.7740  213.7040  219.0450 C.3   116  VAL116      0.1595
     38  C        227.9880  213.2390  217.6110 C.2   116  VAL116      0.2287
     39  O        227.6760  212.0890  217.2740 O.2   116  VAL116     -0.2864
     40  CB       226.4450  214.4640  219.2230 C.3   116  VAL116      0.0276
     41  CG1      225.2790  213.6830  218.6690 C.3   116  VAL116      0.0022
     42  CG2      226.1840  214.6940  220.6800 C.3   116  VAL116      0.0022
     43  N        230.2850  210.2880  217.7910 N.3   119  ILE119     -0.1245
     44  CA       229.5190  209.1080  218.1960 C.3   119  ILE119      0.1561
     45  C        228.7570  208.5210  217.0080 C.2   119  ILE119      0.2260
     46  O        228.7300  207.2960  216.8120 O.2   119  ILE119     -0.2867
     47  CB       228.5830  209.4690  219.3630 C.3   119  ILE119      0.0252
     48  CG1      229.4000  209.7540  220.6180 C.3   119  ILE119      0.0019
     49  CG2      227.5940  208.3650  219.6480 C.3   119  ILE119      0.0019
     50  CD1      228.6380  210.4910  221.6830 C.3   119  ILE119      0.0001
     51  N        229.1450  204.7640  215.2540 N.3   123  LEU123     -0.1245
     52  CA       228.0020  203.8880  215.0250 C.3   123  LEU123      0.1561
     53  C        227.8140  203.5670  213.5490 C.2   123  LEU123      0.2260
     54  O        227.3970  202.4560  213.2110 O.2   123  LEU123     -0.2867
     55  CB       226.7410  204.5190  215.6020 C.3   123  LEU123      0.0270
     56  CG       226.7230  204.6050  217.1260 C.3   123  LEU123      0.0019
     57  CD1      225.5010  205.3370  217.5940 C.3   123  LEU123      0.0001
     58  CD2      226.7520  203.2200  217.7090 C.3   123  LEU123      0.0001
     59  N        219.4280  203.5610  216.5010 N.3   189  ILE189     -0.1245
     60  CA       220.2790  204.2910  217.4350 C.3   189  ILE189      0.1561
     61  C        220.9640  205.4490  216.7230 C.2   189  ILE189      0.2260
     62  O        221.0910  206.5440  217.2870 O.2   189  ILE189     -0.2867
     63  CB       221.2980  203.3410  218.0930 C.3   189  ILE189      0.0252
     64  CG1      220.5810  202.2530  218.8920 C.3   189  ILE189      0.0019
     65  CG2      222.2240  204.0890  219.0180 C.3   189  ILE189      0.0019
     66  CD1      221.5210  201.3640  219.6820 C.3   189  ILE189      0.0001
     67  N        218.3820  208.2110  216.3840 N.3   192  ALA192     -0.1231
     68  CA       218.2680  208.9350  217.6480 C.3   192  ALA192      0.1694
     69  C        219.4540  209.8710  217.8660 C.2   192  ALA192      0.2591
     70  O        219.2800  211.0210  218.2980 O.2   192  ALA192     -0.2718
     71  CB       218.1410  207.9490  218.8040 C.3   192  ALA192      0.0304
     72  N        220.6650  209.4110  217.5450 N.am  193  MET193     -0.1979
     73  CA       221.8340  210.2730  217.6750 C.3   193  MET193      0.1605
     74  C        221.8270  211.3980  216.6500 C.2   193  MET193      0.2287
     75  O        222.4080  212.4540  216.8940 O.2   193  MET193     -0.2864
     76  CB       223.1100  209.4470  217.5540 C.3   193  MET193      0.0413
     77  CG       223.3280  208.4920  218.6920 C.3   193  MET193      0.0598
     78  SD       223.3300  209.3050  220.2900 S.3   193  MET193     -0.1393
     79  CE       222.4110  208.1070  221.2530 C.3   193  MET193      0.0692
     80  N        219.0000  212.9060  215.7650 N.3   195  ILE195     -0.1231
     81  CA       218.1040  213.8620  216.4150 C.3   195  ILE195      0.1692
     82  C        218.8400  214.6450  217.5010 C.2   195  ILE195      0.2591
     83  O        218.6630  215.8630  217.6390 O.2   195  ILE195     -0.2718
     84  CB       216.8670  213.1300  216.9620 C.3   195  ILE195      0.0266
     85  CG1      216.0520  212.5760  215.8010 C.3   195  ILE195      0.0019
     86  CG2      216.0040  214.0440  217.7880 C.3   195  ILE195      0.0020
     87  CD1      214.8060  211.8680  216.2230 C.3   195  ILE195      0.0001
     88  N        219.7320  213.9800  218.2380 N.am  196  MET196     -0.1979
     89  CA       220.5090  214.6980  219.2500 C.3   196  MET196      0.1605
     90  C        221.5600  215.6220  218.6310 C.2   196  MET196      0.2287
     91  O        221.8430  216.6960  219.1810 O.2   196  MET196     -0.2864
     92  CB       221.1580  213.6990  220.2000 C.3   196  MET196      0.0413
     93  CG       220.1470  212.9110  220.9820 C.3   196  MET196      0.0598
     94  SD       220.8320  211.4950  221.8400 S.3   196  MET196     -0.1393
     95  CE       221.9490  212.2910  222.9800 C.3   196  MET196      0.0692
     96  N        219.6040  218.6590  217.8200 N.3   199  MET199     -0.1245
     97  CA       219.3980  219.4800  219.0150 C.3   199  MET199      0.1570
     98  C        220.6290  220.3270  219.3260 C.2   199  MET199      0.2261
     99  O        220.5290  221.5430  219.5750 O.2   199  MET199     -0.2867
    100  CB       219.0780  218.6020  220.2230 C.3   199  MET199      0.0387
    101  CG       217.8080  217.7990  220.1580 C.3   199  MET199      0.0595
    102  SD       217.5880  216.7730  221.6140 S.3   199  MET199     -0.1393
    103  CE       217.9100  217.9940  222.8690 C.3   199  MET199      0.0692
@<TRIPOS>BOND
     1    54    53    2
     2    53    52    1
     3    52    51    1
     4    52    55    1
     5    55    56    1
     6    80    81    1
     7    85    87    1
     8    85    84    1
     9    67    68    1
    10    81    84    1
    11    81    82    1
    12    59    60    1
    13    74    75    2
    14    74    73    1
    15    61    62    2
    16    61    60    1
    17    46    45    2
    18    84    86    1
    19    45    44    1
    20    56    57    1
    21    56    58    1
    22    39    38    2
    23    60    63    1
    24    82    83    2
    25    82    88   am
    26    72    73    1
    27    72    69   am
    28    76    73    1
    29    76    77    1
    30    38    37    1
    31    68    69    1
    32    68    71    1
    33    43    44    1
    34    96    97    1
    35    69    70    2
    36    63    64    1
    37    63    65    1
    38    44    47    1
    39    88    89    1
    40    90    91    2
    41    90    89    1
    42    41    40    1
    43    77    78    1
    44    64    66    1
    45    97    98    1
    46    97   100    1
    47    37    40    1
    48    37    36    1
    49    40    42    1
    50    89    92    1
    51    98    99    2
    52    28    29    1
    53    47    49    1
    54    47    48    1
    55    36    30   am
    56    31    30    2
    57    30    29    1
    58    13    12    1
    59    13     7    1
    60    29    32    1
    61    12    11    1
    62   101   100    1
    63   101   102    1
    64    92    93    1
    65    78    79    1
    66     1     2    1
    67    11     8    1
    68    48    50    1
    69    24    23    2
    70    14    15    1
    71    23    22    1
    72     9     8    1
    73     9    10    2
    74    17    16    2
    75    93    94    1
    76     7     8    1
    77     7     3   am
    78    15    16    1
    79    15    18    1
    80    34    33    2
    81    16    21   am
    82    32    33    1
    83   102   103    1
    84     2     3    1
    85     2     5    1
    86    94    95    1
    87    21    22    1
    88     3     4    2
    89     6     5    1
    90    33    35   am
    91    20    18    1
    92    22    25    1
    93    18    19    1
    94    27    25    1
    95    26    25    1
