@<TRIPOS>MOLECULE
tmp/6hu9V01.pdb
 103 100 0 0 0
SMALL
GASTEIGER

@<TRIPOS>ATOM
      1  N        247.1670  235.4040  152.3010 N.3    38  LEU38      -0.1245
      2  CA       247.3460  236.8450  152.1560 C.3    38  LEU38       0.1561
      3  C        246.0180  237.5840  152.2790 C.2    38  LEU38       0.2260
      4  O        245.9200  238.5820  153.0010 O.2    38  LEU38      -0.2867
      5  CB       248.0140  237.1320  150.8110 C.3    38  LEU38       0.0270
      6  CG       248.5130  238.5130  150.3860 C.3    38  LEU38       0.0019
      7  CD1      247.4780  239.2920  149.6050 C.3    38  LEU38       0.0001
      8  CD2      248.9910  239.3090  151.5780 C.3    38  LEU38       0.0001
      9  N        245.0110  239.9970  155.4160 N.3    42  MET42      -0.1245
     10  CA       244.6840  241.3900  155.1620 C.3    42  MET42       0.1570
     11  C        243.2990  241.7300  155.6800 C.2    42  MET42       0.2261
     12  O        243.1310  242.7170  156.3970 O.2    42  MET42      -0.2867
     13  CB       244.7880  241.6820  153.6740 C.3    42  MET42       0.0387
     14  CG       246.1170  242.2290  153.2760 C.3    42  MET42       0.0595
     15  SD       246.4490  243.7060  154.2250 S.3    42  MET42      -0.1393
     16  CE       247.9790  244.1910  153.4760 C.3    42  MET42       0.0692
     17  N        242.7780  244.0770  158.9620 N.3    46  ILE46      -0.1245
     18  CA       242.1030  245.3110  158.6040 C.3    46  ILE46       0.1561
     19  C        240.8790  245.5190  159.4760 C.2    46  ILE46       0.2260
     20  O        240.6930  246.6080  160.0270 O.2    46  ILE46      -0.2867
     21  CB       241.7640  245.3090  157.1060 C.3    46  ILE46       0.0252
     22  CG1      242.9180  245.8870  156.3090 C.3    46  ILE46       0.0019
     23  CG2      240.6120  246.1760  156.8180 C.3    46  ILE46       0.0019
     24  CD1      242.7790  245.6300  154.8470 C.3    46  ILE46       0.0001
     25  N        242.6650  258.6620  150.6000 N.3    60  ILE60      -0.1245
     26  CA       243.4480  257.6360  149.9300 C.3    60  ILE60       0.1561
     27  C        242.5540  257.0650  148.8380 C.2    60  ILE60       0.2260
     28  O        241.7140  256.2020  149.0960 O.2    60  ILE60      -0.2867
     29  CB       243.9220  256.5630  150.9090 C.3    60  ILE60       0.0252
     30  CG1      244.7080  257.2120  152.0430 C.3    60  ILE60       0.0019
     31  CG2      244.7770  255.5550  150.1970 C.3    60  ILE60       0.0019
     32  CD1      245.2860  256.2360  153.0150 C.3    60  ILE60       0.0001
     33  N        243.4550  257.0380  144.7380 N.3    62  HIS62      -0.1226
     34  CA       243.9170  256.4480  143.4720 C.3    62  HIS62       0.1752
     35  C        245.0620  255.4530  143.6570 C.2    62  HIS62       0.2597
     36  O        244.8960  254.2630  143.3790 O.2    62  HIS62      -0.2718
     37  CB       244.2900  257.5480  142.4760 C.3    62  HIS62       0.0759
     38  CG       244.6770  258.8430  143.1090 C.ar   62  HIS62       0.0818
     39  ND1      245.8000  258.9820  143.8940 N.ar   62  HIS62      -0.2268
     40  CD2      244.0960  260.0650  143.0610 C.ar   62  HIS62       0.1154
     41  CE1      245.8920  260.2330  144.3090 C.ar   62  HIS62       0.1986
     42  NE2      244.8700  260.9110  143.8190 N.ar   62  HIS62      -0.2212
     43  N        246.2180  255.9230  144.1340 N.am   63  GLY63      -0.1942
     44  CA       247.3620  255.0610  144.4170 C.3    63  GLY63       0.2014
     45  C        247.9140  254.1720  143.3100 C.2    63  GLY63       0.2639
     46  O        247.7470  252.9530  143.3800 O.2    63  GLY63      -0.2714
     47  N        248.5560  254.7500  142.2880 N.am   64  GLN64      -0.1963
     48  CA       248.8790  254.0070  141.0680 C.3    64  GLN64       0.1733
     49  C        249.9430  252.9300  141.2570 C.2    64  GLN64       0.2617
     50  O        249.9630  251.9620  140.4810 O.2    64  GLN64      -0.2715
     51  CB       249.3350  254.9720  139.9730 C.3    64  GLN64       0.0408
     52  CG       248.2740  255.9780  139.5560 C.3    64  GLN64       0.0908
     53  CD       248.6170  256.6910  138.2600 C.2    64  GLN64       0.2608
     54  OE1      249.6470  256.4220  137.6410 O.2    64  GLN64      -0.2717
     55  NE2      247.7500  257.6060  137.8430 N.am   64  GLN64      -0.0878
     56  N        250.8100  253.0730  142.2640 N.am   65  THR65      -0.1937
     57  CA       251.9140  252.1360  142.4590 C.3    65  THR65       0.2028
     58  C        251.4100  250.7380  142.7910 C.2    65  THR65       0.2642
     59  O        251.7240  249.7660  142.0890 O.2    65  THR65      -0.2714
     60  CB       252.8290  252.6440  143.5650 C.3    65  THR65       0.1808
     61  OG1      253.4170  253.8860  143.1620 O.3    65  THR65      -0.2208
     62  CG2      253.9190  251.6310  143.8600 C.3    65  THR65       0.0379
     63  N        250.5920  250.6230  143.8380 N.am   66  ILE66      -0.1977
     64  CA       250.0170  249.3330  144.1780 C.3    66  ILE66       0.1596
     65  C        249.0130  248.8650  143.1510 C.2    66  ILE66       0.2287
     66  O        248.7660  247.6630  143.0610 O.2    66  ILE66      -0.2864
     67  CB       249.3350  249.3650  145.5440 C.3    66  ILE66       0.0276
     68  CG1      248.5140  250.6370  145.6670 C.3    66  ILE66       0.0022
     69  CG2      250.3470  249.2500  146.6340 C.3    66  ILE66       0.0022
     70  CD1      247.5970  250.6120  146.8300 C.3    66  ILE66       0.0001
     71  N        251.1380  247.1860  140.6710 N.3    69  ILE69      -0.1231
     72  CA       251.7300  246.0280  141.3380 C.3    69  ILE69       0.1692
     73  C        250.7150  244.8920  141.4470 C.2    69  ILE69       0.2592
     74  O        251.0170  243.7390  141.1160 O.2    69  ILE69      -0.2718
     75  CB       252.2960  246.4320  142.7110 C.3    69  ILE69       0.0266
     76  CG1      253.6680  247.0740  142.5410 C.3    69  ILE69       0.0019
     77  CG2      252.4150  245.2380  143.6320 C.3    69  ILE69       0.0020
     78  CD1      254.3100  247.4900  143.8340 C.3    69  ILE69       0.0001
     79  N        249.4810  245.2020  141.8510 N.am   70  TRP70      -0.1976
     80  CA       248.4940  244.1390  141.9870 C.3    70  TRP70       0.1640
     81  C        247.8120  243.8410  140.6620 C.2    70  TRP70       0.2290
     82  O        246.8750  243.0400  140.6210 O.2    70  TRP70      -0.2864
     83  CB       247.4800  244.4720  143.1020 C.3    70  TRP70       0.0576
     84  CG       246.4110  245.5790  142.9220 C.ar   70  TRP70       0.0006
     85  CD1      245.8290  246.0200  141.7680 C.ar   70  TRP70       0.0946
     86  CD2      245.7890  246.3310  143.9740 C.ar   70  TRP70       0.0152
     87  NE1      244.9120  246.9930  142.0310 N.ar   70  TRP70      -0.2442
     88  CE2      244.8680  247.2060  143.3790 C.ar   70  TRP70       0.0810
     89  CE3      245.9350  246.3570  145.3590 C.ar   70  TRP70       0.0012
     90  CZ2      244.0960  248.0900  144.1180 C.ar   70  TRP70       0.0191
     91  CZ3      245.1700  247.2320  146.0870 C.ar   70  TRP70       0.0001
     92  CH2      244.2630  248.0870  145.4690 C.ar   70  TRP70       0.0015
     93  N        250.9280  241.2870  139.5290 N.3    73  PHE73      -0.1241
     94  CA       251.1930  240.1570  140.4170 C.3    73  PHE73       0.1605
     95  C        250.3290  238.9130  140.1570 C.2    73  PHE73       0.2264
     96  O        250.8930  237.8030  140.1170 O.2    73  PHE73      -0.2867
     97  CB       251.0860  240.6270  141.8740 C.3    73  PHE73       0.0534
     98  CG       250.7140  239.5500  142.8420 C.ar   73  PHE73      -0.0203
     99  CD1      251.6360  238.5970  143.2360 C.ar   73  PHE73      -0.0042
    100  CD2      249.4460  239.5140  143.3920 C.ar   73  PHE73      -0.0042
    101  CE1      251.2860  237.6130  144.1330 C.ar   73  PHE73      -0.0003
    102  CE2      249.0950  238.5300  144.2880 C.ar   73  PHE73      -0.0003
    103  CZ       250.0130  237.5790  144.6560 C.ar   73  PHE73      -0.0000
@<TRIPOS>BOND
     1    54    53    2
     2    55    53   am
     3    53    52    1
     4    93    94    1
     5    52    51    1
     6    51    48    1
     7    96    95    2
     8    95    94    1
     9    94    97    1
    10    50    49    2
    11    82    81    2
    12    81    80    1
    13    71    72    1
    14    48    49    1
    15    48    47    1
    16    74    73    2
    17    49    56   am
    18    72    73    1
    19    72    75    1
    20    73    79   am
    21    85    87   ar
    22    85    84   ar
    23    79    80    1
    24    97    98    1
    25    80    83    1
    26    87    88   ar
    27    59    58    2
    28    56    57    1
    29    47    45   am
    30    57    58    1
    31    57    60    1
    32    37    38    1
    33    37    34    1
    34    76    75    1
    35    76    78    1
    36    75    77    1
    37    58    63   am
    38    98    99   ar
    39    98   100   ar
    40    84    83    1
    41    84    86   ar
    42    40    38   ar
    43    40    42   ar
    44    66    65    2
    45    38    39   ar
    46    65    64    1
    47    61    60    1
    48    99   101   ar
    49    45    46    2
    50    45    44    1
    51    36    35    2
    52    88    86   ar
    53    88    90   ar
    54   100   102   ar
    55    34    35    1
    56    34    33    1
    57    60    62    1
    58    35    43   am
    59    42    41   ar
    60    63    64    1
    61    39    41   ar
    62    86    89   ar
    63    90    92   ar
    64   101   103   ar
    65    43    44    1
    66    64    67    1
    67   102   103   ar
    68    89    91   ar
    69    92    91   ar
    70    67    68    1
    71    67    69    1
    72    68    70    1
    73    27    28    2
    74    27    26    1
    75     7     6    1
    76    26    25    1
    77    26    29    1
    78    31    29    1
    79     6     5    1
    80     6     8    1
    81     5     2    1
    82    29    30    1
    83    30    32    1
    84     2     3    1
    85     2     1    1
    86     3     4    2
    87    14    13    1
    88    14    15    1
    89    16    15    1
    90    13    10    1
    91    24    22    1
    92    10     9    1
    93    10    11    1
    94    11    12    2
    95    22    21    1
    96    23    21    1
    97    21    18    1
    98    18    17    1
    99    18    19    1
   100    19    20    2
