@<TRIPOS>MOLECULE
tmp/6hu9C09.pdb
 248 248 0 0 0
SMALL
GASTEIGER

@<TRIPOS>ATOM
      1  N        227.9390  227.8490  202.2280 N.3    27  ASN27      -0.1240
      2  CA       228.0510  227.3690  200.8640 C.3    27  ASN27       0.1653
      3  C        227.5650  225.9320  200.7630 C.2    27  ASN27       0.2266
      4  O        226.9900  225.3780  201.7020 O.2    27  ASN27      -0.2867
      5  CB       229.4790  227.5370  200.3440 C.3    27  ASN27       0.1155
      6  CG       230.5290  226.9630  201.2590 C.2    27  ASN27       0.2627
      7  OD1      230.3440  225.9280  201.8850 O.2    27  ASN27      -0.2716
      8  ND2      231.6650  227.6290  201.3180 N.am   27  ASN27      -0.0877
      9  N        229.0470  223.2180  200.9500 N.3    29  TRP29      -0.1241
     10  CA       229.5300  222.2350  201.9060 C.3    29  TRP29       0.1605
     11  C        228.5600  222.0440  203.0610 C.2    29  TRP29       0.2264
     12  O        228.6250  221.0220  203.7480 O.2    29  TRP29      -0.2867
     13  CB       230.9080  222.6400  202.4260 C.3    29  TRP29       0.0550
     14  CG       231.9700  222.6060  201.3750 C.ar   29  TRP29       0.0003
     15  CD1      232.6570  223.6640  200.8770 C.ar   29  TRP29       0.0946
     16  CD2      232.4710  221.4500  200.6980 C.ar   29  TRP29       0.0152
     17  NE1      233.5520  223.2450  199.9250 N.ar   29  TRP29      -0.2442
     18  CE2      233.4530  221.8870  199.7950 C.ar   29  TRP29       0.0810
     19  CE3      232.1780  220.0870  200.7610 C.ar   29  TRP29       0.0012
     20  CZ2      234.1490  221.0130  198.9740 C.ar   29  TRP29       0.0191
     21  CZ3      232.8610  219.2250  199.9370 C.ar   29  TRP29       0.0001
     22  CH2      233.8350  219.6890  199.0570 C.ar   29  TRP29       0.0015
     23  N        232.5070  211.6870  205.1160 N.3    94  PHE94      -0.1227
     24  CA       233.8770  212.1850  205.1360 C.3    94  PHE94       0.1736
     25  C        233.9320  213.6420  204.7070 C.2    94  PHE94       0.2595
     26  O        234.7180  214.4210  205.2540 O.2    94  PHE94      -0.2718
     27  CB       234.7690  211.3270  204.2490 C.3    94  PHE94       0.0547
     28  CG       235.1580  210.0260  204.8710 C.ar   94  PHE94      -0.0202
     29  CD1      235.3710  209.9290  206.2320 C.ar   94  PHE94      -0.0042
     30  CD2      235.3080  208.8980  204.0930 C.ar   94  PHE94      -0.0042
     31  CE1      235.7200  208.7290  206.8000 C.ar   94  PHE94      -0.0003
     32  CE2      235.6540  207.7010  204.6580 C.ar   94  PHE94      -0.0003
     33  CZ       235.8590  207.6160  206.0110 C.ar   94  PHE94      -0.0000
     34  N        233.0620  214.0400  203.7730 N.am   95  MET95      -0.1979
     35  CA       232.9900  215.4530  203.4060 C.3    95  MET95       0.1605
     36  C        232.4290  216.3080  204.5440 C.2    95  MET95       0.2287
     37  O        232.8770  217.4390  204.7510 O.2    95  MET95      -0.2864
     38  CB       232.1580  215.6180  202.1400 C.3    95  MET95       0.0413
     39  CG       232.7820  214.9930  200.9100 C.3    95  MET95       0.0598
     40  SD       231.5960  214.8710  199.5670 S.3    95  MET95      -0.1393
     41  CE       232.6960  214.8400  198.1640 C.3    95  MET95       0.0692
     42  N        232.6680  215.6250  207.8940 N.3    97  MET97      -0.1230
     43  CA       233.7180  215.7390  208.9040 C.3    97  MET97       0.1702
     44  C        234.8510  216.6390  208.4330 C.2    97  MET97       0.2592
     45  O        235.4130  217.3990  209.2280 O.2    97  MET97      -0.2718
     46  CB       234.2730  214.3660  209.2550 C.3    97  MET97       0.0401
     47  CG       233.2550  213.3930  209.7380 C.3    97  MET97       0.0596
     48  SD       233.9020  211.7260  209.6620 S.3    97  MET97      -0.1393
     49  CE       235.0250  211.7850  211.0430 C.3    97  MET97       0.0692
     50  N        235.1930  216.5860  207.1450 N.am   98  ALA98      -0.1966
     51  CA       236.2570  217.4420  206.6420 C.3    98  ALA98       0.1728
     52  C        235.8180  218.8960  206.5730 C.2    98  ALA98       0.2616
     53  O        236.6440  219.8020  206.7060 O.2    98  ALA98      -0.2715
     54  CB       236.7150  216.9550  205.2770 C.3    98  ALA98       0.0334
     55  N        234.5250  219.1440  206.3800 N.am   99  LYS99      -0.1977
     56  CA       234.0310  220.5110  206.4570 C.3    99  LYS99       0.1596
     57  C        234.1110  221.0390  207.8790 C.2    99  LYS99       0.2287
     58  O        234.4980  222.1940  208.1020 O.2    99  LYS99      -0.2864
     59  CB       232.5970  220.5760  205.9570 C.3    99  LYS99       0.0298
     60  CG       231.9830  221.9380  206.1150 C.3    99  LYS99       0.0038
     61  CD       230.4990  221.8530  206.2940 C.3    99  LYS99       0.0206
     62  CE       230.1220  221.5880  207.7190 C.3    99  LYS99       0.1093
     63  NZ       228.6550  221.4200  207.7950 N.3    99  LYS99      -0.1314
     64  N        236.2530  220.0720  209.9840 N.3   101  LEU101     -0.1231
     65  CA       237.6730  220.2020  210.2690 C.3   101  LEU101      0.1693
     66  C        238.2570  221.4560  209.6260 C.2   101  LEU101      0.2592
     67  O        239.1120  222.1200  210.2190 O.2   101  LEU101     -0.2718
     68  CB       238.3790  218.9370  209.7900 C.3   101  LEU101      0.0284
     69  CG       239.7920  218.5510  210.2030 C.3   101  LEU101      0.0019
     70  CD1      240.1770  219.1820  211.5100 C.3   101  LEU101      0.0001
     71  CD2      239.8560  217.0460  210.3100 C.3   101  LEU101      0.0001
     72  N        237.8070  221.8020  208.4190 N.am  102  TYR102     -0.1962
     73  CA       238.2980  223.0030  207.7510 C.3   102  TYR102      0.1771
     74  C        237.7540  224.2620  208.4070 C.2   102  TYR102      0.2619
     75  O        238.5210  225.0990  208.8890 O.2   102  TYR102     -0.2715
     76  CB       237.9180  222.9750  206.2720 C.3   102  TYR102      0.0574
     77  CG       238.5340  224.0570  205.4080 C.ar  102  TYR102     -0.0198
     78  CD1      239.7420  223.8530  204.7740 C.ar  102  TYR102     -0.0009
     79  CD2      237.8930  225.2600  205.2000 C.ar  102  TYR102     -0.0009
     80  CE1      240.3010  224.8150  203.9700 C.ar  102  TYR102      0.0417
     81  CE2      238.4450  226.2310  204.4060 C.ar  102  TYR102      0.0417
     82  CZ       239.6490  226.0050  203.7960 C.ar  102  TYR102      0.1957
     83  OH       240.1910  226.9810  203.0030 O.3   102  TYR102     -0.2866
     84  N        236.4360  224.4070  208.4500 N.am  103  TYR103     -0.1974
     85  CA       235.8290  225.6470  208.9110 C.3   103  TYR103      0.1639
     86  C        235.7670  225.7620  210.4190 C.2   103  TYR103      0.2290
     87  O        235.2200  226.7470  210.9170 O.2   103  TYR103     -0.2864
     88  CB       234.4330  225.7860  208.3180 C.3   103  TYR103      0.0560
     89  CG       234.4770  226.0130  206.8400 C.ar  103  TYR103     -0.0198
     90  CD1      235.0630  227.1490  206.3250 C.ar  103  TYR103     -0.0009
     91  CD2      233.9640  225.0870  205.9570 C.ar  103  TYR103     -0.0009
     92  CE1      235.1180  227.3620  204.9790 C.ar  103  TYR103      0.0417
     93  CE2      234.0130  225.2990  204.6020 C.ar  103  TYR103      0.0417
     94  CZ       234.5820  226.4410  204.1220 C.ar  103  TYR103      0.1957
     95  OH       234.6410  226.6650  202.7730 O.3   103  TYR103     -0.2866
     96  N        229.7130  208.7770  213.9340 N.3   121  PHE121     -0.1241
     97  CA       230.7180  208.1900  213.0490 C.3   121  PHE121      0.1605
     98  C        231.1180  206.7920  213.5030 C.2   121  PHE121      0.2264
     99  O        231.2730  205.8850  212.6720 O.2   121  PHE121     -0.2867
    100  CB       231.9380  209.0990  212.9800 C.3   121  PHE121      0.0534
    101  CG       232.9920  208.6280  212.0290 C.ar  121  PHE121     -0.0203
    102  CD1      232.6990  208.4250  210.6940 C.ar  121  PHE121     -0.0042
    103  CD2      234.2820  208.4080  212.4660 C.ar  121  PHE121     -0.0042
    104  CE1      233.6700  208.0020  209.8140 C.ar  121  PHE121     -0.0003
    105  CE2      235.2560  207.9850  211.5900 C.ar  121  PHE121     -0.0003
    106  CZ       234.9480  207.7850  210.2640 C.ar  121  PHE121     -0.0000
    107  N        231.3830  230.0800  206.4090 N.3   209  PRO209     -0.2102
    108  CA       232.7910  229.9600  206.0070 C.3   209  PRO209      0.1504
    109  C        233.6880  231.0770  206.4760 C.2   209  PRO209      0.2575
    110  O        234.9080  230.8930  206.4760 O.2   209  PRO209     -0.2718
    111  CB       232.7250  229.9340  204.4760 C.3   209  PRO209      0.0282
    112  CG       231.3930  230.2780  204.1290 C.3   209  PRO209      0.0208
    113  CD       230.5200  229.8780  205.2390 C.3   209  PRO209      0.0893
    114  N        233.1500  232.2150  206.8870 N.am  210  LEU210     -0.1980
    115  CA       234.0380  233.2540  207.3740 C.3   210  LEU210      0.1596
    116  C        234.4990  232.9800  208.7970 C.2   210  LEU210      0.2287
    117  O        235.6330  233.3150  209.1500 O.2   210  LEU210     -0.2864
    118  CB       233.3460  234.6080  207.2750 C.3   210  LEU210      0.0297
    119  CG       232.8060  234.9160  205.8820 C.3   210  LEU210      0.0022
    120  CD1      232.2290  236.2930  205.8720 C.3   210  LEU210      0.0001
    121  CD2      233.8860  234.8010  204.8330 C.3   210  LEU210      0.0001
    122  N        241.4380  203.1750  208.5240 N.3   278  PHE278     -0.1241
    123  CA       241.5530  202.6770  209.8850 C.3   278  PHE278      0.1605
    124  C        242.1420  201.2780  209.9090 C.2   278  PHE278      0.2264
    125  O        242.8170  200.9080  210.8740 O.2   278  PHE278     -0.2867
    126  CB       240.1900  202.7380  210.5540 C.3   278  PHE278      0.0534
    127  CG       239.4940  204.0390  210.3260 C.ar  278  PHE278     -0.0203
    128  CD1      239.9300  205.1870  210.9610 C.ar  278  PHE278     -0.0042
    129  CD2      238.4380  204.1280  209.4390 C.ar  278  PHE278     -0.0042
    130  CE1      239.3110  206.3940  210.7390 C.ar  278  PHE278     -0.0003
    131  CE2      237.8150  205.3310  209.2150 C.ar  278  PHE278     -0.0003
    132  CZ       238.2520  206.4650  209.8660 C.ar  278  PHE278     -0.0000
    133  N        239.4360  212.7200  217.2470 N.3   302  LEU302     -0.1245
    134  CA       238.6550  213.8850  216.8530 C.3   302  LEU302      0.1561
    135  C        238.2010  214.6870  218.0640 C.2   302  LEU302      0.2260
    136  O        237.7870  215.8430  217.9300 O.2   302  LEU302     -0.2867
    137  CB       237.4430  213.4530  216.0350 C.3   302  LEU302      0.0270
    138  CG       237.5050  213.1880  214.5310 C.3   302  LEU302      0.0019
    139  CD1      238.8970  213.3370  213.9520 C.3   302  LEU302      0.0001
    140  CD2      236.9690  211.8130  214.2560 C.3   302  LEU302      0.0001
    141  N        239.7850  229.6090  206.6300 N.3   317  THR317     -0.1203
    142  CA       239.4330  230.4300  205.4770 C.3   317  THR317      0.1994
    143  C        240.4780  231.5010  205.2200 C.2   317  THR317      0.2617
    144  O        240.7780  231.8220  204.0660 O.2   317  THR317     -0.2717
    145  CB       238.0790  231.0850  205.7100 C.3   317  THR317      0.1784
    146  OG1      237.1940  230.1420  206.3240 O.3   317  THR317     -0.2211
    147  CG2      237.4810  231.5400  204.4140 C.3   317  THR317      0.0376
    148  N        241.0470  232.0570  206.2800 N.am  318  PHE318     -0.1975
    149  CA       242.0400  233.1080  206.1570 C.3   318  PHE318      0.1639
    150  C        243.3680  232.6930  206.7780 C.2   318  PHE318      0.2290
    151  O        244.0330  233.5000  207.4160 O.2   318  PHE318     -0.2864
    152  CB       241.5300  234.4010  206.7910 C.3   318  PHE318      0.0560
    153  CG       240.1670  234.8260  206.3140 C.ar  318  PHE318     -0.0200
    154  CD1      239.9850  235.3180  205.0360 C.ar  318  PHE318     -0.0042
    155  CD2      239.0730  234.7620  207.1540 C.ar  318  PHE318     -0.0042
    156  CE1      238.7340  235.7110  204.6000 C.ar  318  PHE318     -0.0003
    157  CE2      237.8260  235.1710  206.7220 C.ar  318  PHE318     -0.0003
    158  CZ       237.6610  235.6380  205.4430 C.ar  318  PHE318     -0.0000
    159  N        245.4460  225.9950  205.8330 N.3   323  LYS323     -0.1245
    160  CA       244.9860  225.4520  204.5560 C.3   323  LYS323      0.1561
    161  C        245.9190  224.3630  204.0440 C.2   323  LYS323      0.2260
    162  O        245.4760  223.2560  203.6900 O.2   323  LYS323     -0.2867
    163  CB       244.9000  226.5670  203.5220 C.3   323  LYS323      0.0271
    164  CG       243.6280  227.3600  203.5040 C.3   323  LYS323      0.0035
    165  CD       243.8210  228.5960  202.6390 C.3   323  LYS323      0.0206
    166  CE       242.5340  229.3570  202.4360 C.3   323  LYS323      0.1093
    167  NZ       242.8000  230.7240  201.9090 N.3   323  LYS323     -0.1314
    168  N        245.8800  221.2600  206.3660 N.3   326  PHE326     -0.1227
    169  CA       244.6220  220.5350  206.2230 C.3   326  PHE326      0.1736
    170  C        244.6210  219.6880  204.9620 C.2   326  PHE326      0.2595
    171  O        244.1490  218.5440  204.9780 O.2   326  PHE326     -0.2718
    172  CB       243.4480  221.5130  206.2090 C.3   326  PHE326      0.0547
    173  CG       242.1180  220.8710  205.9020 C.ar  326  PHE326     -0.0202
    174  CD1      241.4010  220.2350  206.8930 C.ar  326  PHE326     -0.0042
    175  CD2      241.5690  220.9380  204.6320 C.ar  326  PHE326     -0.0042
    176  CE1      240.1790  219.6560  206.6160 C.ar  326  PHE326     -0.0003
    177  CE2      240.3540  220.3610  204.3550 C.ar  326  PHE326     -0.0003
    178  CZ       239.6600  219.7210  205.3440 C.ar  326  PHE326     -0.0000
    179  N        245.1530  220.2140  203.8600 N.am  327  PHE327     -0.1976
    180  CA       245.1410  219.3860  202.6590 C.3   327  PHE327      0.1639
    181  C        246.2450  218.3390  202.6520 C.2   327  PHE327      0.2290
    182  O        246.0630  217.2790  202.0340 O.2   327  PHE327     -0.2864
    183  CB       245.1810  220.2630  201.4160 C.3   327  PHE327      0.0560
    184  CG       243.8690  220.9130  201.1330 C.ar  327  PHE327     -0.0200
    185  CD1      242.7450  220.1420  200.9230 C.ar  327  PHE327     -0.0042
    186  CD2      243.7420  222.2820  201.1240 C.ar  327  PHE327     -0.0042
    187  CE1      241.5250  220.7250  200.6880 C.ar  327  PHE327     -0.0003
    188  CE2      242.5190  222.8680  200.8880 C.ar  327  PHE327     -0.0003
    189  CZ       241.4120  222.0860  200.6700 C.ar  327  PHE327     -0.0000
    190  N        246.7650  216.7470  205.3850 N.3   329  PHE329     -0.1227
    191  CA       246.0440  215.7410  206.1610 C.3   329  PHE329      0.1736
    192  C        245.0520  214.9640  205.3040 C.2   329  PHE329      0.2595
    193  O        244.9250  213.7440  205.4530 O.2   329  PHE329     -0.2718
    194  CB       245.3150  216.3970  207.3260 C.3   329  PHE329      0.0547
    195  CG       244.3720  215.4780  208.0360 C.ar  329  PHE329     -0.0202
    196  CD1      244.8570  214.4720  208.8420 C.ar  329  PHE329     -0.0042
    197  CD2      243.0020  215.6260  207.9100 C.ar  329  PHE329     -0.0042
    198  CE1      244.0000  213.6230  209.4960 C.ar  329  PHE329     -0.0003
    199  CE2      242.1410  214.7750  208.5670 C.ar  329  PHE329     -0.0003
    200  CZ       242.6430  213.7710  209.3590 C.ar  329  PHE329     -0.0000
    201  N        244.3240  215.6590  204.4270 N.am  330  VAL330     -0.1966
    202  CA       243.3090  215.0070  203.5990 C.3   330  VAL330      0.1727
    203  C        243.9540  214.0260  202.6280 C.2   330  VAL330      0.2616
    204  O        243.5280  212.8660  202.5040 O.2   330  VAL330     -0.2715
    205  CB       242.4660  216.0610  202.8610 C.3   330  VAL330      0.0290
    206  CG1      241.6180  215.4160  201.7960 C.3   330  VAL330      0.0023
    207  CG2      241.5740  216.7630  203.8340 C.3   330  VAL330      0.0023
    208  N        245.0200  214.4500  201.9580 N.am  331  PHE331     -0.1974
    209  CA       245.6570  213.5060  201.0580 C.3   331  PHE331      0.1639
    210  C        246.5070  212.4810  201.7970 C.2   331  PHE331      0.2290
    211  O        246.7790  211.4150  201.2400 O.2   331  PHE331     -0.2864
    212  CB       246.4530  214.2620  200.0040 C.3   331  PHE331      0.0560
    213  CG       245.5830  215.0290  199.0580 C.ar  331  PHE331     -0.0200
    214  CD1      244.6850  214.3700  198.2430 C.ar  331  PHE331     -0.0042
    215  CD2      245.6530  216.4050  198.9930 C.ar  331  PHE331     -0.0042
    216  CE1      243.8730  215.0690  197.3760 C.ar  331  PHE331     -0.0003
    217  CE2      244.8480  217.1120  198.1280 C.ar  331  PHE331     -0.0003
    218  CZ       243.9570  216.4430  197.3170 C.ar  331  PHE331     -0.0000
    219  N        245.1520  211.0210  204.4430 N.3   333  PHE333     -0.1227
    220  CA       244.0680  210.0670  204.6510 C.3   333  PHE333      0.1736
    221  C        243.8250  209.2300  203.3990 C.2   333  PHE333      0.2595
    222  O        243.5960  208.0140  203.4860 O.2   333  PHE333     -0.2718
    223  CB       242.8090  210.8270  205.0560 C.3   333  PHE333      0.0547
    224  CG       241.7220  209.9660  205.5970 C.ar  333  PHE333     -0.0202
    225  CD1      241.7710  209.5050  206.8990 C.ar  333  PHE333     -0.0042
    226  CD2      240.6310  209.6450  204.8170 C.ar  333  PHE333     -0.0042
    227  CE1      240.7620  208.7280  207.4040 C.ar  333  PHE333     -0.0003
    228  CE2      239.6200  208.8680  205.3150 C.ar  333  PHE333     -0.0003
    229  CZ       239.6850  208.4070  206.6100 C.ar  333  PHE333     -0.0000
    230  N        243.9080  209.8630  202.2240 N.am  334  VAL334     -0.1980
    231  CA       243.7680  209.1330  200.9620 C.3   334  VAL334      0.1595
    232  C        244.9150  208.1440  200.7740 C.2   334  VAL334      0.2287
    233  O        244.6970  206.9850  200.3940 O.2   334  VAL334     -0.2864
    234  CB       243.6690  210.1120  199.7800 C.3   334  VAL334      0.0276
    235  CG1      243.6370  209.3650  198.4740 C.3   334  VAL334      0.0022
    236  CG2      242.4250  210.9360  199.9010 C.3   334  VAL334      0.0022
    237  N        248.9300  211.1910  210.4740 N.3   359  TYR359     -0.1241
    238  CA       247.5190  211.2350  210.8460 C.3   359  TYR359      0.1605
    239  C        247.3420  211.5800  212.3150 C.2   359  TYR359      0.2264
    240  O        246.3690  212.2370  212.6880 O.2   359  TYR359     -0.2867
    241  CB       246.8520  209.8930  210.5350 C.3   359  TYR359      0.0534
    242  CG       245.3850  209.8080  210.9020 C.ar  359  TYR359     -0.0201
    243  CD1      244.4070  210.2290  210.0220 C.ar  359  TYR359     -0.0009
    244  CD2      244.9770  209.2810  212.1180 C.ar  359  TYR359     -0.0009
    245  CE1      243.0640  210.1510  210.3530 C.ar  359  TYR359      0.0417
    246  CE2      243.6480  209.2110  212.4530 C.ar  359  TYR359      0.0417
    247  CZ       242.6970  209.6350  211.5700 C.ar  359  TYR359      0.1957
    248  OH       241.3730  209.5470  211.9190 O.3   359  TYR359     -0.2866
@<TRIPOS>BOND
     1   218   216   ar
     2   218   217   ar
     3   216   214   ar
     4   217   215   ar
     5    41    40    1
     6   214   213   ar
     7   235   234    1
     8    20    22   ar
     9    20    18   ar
    10   215   213   ar
    11    22    21   ar
    12   213   212    1
    13    40    39    1
    14   234   236    1
    15   234   231    1
    16    18    17   ar
    17    18    16   ar
    18    17    15   ar
    19    21    19   ar
    20   212   209    1
    21     5     2    1
    22     5     6    1
    23   233   232    2
    24   189   187   ar
    25   189   188   ar
    26   187   185   ar
    27    16    19   ar
    28    16    14   ar
    29     3     2    1
    30     3     4    2
    31   232   231    1
    32     2     1    1
    33    15    14   ar
    34   188   186   ar
    35    39    38    1
    36   185   184   ar
    37     9    10    1
    38   231   230    1
    39   209   210    1
    40   209   208    1
    41   186   184   ar
    42   184   183    1
    43   211   210    2
    44     6     8   am
    45     6     7    2
    46    14    13    1
    47   183   180    1
    48   206   205    1
    49    10    13    1
    50    10    11    1
    51   167   166    1
    52   208   203   am
    53   182   181    2
    54    38    35    1
    55   230   221   am
    56   166   165    1
    57   204   203    2
    58   203   202    1
    59   165   164    1
    60   181   180    1
    61   180   179    1
    62    95    94    1
    63   205   202    1
    64   205   207    1
    65    83    82    1
    66    11    12    2
    67   221   222    2
    68   221   220    1
    69    35    34    1
    70    35    36    1
    71   164   163    1
    72   163   160    1
    73   202   201    1
    74   162   161    2
    75    34    25   am
    76    82    80   ar
    77    82    81   ar
    78   179   170   am
    79    80    78   ar
    80   161   160    1
    81   144   143    2
    82    30    32   ar
    83    30    28   ar
    84    94    93   ar
    85    94    92   ar
    86   112   111    1
    87   112   113    1
    88    27    28    1
    89    27    24    1
    90   177   175   ar
    91   177   178   ar
    92    81    79   ar
    93   147   145    1
    94   201   192   am
    95   219   220    1
    96   111   108    1
    97    36    37    2
    98   160   159    1
    99   156   154   ar
   100   156   158   ar
   101    93    91   ar
   102   175   173   ar
   103   220   223    1
   104    32    33   ar
   105    25    24    1
   106    25    26    2
   107    78    77   ar
   108   226   228   ar
   109   226   224   ar
   110   121   119    1
   111    28    29   ar
   112   170   171    2
   113   170   169    1
   114    92    90   ar
   115   154   153   ar
   116   223   224    1
   117    23    24    1
   118    79    77   ar
   119   143   142    1
   120   143   148   am
   121   113   107    1
   122    54    51    1
   123   192   193    2
   124   192   191    1
   125   228   229   ar
   126   178   176   ar
   127   190   191    1
   128    77    76    1
   129   158   157   ar
   130   142   145    1
   131   142   141    1
   132   224   225   ar
   133   145   146    1
   134   120   119    1
   135   119   118    1
   136   173   172    1
   137   173   174   ar
   138    59    60    1
   139    59    56    1
   140    91    89   ar
   141   108   107    1
   142   108   109    1
   143    33    31   ar
   144    60    61    1
   145   149   148    1
   146   149   150    1
   147   149   152    1
   148   191   194    1
   149   172   169    1
   150   169   168    1
   151    29    31   ar
   152    76    73    1
   153    61    62    1
   154   153   152    1
   155   153   155   ar
   156    90    89   ar
   157    55    56    1
   158    55    52   am
   159    56    57    1
   160   110   109    2
   161   109   114   am
   162    52    51    1
   163    52    53    2
   164   229   227   ar
   165   176   174   ar
   166    51    50    1
   167   157   155   ar
   168   150   151    2
   169    89    88    1
   170   114   115    1
   171   225   227   ar
   172    50    44   am
   173   118   115    1
   174   194   195    1
   175   115   116    1
   176    62    63    1
   177    73    74    1
   178    73    72    1
   179    57    58    2
   180    42    43    1
   181   197   195   ar
   182   197   199   ar
   183   195   196   ar
   184    88    85    1
   185    74    84   am
   186    74    75    2
   187    72    66   am
   188    44    43    1
   189    44    45    2
   190    84    85    1
   191   122   123    1
   192   199   200   ar
   193   116   117    2
   194   196   198   ar
   195    43    46    1
   196    85    86    1
   197   131   129   ar
   198   131   132   ar
   199    46    47    1
   200   200   198   ar
   201   129   127   ar
   202    66    67    2
   203    66    65    1
   204    48    47    1
   205    48    49    1
   206    68    69    1
   207    68    65    1
   208   104   106   ar
   209   104   102   ar
   210   132   130   ar
   211   123   124    1
   212   123   126    1
   213   124   125    2
   214    64    65    1
   215   243   245   ar
   216   243   242   ar
   217    69    71    1
   218    69    70    1
   219   106   105   ar
   220   127   126    1
   221   127   128   ar
   222   245   247   ar
   223    86    87    2
   224   237   238    1
   225   241   238    1
   226   241   242    1
   227   102   101   ar
   228   130   128   ar
   229   238   239    1
   230   242   244   ar
   231   247   248    1
   232   247   246   ar
   233   105   103   ar
   234   101   103   ar
   235   101   100    1
   236   244   246   ar
   237   239   240    2
   238    99    98    2
   239   100    97    1
   240    97    98    1
   241    97    96    1
   242   139   138    1
   243   140   138    1
   244   138   137    1
   245   137   134    1
   246   134   133    1
   247   134   135    1
   248   136   135    2
