@<TRIPOS>MOLECULE
tmp/6hu9W02.pdb
 114 110 0 0 0
SMALL
GASTEIGER

@<TRIPOS>ATOM
      1  N        220.4890  236.2260  117.7380 N.3   101  ILE101     -0.1245
      2  CA       219.7480  234.9740  117.5320 C.3   101  ILE101      0.1561
      3  C        220.1630  234.3270  116.2140 C.2   101  ILE101      0.2260
      4  O        220.4470  233.1180  116.1400 O.2   101  ILE101     -0.2867
      5  CB       218.2270  235.2150  117.5650 C.3   101  ILE101      0.0252
      6  CG1      217.7450  235.6570  118.9400 C.3   101  ILE101      0.0019
      7  CG2      217.4940  233.9510  117.1970 C.3   101  ILE101      0.0019
      8  CD1      216.2400  235.7820  119.0650 C.3   101  ILE101      0.0001
      9  N        222.0440  230.6980  115.1230 N.3   105  LEU105     -0.1245
     10  CA       221.6480  229.8050  114.0300 C.3   105  LEU105      0.1561
     11  C        222.7780  229.5790  113.0250 C.2   105  LEU105      0.2260
     12  O        222.9280  228.4700  112.4890 O.2   105  LEU105     -0.2867
     13  CB       220.4210  230.3580  113.3180 C.3   105  LEU105      0.0270
     14  CG       219.0680  229.8030  113.7430 C.3   105  LEU105      0.0019
     15  CD1      219.1080  228.3030  113.6520 C.3   105  LEU105      0.0001
     16  CD2      218.7110  230.2250  115.1370 C.3   105  LEU105      0.0001
     17  N        209.4770  227.1680   99.4570 N.3   189  TYR189     -0.1227
     18  CA       209.2140  226.1140  100.4320 C.3   189  TYR189      0.1736
     19  C        208.2390  225.0820   99.9060 C.2   189  TYR189      0.2596
     20  O        208.3290  223.9090  100.2770 O.2   189  TYR189     -0.2718
     21  CB       208.6370  226.6860  101.7140 C.3   189  TYR189      0.0548
     22  CG       209.6110  227.4400  102.5560 C.ar  189  TYR189     -0.0200
     23  CD1      210.9730  227.1850  102.4830 C.ar  189  TYR189     -0.0009
     24  CD2      209.1650  228.4110  103.4340 C.ar  189  TYR189     -0.0009
     25  CE1      211.8560  227.8840  103.2650 C.ar  189  TYR189      0.0417
     26  CE2      210.0330  229.1050  104.2100 C.ar  189  TYR189      0.0417
     27  CZ       211.3670  228.8410  104.1230 C.ar  189  TYR189      0.1957
     28  OH       212.2070  229.5560  104.9150 O.3   189  TYR189     -0.2866
     29  N        207.2830  225.5050   99.0820 N.am  190  THR190     -0.1953
     30  CA       206.2720  224.5780   98.6000 C.3   190  THR190      0.1897
     31  C        206.8790  223.5650   97.6460 C.2   190  THR190      0.2313
     32  O        206.7420  222.3570   97.8470 O.2   190  THR190     -0.2863
     33  CB       205.1320  225.3410   97.9330 C.3   190  THR190      0.1794
     34  OG1      204.4700  226.1550   98.9070 O.3   190  THR190     -0.2208
     35  CG2      204.1300  224.3730   97.3370 C.3   190  THR190      0.0378
     36  N        210.0520  222.1820   97.0620 N.3   192  ALA192     -0.1245
     37  CA       211.4300  221.9630   97.4710 C.3   192  ALA192      0.1562
     38  C        211.6640  220.4830   97.7140 C.2   192  ALA192      0.2260
     39  O        210.7530  219.7440   98.0970 O.2   192  ALA192     -0.2867
     40  CB       211.7950  222.7490   98.7300 C.3   192  ALA192      0.0290
     41  N        213.4110  218.7570   99.9150 N.3   194  PHE194     -0.1227
     42  CA       213.5930  218.1790  101.2360 C.3   194  PHE194      0.1736
     43  C        212.6850  218.8600  102.2530 C.2   194  PHE194      0.2596
     44  O        211.9740  219.8190  101.9520 O.2   194  PHE194     -0.2718
     45  CB       215.0630  218.2540  101.6760 C.3   194  PHE194      0.0547
     46  CG       215.6640  219.6240  101.5830 C.ar  194  PHE194     -0.0202
     47  CD1      216.2650  220.0610  100.4160 C.ar  194  PHE194     -0.0042
     48  CD2      215.6620  220.4620  102.6750 C.ar  194  PHE194     -0.0042
     49  CE1      216.8150  221.3160  100.3350 C.ar  194  PHE194     -0.0003
     50  CE2      216.2180  221.7160  102.5970 C.ar  194  PHE194     -0.0003
     51  CZ       216.7870  222.1430  101.4260 C.ar  194  PHE194     -0.0000
     52  N        212.7220  218.3380  103.4730 N.am  195  THR195     -0.1939
     53  CA       211.8070  218.7050  104.5390 C.3   195  THR195      0.2028
     54  C        212.6110  219.2060  105.7300 C.2   195  THR195      0.2642
     55  O        213.8390  219.1110  105.7580 O.2   195  THR195     -0.2714
     56  CB       210.9440  217.5020  104.9430 C.3   195  THR195      0.1808
     57  OG1      210.8920  216.5710  103.8570 O.3   195  THR195     -0.2208
     58  CG2      209.5430  217.9220  105.2780 C.3   195  THR195      0.0379
     59  N        211.9070  219.7420  106.7320 N.am  196  ILE196     -0.1977
     60  CA       212.5730  220.1750  107.9530 C.3   196  ILE196      0.1596
     61  C        212.9940  218.9830  108.7980 C.2   196  ILE196      0.2287
     62  O        213.8850  219.1080  109.6420 O.2   196  ILE196     -0.2864
     63  CB       211.6700  221.1500  108.7380 C.3   196  ILE196      0.0276
     64  CG1      212.5120  222.0470  109.6370 C.3   196  ILE196      0.0022
     65  CG2      210.6440  220.4170  109.5710 C.3   196  ILE196      0.0022
     66  CD1      211.7170  223.0950  110.3610 C.3   196  ILE196      0.0001
     67  N        215.9800  225.2100  107.1530 N.3   206  TYR206     -0.1227
     68  CA       214.6650  225.7750  107.3670 C.3   206  TYR206      0.1736
     69  C        214.5720  226.5410  108.6710 C.2   206  TYR206      0.2595
     70  O        213.7520  227.4490  108.7510 O.2   206  TYR206     -0.2718
     71  CB       213.6100  224.6850  107.2930 C.3   206  TYR206      0.0548
     72  CG       213.4630  224.1710  105.8970 C.ar  206  TYR206     -0.0200
     73  CD1      213.4530  225.0400  104.8240 C.ar  206  TYR206     -0.0009
     74  CD2      213.3740  222.8210  105.6440 C.ar  206  TYR206     -0.0009
     75  CE1      213.3340  224.5760  103.5420 C.ar  206  TYR206      0.0417
     76  CE2      213.2540  222.3470  104.3660 C.ar  206  TYR206      0.0417
     77  CZ       213.2400  223.2270  103.3190 C.ar  206  TYR206      0.1957
     78  OH       213.1180  222.7580  102.0330 O.3   206  TYR206     -0.2866
     79  N        215.4430  226.2780  109.6500 N.am  207  ALA207     -0.1980
     80  CA       215.4610  227.1150  110.8450 C.3   207  ALA207      0.1597
     81  C        215.9230  228.5300  110.5280 C.2   207  ALA207      0.2287
     82  O        215.2350  229.4990  110.8700 O.2   207  ALA207     -0.2864
     83  CB       216.3540  226.4970  111.9090 C.3   207  ALA207      0.0319
     84  N        213.4280  230.1130  107.8680 N.3   210  GLY210     -0.1210
     85  CA       212.1200  230.3550  108.4340 C.3   210  GLY210      0.1956
     86  C        212.1350  231.4300  109.4900 C.2   210  GLY210      0.2611
     87  O        211.1370  232.1360  109.6680 O.2   210  GLY210     -0.2717
     88  N        213.2630  231.5950  110.1860 N.am  211  LEU211     -0.1979
     89  CA       213.3920  232.7230  111.0970 C.3   211  LEU211      0.1596
     90  C        213.4220  234.0320  110.3310 C.2   211  LEU211      0.2287
     91  O        212.7340  234.9920  110.7050 O.2   211  LEU211     -0.2864
     92  CB       214.6460  232.5640  111.9450 C.3   211  LEU211      0.0297
     93  CG       214.6750  233.3170  113.2640 C.3   211  LEU211      0.0022
     94  CD1      213.4540  232.9790  114.0730 C.3   211  LEU211      0.0001
     95  CD2      215.9240  232.9230  113.9890 C.3   211  LEU211      0.0001
     96  N        212.0640  234.3820  107.4540 N.3   213  PHE213     -0.1227
     97  CA       210.6910  234.4690  106.9680 C.3   213  PHE213      0.1736
     98  C        209.7810  235.1590  107.9800 C.2   213  PHE213      0.2595
     99  O        209.0040  236.0530  107.6200 O.2   213  PHE213     -0.2718
    100  CB       210.2010  233.0570  106.6660 C.3   213  PHE213      0.0547
    101  CG       208.9210  232.9930  105.9110 C.ar  213  PHE213     -0.0202
    102  CD1      208.9230  233.0060  104.5340 C.ar  213  PHE213     -0.0042
    103  CD2      207.7180  232.8650  106.5760 C.ar  213  PHE213     -0.0042
    104  CE1      207.7460  232.9260  103.8370 C.ar  213  PHE213     -0.0003
    105  CE2      206.5370  232.7890  105.8810 C.ar  213  PHE213     -0.0003
    106  CZ       206.5510  232.8160  104.5120 C.ar  213  PHE213     -0.0000
    107  N        209.8810  234.7720  109.2530 N.am  214  LEU214     -0.1980
    108  CA       209.0170  235.3650  110.2710 C.3   214  LEU214      0.1596
    109  C        209.3800  236.8180  110.5420 C.2   214  LEU214      0.2287
    110  O        208.4950  237.6550  110.7670 O.2   214  LEU214     -0.2864
    111  CB       209.0800  234.5460  111.5520 C.3   214  LEU214      0.0297
    112  CG       208.3230  233.2220  111.4960 C.3   214  LEU214      0.0022
    113  CD1      208.3370  232.5640  112.8530 C.3   214  LEU214      0.0001
    114  CD2      206.9020  233.4410  111.0230 C.3   214  LEU214      0.0001
@<TRIPOS>BOND
     1    36    37    1
     2    35    33    1
     3    37    38    1
     4    37    40    1
     5    31    32    2
     6    31    30    1
     7    38    39    2
     8    33    30    1
     9    33    34    1
    10    30    29    1
    11    29    19   am
    12    17    18    1
    13    19    20    2
    14    19    18    1
    15    41    42    1
    16    49    47   ar
    17    49    51   ar
    18    47    46   ar
    19    18    21    1
    20    42    45    1
    21    42    43    1
    22    51    50   ar
    23    46    45    1
    24    46    48   ar
    25    21    22    1
    26    44    43    2
    27    78    77    1
    28    43    52   am
    29    23    22   ar
    30    23    25   ar
    31    22    24   ar
    32    50    48   ar
    33    25    27   ar
    34    77    75   ar
    35    77    76   ar
    36    24    26   ar
    37    52    53    1
    38    75    73   ar
    39   104   106   ar
    40   104   102   ar
    41    57    56    1
    42    27    26   ar
    43    27    28    1
    44    76    74   ar
    45   106   105   ar
    46   102   101   ar
    47    53    56    1
    48    53    54    1
    49    73    72   ar
    50    56    58    1
    51    74    72   ar
    52    54    55    2
    53    54    59   am
    54   105   103   ar
    55    72    71    1
    56   101   103   ar
    57   101   100    1
    58   100    97    1
    59    59    60    1
    60    97    96    1
    61    97    98    1
    62    67    68    1
    63    71    68    1
    64    68    69    1
    65    99    98    2
    66    84    85    1
    67    60    63    1
    68    60    61    1
    69    98   107   am
    70    85    86    1
    71    69    70    2
    72    69    79   am
    73    63    65    1
    74    63    64    1
    75    61    62    2
    76   107   108    1
    77    86    87    2
    78    86    88   am
    79    64    66    1
    80    79    80    1
    81    88    89    1
    82   108   109    1
    83   108   111    1
    84    90    91    2
    85    90    89    1
    86    81    80    1
    87    81    82    2
    88   109   110    2
    89    80    83    1
    90   114   112    1
    91    89    92    1
    92   112   111    1
    93   112   113    1
    94    92    93    1
    95    12    11    2
    96    11    10    1
    97    93    95    1
    98    93    94    1
    99    13    14    1
   100    13    10    1
   101    15    14    1
   102    14    16    1
   103    10     9    1
   104     4     3    2
   105     3     2    1
   106     7     5    1
   107     2     5    1
   108     2     1    1
   109     5     6    1
   110     6     8    1
