@<TRIPOS>MOLECULE
tmp/6hu9M08.pdb
 127 122 0 0 0
SMALL
GASTEIGER

@<TRIPOS>ATOM
      1  N        211.0230  216.6830  231.5450 N.3    16  TYR16      -0.1227
      2  CA       210.0770  215.5880  231.4080 C.3    16  TYR16       0.1736
      3  C        209.9780  214.6930  232.6330 C.2    16  TYR16       0.2595
      4  O        208.8950  214.1670  232.9000 O.2    16  TYR16      -0.2718
      5  CB       210.4340  214.7420  230.1900 C.3    16  TYR16       0.0548
      6  CG       209.7620  215.2690  228.9640 C.ar   16  TYR16      -0.0200
      7  CD1      208.5300  214.7880  228.5730 C.ar   16  TYR16      -0.0009
      8  CD2      210.3310  216.2910  228.2290 C.ar   16  TYR16      -0.0009
      9  CE1      207.8980  215.2850  227.4620 C.ar   16  TYR16       0.0417
     10  CE2      209.7040  216.7970  227.1200 C.ar   16  TYR16       0.0417
     11  CZ       208.4890  216.2920  226.7450 C.ar   16  TYR16       0.1957
     12  OH       207.8630  216.7990  225.6370 O.3    16  TYR16      -0.2866
     13  N        211.0620  214.5060  233.3830 N.am   17  ILE17      -0.1980
     14  CA       211.1280  213.5230  234.4540 C.3    17  ILE17       0.1595
     15  C        211.3830  214.1820  235.8020 C.2    17  ILE17       0.2287
     16  O        210.7770  213.8160  236.8090 O.2    17  ILE17      -0.2864
     17  CB       212.2080  212.4570  234.1670 C.3    17  ILE17       0.0276
     18  CG1      212.0420  211.8770  232.7680 C.3    17  ILE17       0.0022
     19  CG2      212.1580  211.3480  235.1910 C.3    17  ILE17       0.0022
     20  CD1      213.0890  210.8550  232.4260 C.3    17  ILE17       0.0001
     21  N        203.8430  205.1870  232.7000 N.3    34  SER34      -0.1217
     22  CA       205.2010  204.7540  232.9910 C.3    34  SER34       0.1889
     23  C        205.3300  203.2410  232.9330 C.2    34  SER34       0.2288
     24  O        206.3730  202.7200  232.5110 O.2    34  SER34      -0.2866
     25  CB       205.6120  205.2560  234.3650 C.3    34  SER34       0.2089
     26  OG       206.7080  204.5080  234.8470 O.3    34  SER34      -0.2183
     27  N        207.7230  200.9150  230.5420 N.3    38  LEU38      -0.1245
     28  CA       208.4890  199.7640  231.0200 C.3    38  LEU38       0.1561
     29  C        208.2010  198.5110  230.2010 C.2    38  LEU38       0.2260
     30  O        209.1260  197.7540  229.8800 O.2    38  LEU38      -0.2867
     31  CB       208.1960  199.5090  232.4940 C.3    38  LEU38       0.0270
     32  CG       208.9080  198.3050  233.1160 C.3    38  LEU38       0.0019
     33  CD1      210.4150  198.4060  232.9610 C.3    38  LEU38       0.0001
     34  CD2      208.5360  198.1690  234.5750 C.3    38  LEU38       0.0001
     35  N        204.4850  211.9940  224.4700 N.3   198  LEU198     -0.1245
     36  CA       205.0430  212.7680  225.5690 C.3   198  LEU198      0.1561
     37  C        205.0860  214.2540  225.2500 C.2   198  LEU198      0.2260
     38  O        204.9520  215.0710  226.1610 O.2   198  LEU198     -0.2867
     39  CB       206.4350  212.2600  225.9290 C.3   198  LEU198      0.0270
     40  CG       206.5370  210.8580  226.5260 C.3   198  LEU198      0.0019
     41  CD1      207.8700  210.6920  227.2060 C.3   198  LEU198      0.0001
     42  CD2      205.4090  210.5840  227.4910 C.3   198  LEU198      0.0001
     43  N        208.0600  216.0650  239.6590 N.3   221  MET221     -0.1230
     44  CA       207.8780  214.6320  239.4540 C.3   221  MET221      0.1702
     45  C        208.9640  213.8080  240.1310 C.2   221  MET221      0.2592
     46  O        208.6750  212.7260  240.6530 O.2   221  MET221     -0.2718
     47  CB       207.8230  214.3220  237.9590 C.3   221  MET221      0.0401
     48  CG       207.6730  212.8540  237.6210 C.3   221  MET221      0.0596
     49  SD       207.1280  212.5180  235.9480 S.3   221  MET221     -0.1393
     50  CE       206.3760  210.9120  236.1910 C.3   221  MET221      0.0692
     51  N        210.1920  214.3110  240.1810 N.am  222  HIS222     -0.1962
     52  CA       211.2560  213.5940  240.8660 C.3   222  HIS222      0.1787
     53  C        211.0330  213.6260  242.3660 C.2   222  HIS222      0.2620
     54  O        210.4980  214.6020  242.9000 O.2   222  HIS222     -0.2715
     55  CB       212.6250  214.1800  240.5440 C.3   222  HIS222      0.0785
     56  CG       213.7390  213.5250  241.2910 C.ar  222  HIS222      0.0821
     57  ND1      214.2240  214.0180  242.4820 N.ar  222  HIS222     -0.2267
     58  CD2      214.4270  212.3870  241.0490 C.ar  222  HIS222      0.1154
     59  CE1      215.1800  213.2270  242.9280 C.ar  222  HIS222      0.1986
     60  NE2      215.3210  212.2270  242.0780 N.ar  222  HIS222     -0.2212
     61  N        211.3830  212.5050  243.0140 N.am  223  SER223     -0.1950
     62  CA       211.3740  212.2350  244.4490 C.3   223  SER223      0.1924
     63  C        209.9660  212.0490  244.9960 C.2   223  SER223      0.2314
     64  O        209.8100  211.7270  246.1740 O.2   223  SER223     -0.2863
     65  CB       212.1220  213.3260  245.2350 C.3   223  SER223      0.2116
     66  OG       211.9110  213.2210  246.6300 O.3   223  SER223     -0.2180
     67  N        208.4530  209.5450  241.1470 N.3   226  ILE226     -0.1231
     68  CA       209.4680  208.5540  240.8140 C.3   226  ILE226      0.1692
     69  C        209.3290  207.3360  241.7140 C.2   226  ILE226      0.2592
     70  O        209.2500  206.1990  241.2400 O.2   226  ILE226     -0.2718
     71  CB       210.8680  209.1810  240.9040 C.3   226  ILE226      0.0266
     72  CG1      211.1070  210.0800  239.6950 C.3   226  ILE226      0.0019
     73  CG2      211.9350  208.1190  241.0060 C.3   226  ILE226      0.0020
     74  CD1      210.8950  209.4050  238.3700 C.3   226  ILE226      0.0001
     75  N        209.2300  207.5530  243.0220 N.am  227  PHE227     -0.1976
     76  CA       209.0490  206.4130  243.9080 C.3   227  PHE227      0.1639
     77  C        207.6080  205.9210  243.9180 C.2   227  PHE227      0.2290
     78  O        207.3720  204.7090  244.0620 O.2   227  PHE227     -0.2864
     79  CB       209.5270  206.7660  245.3080 C.3   227  PHE227      0.0560
     80  CG       210.9790  207.1140  245.3600 C.ar  227  PHE227     -0.0200
     81  CD1      211.9410  206.1240  245.3400 C.ar  227  PHE227     -0.0042
     82  CD2      211.3850  208.4280  245.3990 C.ar  227  PHE227     -0.0042
     83  CE1      213.2790  206.4420  245.3740 C.ar  227  PHE227     -0.0003
     84  CE2      212.7230  208.7470  245.4340 C.ar  227  PHE227     -0.0003
     85  CZ       213.6660  207.7540  245.4210 C.ar  227  PHE227     -0.0000
     86  N        205.8800  205.7220  241.2820 N.3   229  ASP229     -0.1225
     87  CA       205.8540  204.8470  240.1170 C.3   229  ASP229      0.1805
     88  C        206.7330  203.6240  240.3060 C.2   229  ASP229      0.2597
     89  O        206.4900  202.5950  239.6710 O.2   229  ASP229     -0.2718
     90  CB       206.3070  205.6050  238.8690 C.3   229  ASP229      0.1424
     91  CG       205.2430  206.5350  238.3350 C.2   229  ASP229      0.3668
     92  OD1      204.2470  206.7660  239.0470 O.co2 229  ASP229     -0.2456
     93  OD2      205.3980  207.0340  237.2040 O.co2 229  ASP229     -0.2456
     94  N        207.7630  203.7290  241.1510 N.am  230  LEU230     -0.1979
     95  CA       208.6070  202.5870  241.4840 C.3   230  LEU230      0.1596
     96  C        207.8270  201.5030  242.2110 C.2   230  LEU230      0.2287
     97  O        208.1310  200.3130  242.0510 O.2   230  LEU230     -0.2864
     98  CB       209.7750  203.0550  242.3480 C.3   230  LEU230      0.0297
     99  CG       211.0210  202.1890  242.4120 C.3   230  LEU230      0.0022
    100  CD1      211.5420  202.0040  241.0210 C.3   230  LEU230      0.0001
    101  CD2      212.0660  202.8430  243.2740 C.3   230  LEU230      0.0001
    102  N        206.0400  199.7640  239.4980 N.3   233  VAL233     -0.1231
    103  CA       207.0200  199.0920  238.6510 C.3   233  VAL233      0.1692
    104  C        207.4350  197.7700  239.2780 C.2   233  VAL233      0.2592
    105  O        207.4710  196.7320  238.6040 O.2   233  VAL233     -0.2718
    106  CB       208.2160  200.0280  238.3930 C.3   233  VAL233      0.0266
    107  CG1      209.5160  199.2690  238.2360 C.3   233  VAL233      0.0020
    108  CG2      207.9590  200.8650  237.1550 C.3   233  VAL233      0.0020
    109  N        207.6700  197.7660  240.5900 N.am  234  PHE234     -0.1976
    110  CA       207.9850  196.5100  241.2560 C.3   234  PHE234      0.1639
    111  C        206.7730  195.5940  241.3570 C.2   234  PHE234      0.2290
    112  O        206.9280  194.3730  241.2960 O.2   234  PHE234     -0.2864
    113  CB       208.5760  196.7830  242.6300 C.3   234  PHE234      0.0560
    114  CG       209.9980  197.2270  242.5830 C.ar  234  PHE234     -0.0200
    115  CD1      210.8820  196.6510  241.6930 C.ar  234  PHE234     -0.0042
    116  CD2      210.4490  198.2380  243.4060 C.ar  234  PHE234     -0.0042
    117  CE1      212.1910  197.0600  241.6390 C.ar  234  PHE234     -0.0003
    118  CE2      211.7580  198.6530  243.3540 C.ar  234  PHE234     -0.0003
    119  CZ       212.6270  198.0670  242.4720 C.ar  234  PHE234     -0.0000
    120  N        206.4710  194.0420  237.9160 N.3   237  MET237     -0.1245
    121  CA       207.5110  193.0290  237.7820 C.3   237  MET237      0.1570
    122  C        207.2060  191.7880  238.6030 C.2   237  MET237      0.2261
    123  O        207.5360  190.6830  238.1780 O.2   237  MET237     -0.2867
    124  CB       208.8620  193.5960  238.1950 C.3   237  MET237      0.0387
    125  CG       209.5090  194.4980  237.1740 C.3   237  MET237      0.0595
    126  SD       211.1560  194.9530  237.7280 S.3   237  MET237     -0.1393
    127  CE       211.4470  196.4190  236.7530 C.3   237  MET237      0.0692
@<TRIPOS>BOND
     1    35    36    1
     2    37    36    1
     3    37    38    2
     4    36    39    1
     5    12    11    1
     6    39    40    1
     7    40    41    1
     8    40    42    1
     9    11    10   ar
    10    11     9   ar
    11    10     8   ar
    12     9     7   ar
    13     8     6   ar
    14     7     6   ar
    15     6     5    1
    16    30    29    2
    17     5     2    1
    18    29    28    1
    19    27    28    1
    20    28    31    1
    21     2     1    1
    22     2     3    1
    23    20    18    1
    24    31    32    1
    25    24    23    2
    26     3     4    2
    27     3    13   am
    28    21    22    1
    29    18    17    1
    30    23    22    1
    31    33    32    1
    32    22    25    1
    33    32    34    1
    34    13    14    1
    35    17    14    1
    36    17    19    1
    37    25    26    1
    38    14    15    1
    39    15    16    2
    40    49    50    1
    41    49    48    1
    42   127   126    1
    43   108   106    1
    44   125   126    1
    45   125   124    1
    46    93    91   ar
    47    48    47    1
    48   121   120    1
    49   121   124    1
    50   121   122    1
    51    47    44    1
    52   123   122    2
    53   107   106    1
    54    91    90    1
    55    91    92   ar
    56    74    72    1
    57   106   103    1
    58   105   104    2
    59   103   104    1
    60   103   102    1
    61    90    87    1
    62   104   109   am
    63    44    43    1
    64    44    45    1
    65    89    88    2
    66    72    71    1
    67    87    88    1
    68    87    86    1
    69    45    51   am
    70    45    46    2
    71    51    52    1
    72    88    94   am
    73    55    52    1
    74    55    56    1
    75   109   110    1
    76    68    71    1
    77    68    67    1
    78    68    69    1
    79    52    53    1
    80    71    73    1
    81   100    99    1
    82    58    56   ar
    83    58    60   ar
    84    94    95    1
    85    70    69    2
    86   110   111    1
    87   110   113    1
    88    56    57   ar
    89   112   111    2
    90    95    96    1
    91    95    98    1
    92   117   115   ar
    93   117   119   ar
    94   115   114   ar
    95    69    75   am
    96    97    96    2
    97    60    59   ar
    98    98    99    1
    99    53    54    2
   100    53    61   am
   101    99   101    1
   102   119   118   ar
   103    57    59   ar
   104   114   113    1
   105   114   116   ar
   106    61    62    1
   107    75    76    1
   108   118   116   ar
   109    76    77    1
   110    76    79    1
   111    77    78    2
   112    62    63    1
   113    62    65    1
   114    63    64    2
   115    65    66    1
   116    79    80    1
   117    81    80   ar
   118    81    83   ar
   119    80    82   ar
   120    83    85   ar
   121    82    84   ar
   122    85    84   ar
