@<TRIPOS>MOLECULE
tmp/6hu9U08.pdb
 110 105 0 0 0
SMALL
GASTEIGER

@<TRIPOS>ATOM
      1  N        209.6470  247.1670  141.2890 N.3    15  ALA15      -0.1231
      2  CA       210.7890  246.6260  142.0160 C.3    15  ALA15       0.1694
      3  C        210.3550  245.8440  143.2460 C.2    15  ALA15       0.2591
      4  O        210.8880  244.7610  143.5170 O.2    15  ALA15      -0.2718
      5  CB       211.7350  247.7480  142.4120 C.3    15  ALA15       0.0304
      6  N        209.3660  246.3490  143.9840 N.am   16  VAL16      -0.1980
      7  CA       208.9270  245.5870  145.1520 C.3    16  VAL16       0.1595
      8  C        208.1030  244.3770  144.7330 C.2    16  VAL16       0.2287
      9  O        208.0790  243.3640  145.4440 O.2    16  VAL16      -0.2864
     10  CB       208.1790  246.4770  146.1580 C.3    16  VAL16       0.0276
     11  CG1      208.9890  247.7110  146.4420 C.3    16  VAL16       0.0022
     12  CG2      206.8190  246.8390  145.6780 C.3    16  VAL16       0.0022
     13  N        210.6900  241.8570  144.0400 N.3    19  PHE19      -0.1227
     14  CA       211.2860  241.3390  145.2610 C.3    19  PHE19       0.1736
     15  C        210.3630  240.3620  145.9750 C.2    19  PHE19       0.2595
     16  O        210.8390  239.3760  146.5510 O.2    19  PHE19      -0.2718
     17  CB       211.6660  242.4910  146.1770 C.3    19  PHE19       0.0547
     18  CG       212.5270  242.0790  147.3110 C.ar   19  PHE19      -0.0202
     19  CD1      213.8860  241.9180  147.1320 C.ar   19  PHE19      -0.0042
     20  CD2      211.9800  241.8360  148.5600 C.ar   19  PHE19      -0.0042
     21  CE1      214.6830  241.5240  148.1820 C.ar   19  PHE19      -0.0003
     22  CE2      212.7690  241.4450  149.6110 C.ar   19  PHE19      -0.0003
     23  CZ       214.1220  241.3000  149.4250 C.ar   19  PHE19      -0.0000
     24  N        209.0500  240.6150  145.9640 N.am   20  MET20      -0.1979
     25  CA       208.1180  239.6820  146.5980 C.3    20  MET20       0.1605
     26  C        208.1140  238.3390  145.8840 C.2    20  MET20       0.2287
     27  O        208.2130  237.2810  146.5260 O.2    20  MET20      -0.2864
     28  CB       206.7120  240.2650  146.6210 C.3    20  MET20       0.0413
     29  CG       206.5260  241.3640  147.6080 C.3    20  MET20       0.0598
     30  SD       204.8830  242.0560  147.4590 S.3    20  MET20      -0.1393
     31  CE       203.8850  240.5840  147.6300 C.3    20  MET20       0.0692
     32  N        211.6730  236.5570  146.6220 N.3    23  ILE23      -0.1245
     33  CA       211.8610  235.8720  147.8920 C.3    23  ILE23       0.1561
     34  C        210.8810  234.7030  148.0390 C.2    23  ILE23       0.2260
     35  O        211.2140  233.7010  148.6850 O.2    23  ILE23      -0.2867
     36  CB       211.7820  236.8740  149.0570 C.3    23  ILE23       0.0252
     37  CG1      212.2750  236.2270  150.3450 C.3    23  ILE23       0.0019
     38  CG2      210.3900  237.4010  149.2400 C.3    23  ILE23       0.0019
     39  CD1      212.2350  237.1260  151.5280 C.3    23  ILE23       0.0001
     40  N        214.6610  243.7690  141.2170 N.3    78  GLY78      -0.1210
     41  CA       214.2540  244.5710  142.3600 C.3    78  GLY78       0.1956
     42  C        215.2340  245.6860  142.6630 C.2    78  GLY78       0.2611
     43  O        214.8590  246.8600  142.7340 O.2    78  GLY78      -0.2717
     44  N        216.5160  245.3520  142.7470 N.am   79  PHE79      -0.1976
     45  CA       217.4870  246.3750  143.0960 C.3    79  PHE79       0.1639
     46  C        217.7700  247.3080  141.9300 C.2    79  PHE79       0.2290
     47  O        217.9290  248.5140  142.1420 O.2    79  PHE79      -0.2864
     48  CB       218.7590  245.7280  143.6320 C.3    79  PHE79       0.0560
     49  CG       218.5990  245.1760  145.0200 C.ar   79  PHE79      -0.0200
     50  CD1      217.6130  245.6700  145.8520 C.ar   79  PHE79      -0.0042
     51  CD2      219.3990  244.1540  145.4840 C.ar   79  PHE79      -0.0042
     52  CE1      217.4420  245.1750  147.1120 C.ar   79  PHE79      -0.0003
     53  CE2      219.2240  243.6580  146.7550 C.ar   79  PHE79      -0.0003
     54  CZ       218.2430  244.1640  147.5600 C.ar   79  PHE79      -0.0000
     55  N        214.8040  249.5910  141.5750 N.3    82  TYR82      -0.1241
     56  CA       214.6530  250.6280  142.5830 C.3    82  TYR82       0.1605
     57  C        215.7540  251.6660  142.5160 C.2    82  TYR82       0.2264
     58  O        215.4980  252.8400  142.7790 O.2    82  TYR82      -0.2867
     59  CB       214.5910  250.0400  143.9870 C.3    82  TYR82       0.0534
     60  CG       213.5560  250.7480  144.8110 C.ar   82  TYR82      -0.0201
     61  CD1      213.8110  251.9870  145.3640 C.ar   82  TYR82      -0.0009
     62  CD2      212.3130  250.1910  145.0060 C.ar   82  TYR82      -0.0009
     63  CE1      212.8620  252.6410  146.0920 C.ar   82  TYR82       0.0417
     64  CE2      211.3630  250.8350  145.7340 C.ar   82  TYR82       0.0417
     65  CZ       211.6400  252.0590  146.2770 C.ar   82  TYR82       0.1957
     66  OH       210.6750  252.7000  147.0090 O.3    82  TYR82      -0.2866
     67  N        219.9310  244.0470  150.9100 N.3   393  TYR393     -0.1241
     68  CA       218.6660  244.1730  151.6150 C.3   393  TYR393      0.1605
     69  C        218.8410  244.9360  152.9130 C.2   393  TYR393      0.2264
     70  O        218.1730  245.9440  153.1360 O.2   393  TYR393     -0.2867
     71  CB       218.0290  242.8200  151.8970 C.3   393  TYR393      0.0534
     72  CG       216.6920  243.0550  152.5250 C.ar  393  TYR393     -0.0201
     73  CD1      215.6580  243.5700  151.7770 C.ar  393  TYR393     -0.0009
     74  CD2      216.4760  242.8320  153.8730 C.ar  393  TYR393     -0.0009
     75  CE1      214.4460  243.8250  152.3400 C.ar  393  TYR393      0.0417
     76  CE2      215.2760  243.1060  154.4430 C.ar  393  TYR393      0.0417
     77  CZ       214.2610  243.5930  153.6730 C.ar  393  TYR393      0.1957
     78  OH       213.0400  243.8580  154.2280 O.3   393  TYR393     -0.2866
     79  N        214.1160  252.2430  151.5370 N.3   400  ILE400     -0.1231
     80  CA       213.0300  252.0020  150.5920 C.3   400  ILE400      0.1692
     81  C        211.8050  251.4030  151.2490 C.2   400  ILE400      0.2591
     82  O        210.8300  251.0850  150.5590 O.2   400  ILE400     -0.2718
     83  CB       213.5270  251.1030  149.4460 C.3   400  ILE400      0.0266
     84  CG1      213.6740  249.6530  149.9020 C.3   400  ILE400      0.0019
     85  CG2      214.8480  251.6410  148.9340 C.3   400  ILE400      0.0020
     86  CD1      214.4970  248.7990  148.9700 C.3   400  ILE400      0.0001
     87  N        211.8230  251.2310  152.5600 N.am  401  LEU401     -0.1980
     88  CA       210.6400  250.8350  153.2960 C.3   401  LEU401      0.1596
     89  C        210.2460  251.8270  154.3670 C.2   401  LEU401      0.2287
     90  O        209.0760  251.8420  154.7610 O.2   401  LEU401     -0.2864
     91  CB       210.8600  249.4620  153.9420 C.3   401  LEU401      0.0297
     92  CG       209.8850  248.3170  153.7080 C.3   401  LEU401      0.0022
     93  CD1      209.4010  248.3300  152.2920 C.3   401  LEU401      0.0001
     94  CD2      210.5940  247.0230  153.9860 C.3   401  LEU401      0.0001
     95  N        211.8170  240.0080  158.5440 N.3   472  LEU472     -0.1245
     96  CA       210.9500  240.7690  157.6480 C.3   472  LEU472      0.1561
     97  C        209.6340  241.1250  158.3140 C.2   472  LEU472      0.2260
     98  O        209.1460  242.2480  158.1690 O.2   472  LEU472     -0.2867
     99  CB       210.6800  239.9830  156.3720 C.3   472  LEU472      0.0270
    100  CG       211.8040  239.7420  155.3800 C.3   472  LEU472      0.0019
    101  CD1      211.1950  239.6550  154.0220 C.3   472  LEU472      0.0001
    102  CD2      212.7550  240.8590  155.4170 C.3   472  LEU472      0.0001
    103  N        208.3690  244.8050  159.3030 N.3   476  LEU476     -0.1245
    104  CA       207.1150  245.2830  158.7450 C.3   476  LEU476      0.1561
    105  C        206.1410  245.7540  159.8080 C.2   476  LEU476      0.2260
    106  O        205.4340  246.7390  159.5860 O.2   476  LEU476     -0.2867
    107  CB       206.4800  244.1950  157.8890 C.3   476  LEU476      0.0270
    108  CG       207.0490  244.1850  156.4800 C.3   476  LEU476      0.0019
    109  CD1      206.5680  242.9940  155.7280 C.3   476  LEU476      0.0001
    110  CD2      206.6430  245.4480  155.7760 C.3   476  LEU476      0.0001
@<TRIPOS>BOND
     1    40    41    1
     2     1     2    1
     3    55    56    1
     4    46    47    2
     5    46    45    1
     6     2     5    1
     7     2     3    1
     8    41    42    1
     9    57    56    1
    10    57    58    2
    11    56    59    1
    12    42    43    2
    13    42    44   am
    14    44    45    1
    15    45    48    1
    16     3     4    2
    17     3     6   am
    18    48    49    1
    19     6     7    1
    20    59    60    1
    21    13    14    1
    22     8     7    1
    23     8     9    2
    24    60    62   ar
    25    60    61   ar
    26    62    64   ar
    27    49    51   ar
    28    49    50   ar
    29     7    10    1
    30    14    15    1
    31    14    17    1
    32    61    63   ar
    33    51    53   ar
    34    12    10    1
    35    64    65   ar
    36    50    52   ar
    37    26    27    2
    38    26    25    1
    39    24    15   am
    40    24    25    1
    41    15    16    2
    42    63    65   ar
    43    10    11    1
    44    17    18    1
    45    65    66    1
    46    25    28    1
    47    28    29    1
    48    32    33    1
    49    53    54   ar
    50    52    54   ar
    51    19    18   ar
    52    19    21   ar
    53    18    20   ar
    54    30    29    1
    55    30    31    1
    56    33    34    1
    57    33    36    1
    58    34    35    2
    59    21    23   ar
    60    20    22   ar
    61    85    83    1
    62    86    84    1
    63    36    38    1
    64    36    37    1
    65    23    22   ar
    66    83    84    1
    67    83    80    1
    68    37    39    1
    69    82    81    2
    70    80    81    1
    71    80    79    1
    72    67    68    1
    73    81    87   am
    74    68    71    1
    75    68    69    1
    76    73    75   ar
    77    73    72   ar
    78    71    72    1
    79    93    92    1
    80    75    77   ar
    81    72    74   ar
    82    87    88    1
    83    69    70    2
    84    88    91    1
    85    88    89    1
    86    77    78    1
    87    77    76   ar
    88    92    91    1
    89    92    94    1
    90    74    76   ar
    91   101   100    1
    92    89    90    2
    93   100   102    1
    94   100    99    1
    95   109   108    1
    96   110   108    1
    97    99    96    1
    98   108   107    1
    99    96    97    1
   100    96    95    1
   101   107   104    1
   102    98    97    2
   103   104   103    1
   104   104   105    1
   105   106   105    2
