@<TRIPOS>MOLECULE
tmp/6hu9C11.pdb
 139 134 0 0 0
SMALL
GASTEIGER

@<TRIPOS>ATOM
      1  N        227.9390  227.8490  202.2280 N.3    27  ASN27      -0.1225
      2  CA       228.0510  227.3690  200.8640 C.3    27  ASN27       0.1785
      3  C        227.5650  225.9320  200.7630 C.2    27  ASN27       0.2597
      4  O        226.9900  225.3780  201.7020 O.2    27  ASN27      -0.2718
      5  CB       229.4790  227.5370  200.3440 C.3    27  ASN27       0.1169
      6  CG       230.5290  226.9630  201.2590 C.2    27  ASN27       0.2627
      7  OD1      230.3440  225.9280  201.8850 O.2    27  ASN27      -0.2716
      8  ND2      231.6650  227.6290  201.3180 N.am   27  ASN27      -0.0877
      9  N        227.8080  225.3210  199.6030 N.am   28  TYR28      -0.1962
     10  CA       227.3490  223.9690  199.3170 C.3    28  TYR28       0.1771
     11  C        228.0570  222.8930  200.1250 C.2    28  TYR28       0.2619
     12  O        227.6920  221.7260  199.9860 O.2    28  TYR28      -0.2715
     13  CB       227.5080  223.6550  197.8340 C.3    28  TYR28       0.0574
     14  CG       226.5070  224.3360  196.9400 C.ar   28  TYR28      -0.0198
     15  CD1      225.2330  223.8260  196.7850 C.ar   28  TYR28      -0.0009
     16  CD2      226.8450  225.4690  196.2340 C.ar   28  TYR28      -0.0009
     17  CE1      224.3190  224.4370  195.9580 C.ar   28  TYR28       0.0417
     18  CE2      225.9360  226.0860  195.4090 C.ar   28  TYR28       0.0417
     19  CZ       224.6750  225.5690  195.2790 C.ar   28  TYR28       0.1957
     20  OH       223.7710  226.1860  194.4500 O.3    28  TYR28      -0.2866
     21  N        229.0470  223.2180  200.9500 N.am   29  TRP29      -0.1974
     22  CA       229.5300  222.2350  201.9060 C.3    29  TRP29       0.1640
     23  C        228.5600  222.0440  203.0610 C.2    29  TRP29       0.2290
     24  O        228.6250  221.0220  203.7480 O.2    29  TRP29      -0.2864
     25  CB       230.9080  222.6400  202.4260 C.3    29  TRP29       0.0576
     26  CG       231.9700  222.6060  201.3750 C.ar   29  TRP29       0.0006
     27  CD1      232.6570  223.6640  200.8770 C.ar   29  TRP29       0.0946
     28  CD2      232.4710  221.4500  200.6980 C.ar   29  TRP29       0.0152
     29  NE1      233.5520  223.2450  199.9250 N.ar   29  TRP29      -0.2442
     30  CE2      233.4530  221.8870  199.7950 C.ar   29  TRP29       0.0810
     31  CE3      232.1780  220.0870  200.7610 C.ar   29  TRP29       0.0012
     32  CZ2      234.1490  221.0130  198.9740 C.ar   29  TRP29       0.0191
     33  CZ3      232.8610  219.2250  199.9370 C.ar   29  TRP29       0.0001
     34  CH2      233.8350  219.6890  199.0570 C.ar   29  TRP29       0.0015
     35  N        225.9660  218.8990  202.9240 N.3    32  MET32      -0.1245
     36  CA       226.3660  217.5410  203.2430 C.3    32  MET32       0.1570
     37  C        225.5610  216.9410  204.3850 C.2    32  MET32       0.2261
     38  O        225.3220  215.7360  204.3770 O.2    32  MET32      -0.2867
     39  CB       227.8540  217.5100  203.5730 C.3    32  MET32       0.0387
     40  CG       228.7620  217.6220  202.3690 C.3    32  MET32       0.0595
     41  SD       227.9030  217.8760  200.8120 S.3    32  MET32      -0.1393
     42  CE       228.2740  216.3500  199.9700 C.3    32  MET32       0.0692
     43  N        222.3240  215.8970  202.9630 N.3    35  LEU35      -0.1245
     44  CA       222.6090  214.7210  202.1530 C.3    35  LEU35       0.1561
     45  C        222.8150  213.4780  203.0040 C.2    35  LEU35       0.2260
     46  O        222.4520  212.3850  202.5770 O.2    35  LEU35      -0.2867
     47  CB       223.8320  214.9580  201.2840 C.3    35  LEU35       0.0270
     48  CG       223.5750  214.9460  199.7880 C.3    35  LEU35       0.0019
     49  CD1      222.7500  216.1400  199.4180 C.3    35  LEU35       0.0001
     50  CD2      224.8920  214.9840  199.0870 C.3    35  LEU35       0.0001
     51  N        228.2430  205.8310  199.4360 N.3    88  PHE88      -0.1241
     52  CA       228.0130  207.2650  199.3090 C.3    88  PHE88       0.1605
     53  C        227.7040  207.9060  200.6530 C.2    88  PHE88       0.2264
     54  O        227.9970  209.0860  200.8460 O.2    88  PHE88      -0.2867
     55  CB       226.8850  207.5330  198.3180 C.3    88  PHE88       0.0534
     56  CG       227.3400  207.6320  196.8920 C.ar   88  PHE88      -0.0203
     57  CD1      228.1020  206.6280  196.3140 C.ar   88  PHE88      -0.0042
     58  CD2      226.9950  208.7240  196.1230 C.ar   88  PHE88      -0.0042
     59  CE1      228.5230  206.7210  195.0100 C.ar   88  PHE88      -0.0003
     60  CE2      227.4060  208.8210  194.8160 C.ar   88  PHE88      -0.0003
     61  CZ       228.1710  207.8190  194.2580 C.ar   88  PHE88      -0.0000
     62  N        231.1290  208.5360  201.7880 N.3    91  MET91      -0.1230
     63  CA       231.6910  209.6520  201.0220 C.3    91  MET91       0.1702
     64  C        231.2040  210.9960  201.5560 C.2    91  MET91       0.2592
     65  O        232.0090  211.8820  201.8880 O.2    91  MET91      -0.2718
     66  CB       231.3230  209.5150  199.5450 C.3    91  MET91       0.0401
     67  CG       232.3400  208.8010  198.6830 C.3    91  MET91       0.0596
     68  SD       231.6360  208.1940  197.1350 S.3    91  MET91      -0.1393
     69  CE       232.9500  207.1270  196.5540 C.3    91  MET91       0.0692
     70  N        229.8840  211.1420  201.6920 N.am   92  VAL92      -0.1980
     71  CA       229.3020  212.3840  202.1830 C.3    92  VAL92       0.1595
     72  C        229.6470  212.6090  203.6520 C.2    92  VAL92       0.2287
     73  O        229.8420  213.7540  204.0760 O.2    92  VAL92      -0.2864
     74  CB       227.7850  212.3790  201.9220 C.3    92  VAL92       0.0276
     75  CG1      227.1540  213.6580  202.3680 C.3    92  VAL92       0.0022
     76  CG2      227.5260  212.2430  200.4550 C.3    92  VAL92       0.0022
     77  N        233.0620  214.0400  203.7730 N.3    95  MET95      -0.1245
     78  CA       232.9900  215.4530  203.4060 C.3    95  MET95       0.1570
     79  C        232.4290  216.3080  204.5440 C.2    95  MET95       0.2261
     80  O        232.8770  217.4390  204.7510 O.2    95  MET95      -0.2867
     81  CB       232.1580  215.6180  202.1400 C.3    95  MET95       0.0387
     82  CG       232.7820  214.9930  200.9100 C.3    95  MET95       0.0595
     83  SD       231.5960  214.8710  199.5670 S.3    95  MET95      -0.1393
     84  CE       232.6960  214.8400  198.1640 C.3    95  MET95       0.0692
     85  N        236.4360  224.4070  208.4500 N.3   103  TYR103     -0.1241
     86  CA       235.8290  225.6470  208.9110 C.3   103  TYR103      0.1605
     87  C        235.7670  225.7620  210.4190 C.2   103  TYR103      0.2264
     88  O        235.2200  226.7470  210.9170 O.2   103  TYR103     -0.2867
     89  CB       234.4330  225.7860  208.3180 C.3   103  TYR103      0.0534
     90  CG       234.4770  226.0130  206.8400 C.ar  103  TYR103     -0.0201
     91  CD1      235.0630  227.1490  206.3250 C.ar  103  TYR103     -0.0009
     92  CD2      233.9640  225.0870  205.9570 C.ar  103  TYR103     -0.0009
     93  CE1      235.1180  227.3620  204.9790 C.ar  103  TYR103      0.0417
     94  CE2      234.0130  225.2990  204.6020 C.ar  103  TYR103      0.0417
     95  CZ       234.5820  226.4410  204.1220 C.ar  103  TYR103      0.1957
     96  OH       234.6410  226.6650  202.7730 O.3   103  TYR103     -0.2866
     97  N        218.4660  225.2350  197.8580 N.3   228  LYS228     -0.1245
     98  CA       219.9130  225.0440  197.8110 C.3   228  LYS228      0.1561
     99  C        220.3110  223.6390  198.2500 C.2   228  LYS228      0.2260
    100  O        221.3590  223.1410  197.8360 O.2   228  LYS228     -0.2867
    101  CB       220.6180  226.0920  198.6630 C.3   228  LYS228      0.0271
    102  CG       222.0880  226.3050  198.3200 C.3   228  LYS228      0.0035
    103  CD       222.7820  227.1500  199.3860 C.3   228  LYS228      0.0206
    104  CE       224.2660  227.3250  199.1240 C.3   228  LYS228      0.1093
    105  NZ       224.5440  228.4250  198.1720 N.3   228  LYS228     -0.1314
    106  N        221.7480  219.8820  195.4610 N.3   232  THR232     -0.1218
    107  CA       222.7030  218.8320  195.7640 C.3   232  THR232      0.1862
    108  C        222.0370  217.4940  196.0050 C.2   232  THR232      0.2287
    109  O        222.6800  216.4680  195.7950 O.2   232  THR232     -0.2866
    110  CB       223.5250  219.1990  196.9800 C.3   232  THR232      0.1770
    111  OG1      222.6680  219.8220  197.9400 O.3   232  THR232     -0.2211
    112  CG2      224.6300  220.1520  196.5860 C.3   232  THR232      0.0375
    113  N        221.7400  216.2200  192.5650 N.3   235  LEU235     -0.1231
    114  CA       223.0700  215.8310  192.0930 C.3   235  LEU235      0.1693
    115  C        223.5240  214.5180  192.7230 C.2   235  LEU235      0.2592
    116  O        224.1360  213.6720  192.0530 O.2   235  LEU235     -0.2718
    117  CB       224.0790  216.9340  192.3930 C.3   235  LEU235      0.0284
    118  CG       225.5530  216.6200  192.1450 C.3   235  LEU235      0.0019
    119  CD1      225.8040  216.3510  190.6890 C.3   235  LEU235      0.0001
    120  CD2      226.4000  217.7600  192.6170 C.3   235  LEU235      0.0001
    121  N        223.2300  214.3380  194.0110 N.am  236  PHE236     -0.1976
    122  CA       223.5650  213.1050  194.7050 C.3   236  PHE236      0.1639
    123  C        222.7980  211.9310  194.1290 C.2   236  PHE236      0.2290
    124  O        223.3620  210.8470  193.9470 O.2   236  PHE236     -0.2864
    125  CB       223.2720  213.2620  196.1950 C.3   236  PHE236      0.0560
    126  CG       223.1930  211.9640  196.9410 C.ar  236  PHE236     -0.0200
    127  CD1      224.3440  211.2740  197.2740 C.ar  236  PHE236     -0.0042
    128  CD2      221.9690  211.4450  197.3330 C.ar  236  PHE236     -0.0042
    129  CE1      224.2720  210.0860  197.9640 C.ar  236  PHE236     -0.0003
    130  CE2      221.8960  210.2560  198.0160 C.ar  236  PHE236     -0.0003
    131  CZ       223.0460  209.5720  198.3160 C.ar  236  PHE236     -0.0000
    132  N        224.5190  211.0050  190.7220 N.3   239  ILE239     -0.1245
    133  CA       225.7630  210.2410  190.7990 C.3   239  ILE239      0.1561
    134  C        225.5080  208.8560  191.3870 C.2   239  ILE239      0.2260
    135  O        226.1080  207.8600  190.9550 O.2   239  ILE239     -0.2867
    136  CB       226.8270  211.0220  191.5860 C.3   239  ILE239      0.0252
    137  CG1      227.0170  212.4050  190.9750 C.3   239  ILE239      0.0019
    138  CG2      228.1510  210.3060  191.5360 C.3   239  ILE239      0.0019
    139  CD1      228.0490  213.2470  191.6620 C.3   239  ILE239      0.0001
@<TRIPOS>BOND
     1   119   118    1
     2   132   133    1
     3   133   134    1
     4   133   136    1
     5   135   134    2
     6   137   136    1
     7   137   139    1
     8   138   136    1
     9   116   115    2
    10   114   117    1
    11   114   113    1
    12   114   115    1
    13   118   117    1
    14   118   120    1
    15   115   121   am
    16   124   123    2
    17   121   122    1
    18   123   122    1
    19    61    60   ar
    20    61    59   ar
    21    20    19    1
    22   122   125    1
    23    60    58   ar
    24    59    57   ar
    25    19    18   ar
    26    19    17   ar
    27    18    16   ar
    28   106   107    1
    29   107   108    1
    30   107   110    1
    31   109   108    2
    32    17    15   ar
    33    58    56   ar
    34   125   126    1
    35    16    14   ar
    36    57    56   ar
    37    69    68    1
    38   112   110    1
    39    15    14   ar
    40    56    55    1
    41    14    13    1
    42   126   127   ar
    43   126   128   ar
    44   110   111    1
    45    68    67    1
    46   127   129   ar
    47   128   130   ar
    48    98    97    1
    49    98    99    1
    50    98   101    1
    51    13    10    1
    52   100    99    2
    53   129   131   ar
    54   130   131   ar
    55    84    83    1
    56   105   104    1
    57    55    52    1
    58   102   101    1
    59   102   103    1
    60    67    66    1
    61    32    34   ar
    62    32    30   ar
    63    34    33   ar
    64    50    48    1
    65   104   103    1
    66    52    51    1
    67    52    53    1
    68    10     9    1
    69    10    11    1
    70    49    48    1
    71    66    63    1
    72    83    82    1
    73     9     3   am
    74    48    47    1
    75    30    29   ar
    76    30    28   ar
    77    29    27   ar
    78    33    31   ar
    79    42    41    1
    80    12    11    2
    81    11    21   am
    82     5     2    1
    83     5     6    1
    84    76    74    1
    85    53    54    2
    86    28    31   ar
    87    28    26   ar
    88     3     2    1
    89     3     4    2
    90    41    40    1
    91     2     1    1
    92    27    26   ar
    93    82    81    1
    94    21    22    1
    95    63    64    1
    96    63    62    1
    97     6     8   am
    98     6     7    2
    99    47    44    1
   100    26    25    1
   101    64    70   am
   102    64    65    2
   103    70    71    1
   104    22    25    1
   105    22    23    1
   106    74    71    1
   107    74    75    1
   108    81    78    1
   109    44    43    1
   110    44    45    1
   111    71    72    1
   112    40    39    1
   113    46    45    2
   114    96    95    1
   115    35    36    1
   116    23    24    2
   117    36    39    1
   118    36    37    1
   119    78    77    1
   120    78    79    1
   121    72    73    2
   122    95    94   ar
   123    95    93   ar
   124    38    37    2
   125    79    80    2
   126    94    92   ar
   127    93    91   ar
   128    92    90   ar
   129    91    90   ar
   130    90    89    1
   131    89    86    1
   132    85    86    1
   133    86    87    1
   134    87    88    2
