@<TRIPOS>MOLECULE
tmp/6hu9U07.pdb
 108 105 0 0 0
SMALL
GASTEIGER

@<TRIPOS>ATOM
      1  N        230.6950  248.3120  162.0420 N.3   334  LEU334     -0.1245
      2  CA       230.3330  246.9400  161.7050 C.3   334  LEU334      0.1561
      3  C        228.8500  246.6570  161.8540 C.2   334  LEU334      0.2260
      4  O        228.4320  245.9730  162.7910 O.2   334  LEU334     -0.2867
      5  CB       231.1150  245.9550  162.5610 C.3   334  LEU334      0.0270
      6  CG       232.5980  245.8570  162.2370 C.3   334  LEU334      0.0019
      7  CD1      233.3140  245.2390  163.3950 C.3   334  LEU334      0.0001
      8  CD2      232.8070  245.0440  160.9900 C.3   334  LEU334      0.0001
      9  N        229.1130  243.3600  157.7180 N.3   339  LEU339     -0.1245
     10  CA       229.3900  241.9630  158.0340 C.3   339  LEU339      0.1561
     11  C        229.2280  241.0850  156.8070 C.2   339  LEU339      0.2260
     12  O        230.0950  240.2480  156.5090 O.2   339  LEU339     -0.2867
     13  CB       228.4720  241.4670  159.1420 C.3   339  LEU339      0.0270
     14  CG       228.6790  242.0180  160.5410 C.3   339  LEU339      0.0019
     15  CD1      227.7710  241.2900  161.4850 C.3   339  LEU339      0.0001
     16  CD2      230.1120  241.8490  160.9420 C.3   339  LEU339      0.0001
     17  N        232.2100  241.7550  154.3250 N.3   342  ILE342     -0.1231
     18  CA       233.4580  241.1010  154.7240 C.3   342  ILE342      0.1692
     19  C        233.3930  239.6020  154.4550 C.2   342  ILE342      0.2591
     20  O        234.3310  239.0100  153.8850 O.2   342  ILE342     -0.2718
     21  CB       233.7670  241.3860  156.2050 C.3   342  ILE342      0.0266
     22  CG1      234.0620  242.8600  156.4230 C.3   342  ILE342      0.0019
     23  CG2      234.9740  240.6080  156.6610 C.3   342  ILE342      0.0020
     24  CD1      235.1860  243.3700  155.5890 C.3   342  ILE342      0.0001
     25  N        232.2800  238.9680  154.8420 N.am  343  ALA343     -0.1980
     26  CA       232.1370  237.5360  154.6070 C.3   343  ALA343      0.1597
     27  C        232.0470  237.2190  153.1220 C.2   343  ALA343      0.2287
     28  O        232.5310  236.1680  152.6810 O.2   343  ALA343     -0.2864
     29  CB       230.9150  237.0040  155.3400 C.3   343  ALA343      0.0319
     30  N        235.7480  237.2220  151.8060 N.3   346  PHE346     -0.1241
     31  CA       236.5170  236.0310  152.1610 C.3   346  PHE346      0.1605
     32  C        236.0220  234.7880  151.4250 C.2   346  PHE346      0.2264
     33  O        236.8070  234.0920  150.7560 O.2   346  PHE346     -0.2867
     34  CB       236.4650  235.8050  153.6610 C.3   346  PHE346      0.0534
     35  CG       237.1330  234.5520  154.0910 C.ar  346  PHE346     -0.0203
     36  CD1      238.4870  234.3740  153.8940 C.ar  346  PHE346     -0.0042
     37  CD2      236.4120  233.5570  154.7080 C.ar  346  PHE346     -0.0042
     38  CE1      239.1040  233.2160  154.2960 C.ar  346  PHE346     -0.0003
     39  CE2      237.0210  232.4040  155.1110 C.ar  346  PHE346     -0.0003
     40  CZ       238.3700  232.2320  154.9120 C.ar  346  PHE346     -0.0000
     41  N        222.0390  240.2840  163.0840 N.3   411  GLN411     -0.1245
     42  CA       223.3920  239.7620  163.1960 C.3   411  GLN411      0.1566
     43  C        223.4070  238.2910  163.5910 C.2   411  GLN411      0.2260
     44  O        224.3130  237.5620  163.1690 O.2   411  GLN411     -0.2867
     45  CB       224.2210  240.6080  164.1500 C.3   411  GLN411      0.0367
     46  CG       224.5330  241.9800  163.5980 C.3   411  GLN411      0.0905
     47  CD       225.7750  242.5790  164.2030 C.2   411  GLN411      0.2608
     48  OE1      226.6120  241.8720  164.7500 O.2   411  GLN411     -0.2717
     49  NE2      225.9010  243.8910  164.1140 N.am  411  GLN411     -0.0878
     50  N        222.9540  236.6160  160.3150 N.3   414  PHE414     -0.1227
     51  CA       224.1900  236.5390  159.5440 C.3   414  PHE414      0.1736
     52  C        225.1050  235.4410  160.0610 C.2   414  PHE414      0.2595
     53  O        225.6760  234.6900  159.2660 O.2   414  PHE414     -0.2718
     54  CB       224.9390  237.8630  159.5500 C.3   414  PHE414      0.0547
     55  CG       226.3920  237.7170  159.2070 C.ar  414  PHE414     -0.0202
     56  CD1      226.7880  237.3310  157.9360 C.ar  414  PHE414     -0.0042
     57  CD2      227.3640  237.9650  160.1390 C.ar  414  PHE414     -0.0042
     58  CE1      228.1120  237.1810  157.6300 C.ar  414  PHE414     -0.0003
     59  CE2      228.6910  237.8220  159.8180 C.ar  414  PHE414     -0.0003
     60  CZ       229.0570  237.4290  158.5670 C.ar  414  PHE414     -0.0000
     61  N        225.3070  235.3680  161.3800 N.am  415  TRP415     -0.1976
     62  CA       226.2460  234.3730  161.8970 C.3   415  TRP415      0.1640
     63  C        225.7280  232.9590  161.6830 C.2   415  TRP415      0.2290
     64  O        226.5080  232.0510  161.3460 O.2   415  TRP415     -0.2864
     65  CB       226.5430  234.6330  163.3640 C.3   415  TRP415      0.0576
     66  CG       227.4830  235.7610  163.5780 C.ar  415  TRP415      0.0006
     67  CD1      227.1850  236.9700  164.0990 C.ar  415  TRP415      0.0946
     68  CD2      228.8830  235.7850  163.2860 C.ar  415  TRP415      0.0152
     69  NE1      228.3020  237.7550  164.1490 N.ar  415  TRP415     -0.2442
     70  CE2      229.3590  237.0510  163.6460 C.ar  415  TRP415      0.0810
     71  CE3      229.7740  234.8710  162.7270 C.ar  415  TRP415      0.0012
     72  CZ2      230.6850  237.4160  163.4980 C.ar  415  TRP415      0.0191
     73  CZ3      231.0920  235.2420  162.5730 C.ar  415  TRP415      0.0001
     74  CH2      231.5340  236.5010  162.9590 C.ar  415  TRP415      0.0015
     75  N        226.2550  232.1730  157.9870 N.3   418  PHE418     -0.1227
     76  CA       227.6600  232.0680  157.6230 C.3   418  PHE418      0.1736
     77  C        228.2260  230.7250  158.0380 C.2   418  PHE418      0.2595
     78  O        228.8190  230.0110  157.2150 O.2   418  PHE418     -0.2718
     79  CB       228.4410  233.2060  158.2530 C.3   418  PHE418      0.0547
     80  CG       229.9170  233.0760  158.1260 C.ar  418  PHE418     -0.0202
     81  CD1      230.5450  233.2810  156.9210 C.ar  418  PHE418     -0.0042
     82  CD2      230.6870  232.8090  159.2340 C.ar  418  PHE418     -0.0042
     83  CE1      231.9120  233.1850  156.8230 C.ar  418  PHE418     -0.0003
     84  CE2      232.0520  232.7110  159.1340 C.ar  418  PHE418     -0.0003
     85  CZ       232.6630  232.8990  157.9310 C.ar  418  PHE418     -0.0000
     86  N        228.0020  230.3300  159.2940 N.am  419  ILE419     -0.1980
     87  CA       228.5250  229.0320  159.6930 C.3   419  ILE419      0.1595
     88  C        227.7050  227.9090  159.0810 C.2   419  ILE419      0.2287
     89  O        228.2500  226.8430  158.7930 O.2   419  ILE419     -0.2864
     90  CB       228.6240  228.9240  161.2210 C.3   419  ILE419      0.0276
     91  CG1      227.2470  228.8380  161.8580 C.3   419  ILE419      0.0022
     92  CG2      229.3840  230.1160  161.7590 C.3   419  ILE419      0.0022
     93  CD1      227.2650  228.9620  163.3470 C.3   419  ILE419      0.0001
     94  N        229.0420  227.6220  155.3750 N.3   422  ASN422     -0.1225
     95  CA       230.3640  227.0080  155.3910 C.3   422  ASN422      0.1785
     96  C        230.2840  225.5250  155.7000 C.2   422  ASN422      0.2597
     97  O        230.9210  224.7150  155.0170 O.2   422  ASN422     -0.2718
     98  CB       231.2660  227.6980  156.4000 C.3   422  ASN422      0.1169
     99  CG       231.9550  228.8760  155.8160 C.2   422  ASN422      0.2627
    100  OD1      233.0040  228.7490  155.2010 O.2   422  ASN422     -0.2716
    101  ND2      231.3640  230.0420  155.9850 N.am  422  ASN422     -0.0877
    102  N        229.4800  225.1470  156.7010 N.am  423  VAL423     -0.1980
    103  CA       229.3870  223.7490  157.1010 C.3   423  VAL423      0.1595
    104  C        228.7330  222.9150  156.0090 C.2   423  VAL423      0.2287
    105  O        229.0660  221.7350  155.8400 O.2   423  VAL423     -0.2864
    106  CB       228.6790  223.6520  158.4700 C.3   423  VAL423      0.0276
    107  CG1      228.2350  222.2540  158.8130 C.3   423  VAL423      0.0022
    108  CG2      229.6400  224.0710  159.5460 C.3   423  VAL423      0.0022
@<TRIPOS>BOND
     1    33    32    2
     2    32    31    1
     3    30    31    1
     4    31    34    1
     5    28    27    2
     6    27    26    1
     7    34    35    1
     8    20    19    2
     9    36    35   ar
    10    36    38   ar
    11    35    37   ar
    12    38    40   ar
    13    17    18    1
    14    19    18    1
    15    19    25   am
    16    26    25    1
    17    26    29    1
    18    37    39   ar
    19    18    21    1
    20    40    39   ar
    21    97    96    2
    22   100    99    2
    23    94    95    1
    24    95    96    1
    25    95    98    1
    26    24    22    1
    27    96   102   am
    28    99   101   am
    29    99    98    1
    30   105   104    2
    31   104   103    1
    32    21    22    1
    33    21    23    1
    34    12    11    2
    35   102   103    1
    36    11    10    1
    37    83    81   ar
    38    83    85   ar
    39    81    80   ar
    40   103   106    1
    41    78    77    2
    42    76    75    1
    43    76    77    1
    44    76    79    1
    45    58    56   ar
    46    58    60   ar
    47     9    10    1
    48    85    84   ar
    49    56    55   ar
    50    10    13    1
    51    77    86   am
    52    80    79    1
    53    80    82   ar
    54   106   107    1
    55   106   108    1
    56    60    59   ar
    57    89    88    2
    58    88    87    1
    59    84    82   ar
    60    13    14    1
    61    55    54    1
    62    55    57   ar
    63    53    52    2
    64    86    87    1
    65    51    54    1
    66    51    52    1
    67    51    50    1
    68    87    90    1
    69    59    57   ar
    70    52    61   am
    71    14    16    1
    72    14    15    1
    73     8     6    1
    74    90    92    1
    75    90    91    1
    76    64    63    2
    77    61    62    1
    78    63    62    1
    79     2     3    1
    80     2     1    1
    81     2     5    1
    82     3     4    2
    83    91    93    1
    84    62    65    1
    85     6     5    1
    86     6     7    1
    87    73    71   ar
    88    73    74   ar
    89    71    68   ar
    90    74    72   ar
    91    41    42    1
    92    44    43    2
    93    42    43    1
    94    42    45    1
    95    68    66   ar
    96    68    70   ar
    97    65    66    1
    98    72    70   ar
    99    66    67   ar
   100    46    45    1
   101    46    47    1
   102    70    69   ar
   103    67    69   ar
   104    49    47   am
   105    47    48    2
