@<TRIPOS>MOLECULE
tmp/6hu9W01.pdb
 202 193 0 0 0
SMALL
GASTEIGER

@<TRIPOS>ATOM
      1  N        198.3590  238.5070  119.7260 N.3    59  LEU59      -0.1245
      2  CA       198.4940  239.4710  118.6430 C.3    59  LEU59       0.1561
      3  C        197.6210  240.6950  118.8620 C.2    59  LEU59       0.2260
      4  O        198.0830  241.8240  118.6810 O.2    59  LEU59      -0.2867
      5  CB       198.1490  238.8100  117.3170 C.3    59  LEU59       0.0270
      6  CG       198.3740  239.6990  116.1080 C.3    59  LEU59       0.0019
      7  CD1      199.8390  240.0380  116.0250 C.3    59  LEU59       0.0001
      8  CD2      197.9150  238.9790  114.8630 C.3    59  LEU59       0.0001
      9  N        199.0500  242.8150  121.7510 N.3    62  SER62      -0.1202
     10  CA       200.1700  243.6030  121.2550 C.3    62  SER62       0.2020
     11  C        199.7070  244.7350  120.3480 C.2    62  SER62       0.2618
     12  O        200.2660  245.8360  120.3990 O.2    62  SER62      -0.2717
     13  CB       201.1440  242.6960  120.5180 C.3    62  SER62       0.2103
     14  OG       202.1410  243.4560  119.8730 O.3    62  SER62      -0.2182
     15  N        198.6650  244.4910  119.5510 N.am   63  ILE63      -0.1979
     16  CA       198.1140  245.5130  118.6680 C.3    63  ILE63       0.1595
     17  C        197.5010  246.6520  119.4740 C.2    63  ILE63       0.2287
     18  O        197.6710  247.8300  119.1370 O.2    63  ILE63      -0.2864
     19  CB       197.1050  244.8570  117.7060 C.3    63  ILE63       0.0276
     20  CG1      197.8390  244.3110  116.4830 C.3    63  ILE63       0.0022
     21  CG2      195.9830  245.8070  117.2990 C.3    63  ILE63       0.0022
     22  CD1      196.9250  243.7990  115.4100 C.3    63  ILE63       0.0001
     23  N        200.2440  248.7700  120.8360 N.3    66  PHE66      -0.1241
     24  CA       200.7740  249.6630  119.8140 C.3    66  PHE66       0.1605
     25  C        199.8100  250.7970  119.4920 C.2    66  PHE66       0.2264
     26  O        200.2460  251.8990  119.1460 O.2    66  PHE66      -0.2867
     27  CB       201.1060  248.8670  118.5660 C.3    66  PHE66       0.0534
     28  CG       202.3490  248.0600  118.6960 C.ar   66  PHE66      -0.0203
     29  CD1      203.4870  248.6240  119.2250 C.ar   66  PHE66      -0.0042
     30  CD2      202.3850  246.7400  118.2960 C.ar   66  PHE66      -0.0042
     31  CE1      204.6400  247.8970  119.3400 C.ar   66  PHE66      -0.0003
     32  CE2      203.5360  246.0010  118.4270 C.ar   66  PHE66      -0.0003
     33  CZ       204.6650  246.5810  118.9540 C.ar   66  PHE66      -0.0000
     34  N        200.5310  253.2390  122.0850 N.3    69  ILE69      -0.1231
     35  CA       201.7950  253.9480  121.9270 C.3    69  ILE69       0.1692
     36  C        201.7210  254.9470  120.7730 C.2    69  ILE69       0.2591
     37  O        202.3650  255.9990  120.8280 O.2    69  ILE69      -0.2718
     38  CB       202.9790  252.9720  121.7930 C.3    69  ILE69       0.0266
     39  CG1      204.2720  253.6590  122.1840 C.3    69  ILE69       0.0019
     40  CG2      203.1790  252.4850  120.3860 C.3    69  ILE69       0.0020
     41  CD1      205.4750  252.7340  122.1270 C.3    69  ILE69       0.0001
     42  N        200.8820  254.7090  119.7620 N.am   70  VAL70      -0.1980
     43  CA       200.7570  255.7450  118.7440 C.3    70  VAL70       0.1595
     44  C        199.8210  256.8390  119.2230 C.2    70  VAL70       0.2287
     45  O        199.9320  257.9810  118.7700 O.2    70  VAL70      -0.2864
     46  CB       200.3120  255.1900  117.3800 C.3    70  VAL70       0.0276
     47  CG1      201.2550  254.1120  116.9110 C.3    70  VAL70       0.0022
     48  CG2      198.9040  254.6920  117.4220 C.3    70  VAL70       0.0022
     49  N        202.2050  258.9190  121.1080 N.3    73  ALA73      -0.1231
     50  CA       203.1830  259.5530  120.2340 C.3    73  ALA73       0.1694
     51  C        202.5680  260.7050  119.4540 C.2    73  ALA73       0.2592
     52  O        203.1590  261.7850  119.3550 O.2    73  ALA73      -0.2718
     53  CB       203.7770  258.5200  119.2820 C.3    73  ALA73       0.0304
     54  N        201.3890  260.4970  118.8810 N.am   74  THR74      -0.1953
     55  CA       200.8320  261.5130  118.0040 C.3    74  THR74       0.1897
     56  C        199.9440  262.4770  118.7720 C.2    74  THR74       0.2313
     57  O        200.0990  263.6980  118.6730 O.2    74  THR74      -0.2863
     58  CB       200.0430  260.8500  116.8800 C.3    74  THR74       0.1794
     59  OG1      200.8500  259.8410  116.2720 O.3    74  THR74      -0.2208
     60  CG2      199.6560  261.8760  115.8400 C.3    74  THR74       0.0378
     61  N        206.2080  262.4360  123.0740 N.3    79  HIS79      -0.1241
     62  CA       207.4820  262.0200  122.5010 C.3    79  HIS79       0.1621
     63  C        208.2640  263.2620  122.1100 C.2    79  HIS79       0.2264
     64  O        208.0930  263.8170  121.0290 O.2    79  HIS79      -0.2867
     65  CB       207.2560  261.1000  121.3120 C.3    79  HIS79       0.0745
     66  CG       206.8170  259.7220  121.6920 C.ar   79  HIS79       0.0817
     67  ND1      207.3810  258.5910  121.1500 N.ar   79  HIS79      -0.2268
     68  CD2      205.8790  259.2940  122.5670 C.ar   79  HIS79       0.1154
     69  CE1      206.8060  257.5230  121.6720 C.ar   79  HIS79       0.1986
     70  NE2      205.8910  257.9230  122.5330 N.ar   79  HIS79      -0.2212
     71  N        213.6740  255.7830  122.3450 N.3    87  ILE87      -0.1245
     72  CA       213.0160  254.6710  121.6620 C.3    87  ILE87       0.1561
     73  C        213.8110  254.2420  120.4370 C.2    87  ILE87       0.2260
     74  O        213.7980  253.0580  120.0720 O.2    87  ILE87      -0.2867
     75  CB       211.5570  254.9960  121.3000 C.3    87  ILE87       0.0252
     76  CG1      211.4570  256.2480  120.4460 C.3    87  ILE87       0.0019
     77  CG2      210.7290  255.1530  122.5500 C.3    87  ILE87       0.0019
     78  CD1      210.0410  256.6040  120.0960 C.3    87  ILE87       0.0001
     79  N        215.0610  250.3600  120.1100 N.3    91  PHE91      -0.1241
     80  CA       214.8580  249.5140  118.9430 C.3    91  PHE91       0.1605
     81  C        216.1750  249.0190  118.3660 C.2    91  PHE91       0.2264
     82  O        216.2380  247.8880  117.8670 O.2    91  PHE91      -0.2867
     83  CB       214.0750  250.2470  117.8660 C.3    91  PHE91       0.0534
     84  CG       213.7300  249.3800  116.7070 C.ar   91  PHE91      -0.0203
     85  CD1      212.6890  248.4760  116.8050 C.ar   91  PHE91      -0.0042
     86  CD2      214.4640  249.4350  115.5340 C.ar   91  PHE91      -0.0042
     87  CE1      212.3720  247.6580  115.7550 C.ar   91  PHE91      -0.0003
     88  CE2      214.1550  248.6140  114.4870 C.ar   91  PHE91      -0.0003
     89  CZ       213.1050  247.7280  114.5940 C.ar   91  PHE91      -0.0000
     90  N        217.1220  246.0190  120.4650 N.3    94  PHE94      -0.1241
     91  CA       216.3140  244.8400  120.1460 C.3    94  PHE94       0.1605
     92  C        216.7210  244.2200  118.8080 C.2    94  PHE94       0.2264
     93  O        216.7350  242.9870  118.6560 O.2    94  PHE94      -0.2867
     94  CB       214.8390  245.2280  120.1540 C.3    94  PHE94       0.0534
     95  CG       213.9430  244.2710  119.4310 C.ar   94  PHE94      -0.0203
     96  CD1      213.6030  243.0550  119.9960 C.ar   94  PHE94      -0.0042
     97  CD2      213.3980  244.6140  118.2020 C.ar   94  PHE94      -0.0042
     98  CE1      212.7610  242.1870  119.3350 C.ar   94  PHE94      -0.0003
     99  CE2      212.5560  243.7540  117.5380 C.ar   94  PHE94      -0.0003
    100  CZ       212.2370  242.5370  118.1040 C.ar   94  PHE94      -0.0000
    101  N        206.9210  240.0830  109.9980 N.3   218  MET218     -0.1245
    102  CA       206.8770  241.1780  110.9640 C.3   218  MET218      0.1570
    103  C        207.1650  242.5210  110.2970 C.2   218  MET218      0.2261
    104  O        206.4970  243.5240  110.5860 O.2   218  MET218     -0.2867
    105  CB       207.8810  240.9090  112.0840 C.3   218  MET218      0.0387
    106  CG       207.7280  241.7760  113.3180 C.3   218  MET218      0.0595
    107  SD       209.1400  241.6430  114.4390 S.3   218  MET218     -0.1393
    108  CE       209.0770  239.9180  114.9100 C.3   218  MET218      0.0692
    109  N        204.0230  243.6790  108.4740 N.3   221  ALA221     -0.1231
    110  CA       203.0790  244.3470  109.3680 C.3   221  ALA221      0.1694
    111  C        203.5460  245.7560  109.7150 C.2   221  ALA221      0.2591
    112  O        202.7350  246.6930  109.7770 O.2   221  ALA221     -0.2718
    113  CB       202.8760  243.5220  110.6360 C.3   221  ALA221      0.0304
    114  N        204.8570  245.9320  109.8950 N.am  222  MET222     -0.1979
    115  CA       205.3750  247.2490  110.2550 C.3   222  MET222      0.1605
    116  C        205.2740  248.2380  109.0980 C.2   222  MET222      0.2287
    117  O        204.9310  249.4090  109.3050 O.2   222  MET222     -0.2864
    118  CB       206.8120  247.1250  110.7350 C.3   222  MET222      0.0413
    119  CG       206.9320  246.4590  112.0780 C.3   222  MET222      0.0598
    120  SD       208.6080  246.5790  112.6830 S.3   222  MET222     -0.1393
    121  CE       208.8210  248.3440  112.5570 C.3   222  MET222      0.0692
    122  N        201.4920  249.3070  108.9100 N.3   225  VAL225     -0.1245
    123  CA       201.0450  250.3290  109.8560 C.3   225  VAL225      0.1561
    124  C        201.7450  251.6610  109.5800 C.2   225  VAL225      0.2260
    125  O        201.1460  252.7320  109.7600 O.2   225  VAL225     -0.2867
    126  CB       201.2230  249.8330  111.3080 C.3   225  VAL225      0.0252
    127  CG1      202.6370  249.4810  111.5920 C.3   225  VAL225      0.0019
    128  CG2      200.7420  250.8520  112.3190 C.3   225  VAL225      0.0019
    129  N        199.7360  255.1420  108.7790 N.3   229  ARG229     -0.1245
    130  CA       200.0080  256.3840  109.4840 C.3   229  ARG229      0.1563
    131  C        200.4850  257.4860  108.5470 C.2   229  ARG229      0.2260
    132  O        200.2410  258.6650  108.8160 O.2   229  ARG229     -0.2867
    133  CB       201.0210  256.1240  110.5860 C.3   229  ARG229      0.0307
    134  CG       200.4150  255.4970  111.8050 C.3   229  ARG229      0.0489
    135  CD       201.4630  254.8580  112.6550 C.3   229  ARG229      0.2205
    136  NE       202.6090  255.7360  112.8090 N.pl3 229  ARG229     -0.0865
    137  CZ       202.7280  256.6320  113.7740 C.cat 229  ARG229      0.5346
    138  NH1      201.7730  256.7700  114.6800 N.pl3 229  ARG229      0.1354
    139  NH2      203.8070  257.3910  113.8320 N.pl3 229  ARG229      0.1354
    140  N        199.8070  260.8550  110.1730 N.3   234  HIS234     -0.1226
    141  CA       200.3780  260.7710  111.5110 C.3   234  HIS234      0.1752
    142  C        201.8490  261.1600  111.5230 C.2   234  HIS234      0.2596
    143  O        202.2870  261.8630  112.4380 O.2   234  HIS234     -0.2718
    144  CB       200.1970  259.3710  112.0880 C.3   234  HIS234      0.0759
    145  CG       198.8010  259.0730  112.5230 C.ar  234  HIS234      0.0818
    146  ND1      197.7000  259.3750  111.7550 N.ar  234  HIS234     -0.2268
    147  CD2      198.3250  258.4900  113.6470 C.ar  234  HIS234      0.1154
    148  CE1      196.6050  259.0020  112.3900 C.ar  234  HIS234      0.1986
    149  NE2      196.9570  258.4590  113.5410 N.ar  234  HIS234     -0.2212
    150  N        202.6140  260.7500  110.5190 N.am  235  LEU235     -0.1966
    151  CA       204.0250  261.1050  110.4380 C.3   235  LEU235      0.1728
    152  C        204.1820  262.5500  109.9940 C.2   235  LEU235      0.2616
    153  O        203.5340  262.9820  109.0380 O.2   235  LEU235     -0.2715
    154  CB       204.7610  260.2000  109.4610 C.3   235  LEU235      0.0311
    155  CG       205.0270  258.7600  109.8560 C.3   235  LEU235      0.0022
    156  CD1      203.9430  257.8810  109.3490 C.3   235  LEU235      0.0001
    157  CD2      206.3160  258.3460  109.2570 C.3   235  LEU235      0.0001
    158  N        205.0590  263.2850  110.6690 N.am  236  THR236     -0.1951
    159  CA       205.4290  264.6180  110.2320 C.3   236  THR236      0.1897
    160  C        206.7320  264.5620  109.4500 C.2   236  THR236      0.2313
    161  O        207.3450  263.5050  109.2940 O.2   236  THR236     -0.2863
    162  CB       205.5970  265.5620  111.4150 C.3   236  THR236      0.1794
    163  OG1      206.9560  265.5080  111.8620 O.3   236  THR236     -0.2208
    164  CG2      204.6780  265.1620  112.5560 C.3   236  THR236      0.0378
    165  N        209.4870  264.6730  112.6060 N.3   239  HIS239     -0.1226
    166  CA       209.2020  263.9120  113.8220 C.3   239  HIS239      0.1752
    167  C        208.5780  262.5890  113.4010 C.2   239  HIS239      0.2596
    168  O        207.3700  262.5070  113.1710 O.2   239  HIS239     -0.2718
    169  CB       208.2820  264.7060  114.7490 C.3   239  HIS239      0.0759
    170  CG       207.7670  263.9320  115.9230 C.ar  239  HIS239      0.0818
    171  ND1      208.3970  263.9280  117.1460 N.ar  239  HIS239     -0.2268
    172  CD2      206.6520  263.1820  116.0760 C.ar  239  HIS239      0.1154
    173  CE1      207.7120  263.1790  117.9900 C.ar  239  HIS239      0.1986
    174  NE2      206.6500  262.7110  117.3640 N.ar  239  HIS239     -0.2212
    175  N        209.4100  261.5610  113.2770 N.am  240  HIS240     -0.1961
    176  CA       208.9440  260.2340  112.8920 C.3   240  HIS240      0.1787
    177  C        209.9460  259.2240  113.4200 C.2   240  HIS240      0.2620
    178  O        211.1410  259.3450  113.1470 O.2   240  HIS240     -0.2715
    179  CB       208.7800  260.1150  111.3700 C.3   240  HIS240      0.0785
    180  CG       209.9740  260.5570  110.5820 C.ar  240  HIS240      0.0821
    181  ND1      210.1730  261.8630  110.1960 N.ar  240  HIS240     -0.2267
    182  CD2      211.0180  259.8570  110.0830 C.ar  240  HIS240      0.1154
    183  CE1      211.2990  261.9530  109.5120 C.ar  240  HIS240      0.1986
    184  NE2      211.8320  260.7490  109.4310 N.ar  240  HIS240     -0.2212
    185  N        209.4870  258.2730  114.2230 N.am  241  VAL241     -0.1963
    186  CA       210.3590  257.2260  114.7440 C.3   241  VAL241      0.1727
    187  C        209.9440  255.8580  114.2420 C.2   241  VAL241      0.2616
    188  O        210.7700  254.9510  114.1580 O.2   241  VAL241     -0.2715
    189  CB       210.4060  257.2450  116.2870 C.3   241  VAL241      0.0290
    190  CG1      211.8080  256.9540  116.7530 C.3   241  VAL241      0.0023
    191  CG2      209.9250  258.5470  116.8330 C.3   241  VAL241      0.0023
    192  N        208.6580  255.6910  113.9240 N.am  242  GLY242     -0.1955
    193  CA       208.2060  254.4420  113.3370 C.3   242  GLY242      0.1869
    194  C        208.8260  254.1880  111.9810 C.2   242  GLY242      0.2309
    195  O        209.2080  253.0620  111.6620 O.2   242  GLY242     -0.2863
    196  N        212.5920  253.4880  112.4480 N.3   245  THR245     -0.1218
    197  CA       212.6580  252.1490  113.0060 C.3   245  THR245      0.1862
    198  C        212.4130  251.0950  111.9310 C.2   245  THR245      0.2287
    199  O        213.1550  250.1110  111.8330 O.2   245  THR245     -0.2866
    200  CB       211.6490  252.0650  114.1520 C.3   245  THR245      0.1770
    201  OG1      212.2830  252.4710  115.3690 O.3   245  THR245     -0.2211
    202  CG2      211.0700  250.6840  114.3230 C.3   245  THR245      0.0375
@<TRIPOS>BOND
     1   109   110    1
     2   131   132    2
     3   131   130    1
     4   129   130    1
     5   122   123    1
     6   153   152    2
     7   116   117    2
     8   116   115    1
     9   157   155    1
    10   161   160    2
    11   156   155    1
    12   110   111    1
    13   110   113    1
    14   184   183   ar
    15   184   182   ar
    16   160   159    1
    17   154   155    1
    18   154   151    1
    19   130   133    1
    20   183   181   ar
    21   124   125    2
    22   124   123    1
    23   111   112    2
    24   111   114   am
    25   123   126    1
    26   114   115    1
    27   152   151    1
    28   152   158   am
    29   101   102    1
    30   182   180   ar
    31   140   141    1
    32   181   180   ar
    33   159   158    1
    34   159   162    1
    35   115   118    1
    36   103   104    2
    37   103   102    1
    38   151   150    1
    39   150   142   am
    40   180   179    1
    41   133   134    1
    42   118   119    1
    43   102   105    1
    44   126   127    1
    45   126   128    1
    46   179   176    1
    47   162   163    1
    48   162   164    1
    49   141   142    1
    50   141   144    1
    51   142   143    2
    52   195   194    2
    53   146   148   ar
    54   146   145   ar
    55   134   135    1
    56   199   198    2
    57   198   197    1
    58   194   193    1
    59   119   120    1
    60   105   106    1
    61   144   145    1
    62   148   149   ar
    63   196   197    1
    64   145   147   ar
    65   121   120    1
    66   165   166    1
    67   135   136    1
    68   136   137    2
    69   176   175    1
    70   176   177    1
    71   197   200    1
    72   178   177    2
    73   168   167    2
    74   175   167   am
    75   106   107    1
    76   193   192    1
    77   167   166    1
    78   177   185   am
    79   149   147   ar
    80   137   139    1
    81   137   138    1
    82   166   169    1
    83   192   187   am
    84   200   202    1
    85   200   201    1
    86   188   187    2
    87   185   186    1
    88   187   186    1
    89   107   108    1
    90    88    89   ar
    91    88    86   ar
    92    89    87   ar
    93   186   189    1
    94   169   170    1
    95     8     6    1
    96    22    20    1
    97    86    84   ar
    98    87    85   ar
    99    60    58    1
   100   170   172   ar
   101   170   171   ar
   102     7     6    1
   103   172   174   ar
   104     6     5    1
   105    59    58    1
   106   189   190    1
   107   189   191    1
   108    20    19    1
   109    84    85   ar
   110    84    83    1
   111    58    55    1
   112    47    46    1
   113   171   173   ar
   114    21    19    1
   115     5     2    1
   116   174   173   ar
   117    46    48    1
   118    46    43    1
   119    99   100   ar
   120    99    97   ar
   121    19    16    1
   122    83    80    1
   123    82    81    2
   124    55    56    1
   125    55    54    1
   126   100    98   ar
   127    97    95   ar
   128    30    32   ar
   129    30    28   ar
   130    81    80    1
   131    32    33   ar
   132    27    28    1
   133    27    24    1
   134     2     3    1
   135     2     1    1
   136    93    92    2
   137    16    17    1
   138    16    15    1
   139    57    56    2
   140     4     3    2
   141    28    29   ar
   142    43    44    1
   143    43    42    1
   144    45    44    2
   145    92    91    1
   146    54    51   am
   147    80    79    1
   148    33    31   ar
   149    18    17    2
   150    26    25    2
   151    29    31   ar
   152    53    50    1
   153    98    96   ar
   154    52    51    2
   155    95    96   ar
   156    95    94    1
   157    51    50    1
   158    25    24    1
   159    15    11   am
   160    42    36   am
   161    24    23    1
   162    14    13    1
   163    74    73    2
   164    78    76    1
   165    91    94    1
   166    91    90    1
   167    50    49    1
   168    11    12    2
   169    11    10    1
   170    40    38    1
   171    73    72    1
   172    76    75    1
   173    13    10    1
   174    36    37    2
   175    36    35    1
   176    64    63    2
   177    67    69   ar
   178    67    66   ar
   179    10     9    1
   180    75    72    1
   181    75    77    1
   182    65    66    1
   183    65    62    1
   184    72    71    1
   185    69    70   ar
   186    66    68   ar
   187    38    35    1
   188    38    39    1
   189    35    34    1
   190    63    62    1
   191    41    39    1
   192    62    61    1
   193    70    68   ar
