@<TRIPOS>MOLECULE
tmp/6hu9V02.pdb
 91 90 0 0 0
SMALL
GASTEIGER

@<TRIPOS>ATOM
      1  N        237.4080  206.1060  150.3380 N.3     4  THR4       -0.1204
      2  CA       237.5760  205.8470  151.7530 C.3     4  THR4        0.1979
      3  C        236.7040  206.7890  152.5650 C.2     4  THR4        0.2460
      4  O        236.5380  207.9470  152.1770 O.2     4  THR4       -0.2732
      5  CB       239.0380  206.0470  152.1490 C.3     4  THR4        0.1783
      6  OG1      239.8640  205.8250  151.0010 O.3     4  THR4       -0.2211
      7  CG2      239.4380  205.0750  153.2210 C.3     4  THR4        0.0376
      8  N        236.1090  206.3290  153.6640 N.am    5  PRO5       -0.2717
      9  CA       235.2400  207.2090  154.4470 C.3     5  PRO5        0.1535
     10  C        235.9960  208.3000  155.1700 C.2     5  PRO5        0.2599
     11  O        237.1000  208.0880  155.6750 O.2     5  PRO5       -0.2715
     12  CB       234.5710  206.2540  155.4320 C.3     5  PRO5        0.0310
     13  CG       235.4280  205.0550  155.4330 C.3     5  PRO5        0.0237
     14  CD       235.9100  204.9290  154.0510 C.3     5  PRO5        0.0939
     15  N        235.3560  209.4700  155.2130 N.am    6  TYR6       -0.1960
     16  CA       235.9260  210.7230  155.7030 C.3     6  TYR6        0.1771
     17  C        237.2690  211.0210  155.0530 C.2     6  TYR6        0.2619
     18  O        238.2380  211.3800  155.7220 O.2     6  TYR6       -0.2715
     19  CB       236.0590  210.7310  157.2220 C.3     6  TYR6        0.0574
     20  CG       234.7630  210.8280  157.9730 C.ar    6  TYR6       -0.0198
     21  CD1      234.1360  212.0390  158.1520 C.ar    6  TYR6       -0.0009
     22  CD2      234.1920  209.7080  158.5330 C.ar    6  TYR6       -0.0009
     23  CE1      232.9580  212.1210  158.8540 C.ar    6  TYR6        0.0417
     24  CE2      233.0230  209.7780  159.2360 C.ar    6  TYR6        0.0417
     25  CZ       232.4090  210.9810  159.3910 C.ar    6  TYR6        0.1957
     26  OH       231.2310  211.0380  160.0930 O.3     6  TYR6       -0.2866
     27  N        237.3400  210.8560  153.7410 N.am    7  ALA7       -0.1963
     28  CA       238.5660  211.1780  153.0330 C.3     7  ALA7        0.1728
     29  C        238.5800  212.6460  152.6530 C.2     7  ALA7        0.2616
     30  O        237.5460  213.3070  152.5870 O.2     7  ALA7       -0.2715
     31  CB       238.7240  210.3260  151.7830 C.3     7  ALA7        0.0334
     32  N        239.7800  213.1530  152.4010 N.am    8  CYS8       -0.1954
     33  CA       239.9430  214.5520  152.0390 C.3     8  CYS8        0.1843
     34  C        240.9000  214.7330  150.8740 C.2     8  CYS8        0.2625
     35  O        241.2390  215.8730  150.5470 O.2     8  CYS8       -0.2714
     36  CB       240.4500  215.3680  153.2260 C.3     8  CYS8        0.0997
     37  SG       239.3820  215.3690  154.6600 S.3     8  CYS8       -0.0797
     38  N        241.3500  213.6560  150.2420 N.am    9  TYR9       -0.1974
     39  CA       242.3740  213.7350  149.2190 C.3     9  TYR9        0.1639
     40  C        241.9710  212.8300  148.0680 C.2     9  TYR9        0.2290
     41  O        240.9330  212.1630  148.1130 O.2     9  TYR9       -0.2864
     42  CB       243.7360  213.3560  149.7970 C.3     9  TYR9        0.0560
     43  CG       244.9080  213.8720  149.0180 C.ar    9  TYR9       -0.0198
     44  CD1      244.9150  215.1580  148.5200 C.ar    9  TYR9       -0.0009
     45  CD2      246.0080  213.0700  148.7820 C.ar    9  TYR9       -0.0009
     46  CE1      245.9860  215.6340  147.8170 C.ar    9  TYR9        0.0417
     47  CE2      247.0820  213.5380  148.0840 C.ar    9  TYR9        0.0417
     48  CZ       247.0630  214.8170  147.5970 C.ar    9  TYR9        0.1957
     49  OH       248.1390  215.2830  146.8910 O.3     9  TYR9       -0.2866
     50  N        247.7830  219.5180  140.8960 N.3    25  HIS25      -0.1241
     51  CA       246.8370  220.0780  141.8500 C.3    25  HIS25       0.1621
     52  C        247.5390  220.5970  143.0910 C.2    25  HIS25       0.2264
     53  O        247.1870  221.6640  143.6010 O.2    25  HIS25      -0.2867
     54  CB       245.8080  219.0300  142.2410 C.3    25  HIS25       0.0745
     55  CG       244.9670  219.4310  143.4050 C.ar   25  HIS25       0.0817
     56  ND1      245.1340  218.8970  144.6620 N.ar   25  HIS25      -0.2268
     57  CD2      243.9650  220.3330  143.5080 C.ar   25  HIS25       0.1154
     58  CE1      244.2580  219.4380  145.4870 C.ar   25  HIS25       0.1986
     59  NE2      243.5400  220.3170  144.8120 N.ar   25  HIS25      -0.2212
     60  N        247.7110  224.3980  144.3940 N.3    29  MET29      -0.1245
     61  CA       247.2140  224.6510  145.7350 C.3    29  MET29       0.1570
     62  C        248.2390  225.3670  146.5990 C.2    29  MET29       0.2261
     63  O        247.8480  226.0690  147.5320 O.2    29  MET29      -0.2867
     64  CB       246.7890  223.3290  146.3720 C.3    29  MET29       0.0387
     65  CG       245.9190  223.4610  147.5970 C.3    29  MET29       0.0595
     66  SD       244.4570  224.4620  147.3190 S.3    29  MET29      -0.1393
     67  CE       243.4320  223.3000  146.4340 C.3    29  MET29       0.0692
     68  N        247.6250  229.0470  145.5340 N.3    32  LEU32      -0.1231
     69  CA       246.2840  229.3530  146.0180 C.3    32  LEU32       0.1693
     70  C        246.2770  229.5240  147.5290 C.2    32  LEU32       0.2591
     71  O        245.5740  230.3880  148.0600 O.2    32  LEU32      -0.2718
     72  CB       245.3120  228.2570  145.6070 C.3    32  LEU32       0.0284
     73  CG       244.4690  228.4350  144.3510 C.3    32  LEU32       0.0019
     74  CD1      245.2940  228.8770  143.1760 C.3    32  LEU32       0.0001
     75  CD2      243.8210  227.1130  144.0530 C.3    32  LEU32       0.0001
     76  N        247.0950  228.7470  148.2350 N.am   33  LEU33      -0.1980
     77  CA       247.1980  228.9270  149.6700 C.3    33  LEU33       0.1596
     78  C        247.9730  230.1810  150.0410 C.2    33  LEU33       0.2287
     79  O        247.6700  230.7810  151.0770 O.2    33  LEU33      -0.2864
     80  CB       247.8340  227.7010  150.3100 C.3    33  LEU33       0.0297
     81  CG       246.8160  226.6290  150.6740 C.3    33  LEU33       0.0022
     82  CD1      247.5140  225.4710  151.3080 C.3    33  LEU33       0.0001
     83  CD2      245.7810  227.1930  151.6080 C.3    33  LEU33       0.0001
     84  N        245.3300  232.8410  149.5780 N.3    36  LEU36      -0.1245
     85  CA       244.2860  232.7110  150.5860 C.3    36  LEU36       0.1561
     86  C        244.7810  233.1870  151.9410 C.2    36  LEU36       0.2260
     87  O        244.0570  233.8890  152.6540 O.2    36  LEU36      -0.2867
     88  CB       243.8160  231.2620  150.6580 C.3    36  LEU36       0.0270
     89  CG       242.4540  230.9070  151.2620 C.3    36  LEU36       0.0019
     90  CD1      242.6190  230.4290  152.6860 C.3    36  LEU36       0.0001
     91  CD2      241.4670  232.0640  151.1860 C.3    36  LEU36       0.0001
@<TRIPOS>BOND
     1    50    51    1
     2    51    54    1
     3    51    52    1
     4    54    55    1
     5    52    53    2
     6    74    73    1
     7    55    57   ar
     8    55    56   ar
     9    57    59   ar
    10    75    73    1
    11    73    72    1
    12    60    61    1
    13    56    58   ar
    14    59    58   ar
    15    68    69    1
    16    72    69    1
    17    61    64    1
    18    61    62    1
    19    69    70    1
    20    64    65    1
    21    67    66    1
    22    62    63    2
    23    49    48    1
    24    66    65    1
    25    70    71    2
    26    70    76   am
    27    48    46   ar
    28    48    47   ar
    29    46    44   ar
    30    40    41    2
    31    40    39    1
    32    47    45   ar
    33    76    77    1
    34    44    43   ar
    35    45    43   ar
    36    43    42    1
    37    39    42    1
    38    39    38    1
    39    84    85    1
    40    77    78    1
    41    77    80    1
    42    78    79    2
    43    38    34   am
    44    80    81    1
    45     1     2    1
    46    35    34    2
    47    85    88    1
    48    85    86    1
    49    88    89    1
    50    81    82    1
    51    81    83    1
    52    34    33    1
    53     6     5    1
    54    91    89    1
    55    89    90    1
    56     2     5    1
    57     2     3    1
    58    31    28    1
    59    86    87    2
    60    33    32    1
    61    33    36    1
    62     5     7    1
    63     4     3    2
    64    32    29   am
    65     3     8   am
    66    30    29    2
    67    29    28    1
    68    28    27    1
    69    36    37    1
    70     8    14    1
    71     8     9    1
    72    27    17   am
    73    14    13    1
    74     9    10    1
    75     9    12    1
    76    17    16    1
    77    17    18    2
    78    10    15   am
    79    10    11    2
    80    15    16    1
    81    12    13    1
    82    16    19    1
    83    19    20    1
    84    20    21   ar
    85    20    22   ar
    86    21    23   ar
    87    22    24   ar
    88    23    25   ar
    89    24    25   ar
    90    25    26    1
