@<TRIPOS>MOLECULE
tmp/6hu9W00.pdb
 139 132 0 0 0
SMALL
GASTEIGER

@<TRIPOS>ATOM
      1  N        209.1100  260.6090  129.4800 N.3    15  HIS15      -0.1241
      2  CA       207.7000  260.2880  129.3350 C.3    15  HIS15       0.1621
      3  C        207.1880  259.6300  130.6040 C.2    15  HIS15       0.2264
      4  O        207.5800  258.5070  130.9290 O.2    15  HIS15      -0.2867
      5  CB       207.4870  259.3710  128.1310 C.3    15  HIS15       0.0745
      6  CG       206.0500  259.1590  127.7700 C.ar   15  HIS15       0.0817
      7  ND1      205.6580  258.3150  126.7560 N.ar   15  HIS15      -0.2268
      8  CD2      204.9100  259.6680  128.2910 C.ar   15  HIS15       0.1154
      9  CE1      204.3420  258.3190  126.6630 C.ar   15  HIS15       0.1986
     10  NE2      203.8640  259.1350  127.5820 N.ar   15  HIS15      -0.2212
     11  N        204.5590  257.6750  131.6240 N.3    17  VAL17      -0.1245
     12  CA       203.5350  256.8500  130.9980 C.3    17  VAL17       0.1561
     13  C        202.4630  256.5390  132.0300 C.2    17  VAL17       0.2260
     14  O        202.7700  256.2550  133.1900 O.2    17  VAL17      -0.2867
     15  CB       204.1610  255.5740  130.4210 C.3    17  VAL17       0.0252
     16  CG1      203.1430  254.7300  129.7340 C.3    17  VAL17       0.0019
     17  CG2      205.2290  255.9500  129.4400 C.3    17  VAL17       0.0019
     18  N        199.3040  241.0850  127.7590 N.3    26  VAL26      -0.1245
     19  CA       200.2390  240.3960  126.8710 C.3    26  VAL26       0.1561
     20  C        200.9380  239.2510  127.5940 C.2    26  VAL26       0.2260
     21  O        201.1070  238.1660  127.0260 O.2    26  VAL26      -0.2867
     22  CB       201.2430  241.4080  126.2820 C.3    26  VAL26       0.0252
     23  CG1      202.4170  240.7250  125.6340 C.3    26  VAL26       0.0019
     24  CG2      200.5820  242.2790  125.2620 C.3    26  VAL26       0.0019
     25  N        200.7580  235.3090  126.8600 N.3    30  LEU30      -0.1245
     26  CA       201.9890  234.5520  126.6520 C.3    30  LEU30       0.1561
     27  C        202.0030  233.2720  127.4800 C.2    30  LEU30       0.2260
     28  O        202.4510  232.2220  127.0010 O.2    30  LEU30      -0.2867
     29  CB       203.1880  235.4330  126.9910 C.3    30  LEU30       0.0270
     30  CG       204.4390  235.3090  126.1340 C.3    30  LEU30       0.0019
     31  CD1      204.0830  235.4070  124.6910 C.3    30  LEU30       0.0001
     32  CD2      205.4110  236.4060  126.4810 C.3    30  LEU30       0.0001
     33  N        197.3330  237.0720  121.9160 N.3    58  LEU58      -0.1245
     34  CA       198.6450  237.7040  122.0090 C.3    58  LEU58       0.1561
     35  C        198.8250  238.7800  120.9460 C.2    58  LEU58       0.2260
     36  O        199.3180  239.8800  121.2390 O.2    58  LEU58      -0.2867
     37  CB       199.7260  236.6400  121.8770 C.3    58  LEU58       0.0270
     38  CG       201.1640  237.1060  121.9570 C.3    58  LEU58       0.0019
     39  CD1      201.4020  237.5800  123.3490 C.3    58  LEU58       0.0001
     40  CD2      202.1010  235.9750  121.6070 C.3    58  LEU58       0.0001
     41  N        199.0500  242.8150  121.7510 N.3    62  SER62      -0.1217
     42  CA       200.1700  243.6030  121.2550 C.3    62  SER62       0.1889
     43  C        199.7070  244.7350  120.3480 C.2    62  SER62       0.2288
     44  O        200.2660  245.8360  120.3990 O.2    62  SER62      -0.2866
     45  CB       201.1440  242.6960  120.5180 C.3    62  SER62       0.2089
     46  OG       202.1410  243.4560  119.8730 O.3    62  SER62      -0.2183
     47  N        198.4270  247.4920  122.5440 N.3    65  TRP65      -0.1227
     48  CA       199.5770  248.1980  123.1110 C.3    65  TRP65       0.1737
     49  C        200.1720  249.1750  122.1020 C.2    65  TRP65       0.2595
     50  O        200.5420  250.3020  122.4530 O.2    65  TRP65      -0.2718
     51  CB       200.6140  247.1670  123.5640 C.3    65  TRP65       0.0564
     52  CG       201.7970  247.6100  124.4010 C.ar   65  TRP65       0.0003
     53  CD1      202.2930  248.8620  124.5570 C.ar   65  TRP65       0.0946
     54  CD2      202.6350  246.7540  125.1800 C.ar   65  TRP65       0.0152
     55  NE1      203.3850  248.8420  125.3830 N.ar   65  TRP65      -0.2442
     56  CE2      203.6120  247.5540  125.7820 C.ar   65  TRP65       0.0810
     57  CE3      202.6470  245.3840  125.4300 C.ar   65  TRP65       0.0012
     58  CZ2      204.5920  247.0300  126.6110 C.ar   65  TRP65       0.0191
     59  CZ3      203.6180  244.8700  126.2520 C.ar   65  TRP65       0.0001
     60  CH2      204.5720  245.6860  126.8360 C.ar   65  TRP65       0.0015
     61  N        200.2440  248.7700  120.8360 N.am   66  PHE66      -0.1976
     62  CA       200.7740  249.6630  119.8140 C.3    66  PHE66       0.1639
     63  C        199.8100  250.7970  119.4920 C.2    66  PHE66       0.2290
     64  O        200.2460  251.8990  119.1460 O.2    66  PHE66      -0.2864
     65  CB       201.1060  248.8670  118.5660 C.3    66  PHE66       0.0560
     66  CG       202.3490  248.0600  118.6960 C.ar   66  PHE66      -0.0200
     67  CD1      203.4870  248.6240  119.2250 C.ar   66  PHE66      -0.0042
     68  CD2      202.3850  246.7400  118.2960 C.ar   66  PHE66      -0.0042
     69  CE1      204.6400  247.8970  119.3400 C.ar   66  PHE66      -0.0003
     70  CE2      203.5360  246.0010  118.4270 C.ar   66  PHE66      -0.0003
     71  CZ       204.6650  246.5810  118.9540 C.ar   66  PHE66      -0.0000
     72  N        200.5310  253.2390  122.0850 N.3    69  ILE69      -0.1245
     73  CA       201.7950  253.9480  121.9270 C.3    69  ILE69       0.1561
     74  C        201.7210  254.9470  120.7730 C.2    69  ILE69       0.2260
     75  O        202.3650  255.9990  120.8280 O.2    69  ILE69      -0.2867
     76  CB       202.9790  252.9720  121.7930 C.3    69  ILE69       0.0252
     77  CG1      204.2720  253.6590  122.1840 C.3    69  ILE69       0.0019
     78  CG2      203.1790  252.4850  120.3860 C.3    69  ILE69       0.0019
     79  CD1      205.4750  252.7340  122.1270 C.3    69  ILE69       0.0001
     80  N        199.9690  257.9440  122.4080 N.3    72  GLU72      -0.1245
     81  CA       200.9060  258.7560  123.1780 C.3    72  GLU72       0.1567
     82  C        201.9110  259.4700  122.2850 C.2    72  GLU72       0.2260
     83  O        202.4140  260.5340  122.6560 O.2    72  GLU72      -0.2867
     84  CB       201.6400  257.8910  124.2010 C.3    72  GLU72       0.0388
     85  CG       200.7550  257.3680  125.3090 C.3    72  GLU72       0.1160
     86  CD       201.4050  256.2620  126.1150 C.2    72  GLU72       0.3649
     87  OE1      202.5520  255.8840  125.8110 O.co2  72  GLU72      -0.2457
     88  OE2      200.7620  255.7590  127.0570 O.co2  72  GLU72      -0.2457
     89  N        206.2080  262.4360  123.0740 N.3    79  HIS79      -0.1241
     90  CA       207.4820  262.0200  122.5010 C.3    79  HIS79       0.1621
     91  C        208.2640  263.2620  122.1100 C.2    79  HIS79       0.2264
     92  O        208.0930  263.8170  121.0290 O.2    79  HIS79      -0.2867
     93  CB       207.2560  261.1000  121.3120 C.3    79  HIS79       0.0745
     94  CG       206.8170  259.7220  121.6920 C.ar   79  HIS79       0.0817
     95  ND1      207.3810  258.5910  121.1500 N.ar   79  HIS79      -0.2268
     96  CD2      205.8790  259.2940  122.5670 C.ar   79  HIS79       0.1154
     97  CE1      206.8060  257.5230  121.6720 C.ar   79  HIS79       0.1986
     98  NE2      205.8910  257.9230  122.5330 N.ar   79  HIS79      -0.2212
     99  N        212.8380  261.4220  124.4880 N.3    83  VAL83      -0.1245
    100  CA       212.0640  260.1930  124.3960 C.3    83  VAL83       0.1561
    101  C        212.2190  259.5500  123.0210 C.2    83  VAL83       0.2260
    102  O        212.2660  258.3170  122.9050 O.2    83  VAL83      -0.2867
    103  CB       210.5970  260.4870  124.7350 C.3    83  VAL83       0.0252
    104  CG1      209.7920  259.2140  124.7920 C.3    83  VAL83       0.0019
    105  CG2      210.5180  261.1970  126.0580 C.3    83  VAL83       0.0019
    106  N        213.6740  255.7830  122.3450 N.3    87  ILE87      -0.1245
    107  CA       213.0160  254.6710  121.6620 C.3    87  ILE87       0.1561
    108  C        213.8110  254.2420  120.4370 C.2    87  ILE87       0.2260
    109  O        213.7980  253.0580  120.0720 O.2    87  ILE87      -0.2867
    110  CB       211.5570  254.9960  121.3000 C.3    87  ILE87       0.0252
    111  CG1      211.4570  256.2480  120.4460 C.3    87  ILE87       0.0019
    112  CG2      210.7290  255.1530  122.5500 C.3    87  ILE87       0.0019
    113  CD1      210.0410  256.6040  120.0960 C.3    87  ILE87       0.0001
    114  N        216.4780  252.0120  121.9220 N.3    90  GLY90      -0.1210
    115  CA       215.8950  250.7570  122.3640 C.3    90  GLY90       0.1956
    116  C        215.5760  249.8180  121.2180 C.2    90  GLY90       0.2611
    117  O        215.7990  248.6030  121.3190 O.2    90  GLY90      -0.2717
    118  N        215.0610  250.3600  120.1100 N.am   91  PHE91      -0.1976
    119  CA       214.8580  249.5140  118.9430 C.3    91  PHE91       0.1639
    120  C        216.1750  249.0190  118.3660 C.2    91  PHE91       0.2290
    121  O        216.2380  247.8880  117.8670 O.2    91  PHE91      -0.2864
    122  CB       214.0750  250.2470  117.8660 C.3    91  PHE91       0.0560
    123  CG       213.7300  249.3800  116.7070 C.ar   91  PHE91      -0.0200
    124  CD1      212.6890  248.4760  116.8050 C.ar   91  PHE91      -0.0042
    125  CD2      214.4640  249.4350  115.5340 C.ar   91  PHE91      -0.0042
    126  CE1      212.3720  247.6580  115.7550 C.ar   91  PHE91      -0.0003
    127  CE2      214.1550  248.6140  114.4870 C.ar   91  PHE91      -0.0003
    128  CZ       213.1050  247.7280  114.5940 C.ar   91  PHE91      -0.0000
    129  N        217.1220  246.0190  120.4650 N.3    94  PHE94      -0.1241
    130  CA       216.3140  244.8400  120.1460 C.3    94  PHE94       0.1605
    131  C        216.7210  244.2200  118.8080 C.2    94  PHE94       0.2264
    132  O        216.7350  242.9870  118.6560 O.2    94  PHE94      -0.2867
    133  CB       214.8390  245.2280  120.1540 C.3    94  PHE94       0.0534
    134  CG       213.9430  244.2710  119.4310 C.ar   94  PHE94      -0.0203
    135  CD1      213.6030  243.0550  119.9960 C.ar   94  PHE94      -0.0042
    136  CD2      213.3980  244.6140  118.2020 C.ar   94  PHE94      -0.0042
    137  CE1      212.7610  242.1870  119.3350 C.ar   94  PHE94      -0.0003
    138  CE2      212.5560  243.7540  117.5380 C.ar   94  PHE94      -0.0003
    139  CZ       212.2370  242.5370  118.1040 C.ar   94  PHE94      -0.0000
@<TRIPOS>BOND
     1   127   128   ar
     2   127   125   ar
     3   128   126   ar
     4   125   123   ar
     5   126   124   ar
     6   123   124   ar
     7   123   122    1
     8   138   139   ar
     9   138   136   ar
    10   122   119    1
    11   121   120    2
    12   139   137   ar
    13   136   134   ar
    14    68    70   ar
    15    68    66   ar
    16   120   119    1
    17    70    71   ar
    18    65    66    1
    19    65    62    1
    20   132   131    2
    21    66    67   ar
    22   131   130    1
    23   119   118    1
    24    71    69   ar
    25    64    63    2
    26    67    69   ar
    27   137   135   ar
    28   134   135   ar
    29   134   133    1
    30    63    62    1
    31    62    61    1
    32    46    45    1
    33   109   108    2
    34   113   111    1
    35   118   116   am
    36   130   133    1
    37   130   129    1
    38    43    44    2
    39    43    42    1
    40    78    76    1
    41   108   107    1
    42   111   110    1
    43    45    42    1
    44    74    75    2
    45    74    73    1
    46    61    49   am
    47    35    36    2
    48    35    34    1
    49    92    91    2
    50    95    97   ar
    51    95    94   ar
    52   116   117    2
    53   116   115    1
    54    42    41    1
    55   110   107    1
    56   110   112    1
    57    93    94    1
    58    93    90    1
    59    40    38    1
    60   107   106    1
    61    97    98   ar
    62    94    96   ar
    63    76    73    1
    64    76    77    1
    65    37    38    1
    66    37    34    1
    67    33    34    1
    68   114   115    1
    69    73    72    1
    70    38    39    1
    71    49    50    2
    72    49    48    1
    73    91    90    1
    74    79    77    1
    75    82    83    2
    76    82    81    1
    77    80    81    1
    78    90    89    1
    79    98    96   ar
    80    47    48    1
    81   102   101    2
    82   101   100    1
    83    48    51    1
    84    81    84    1
    85    51    52    1
    86    84    85    1
    87   100    99    1
    88   100   103    1
    89    52    53   ar
    90    52    54   ar
    91    53    55   ar
    92    31    30    1
    93   103   104    1
    94   103   105    1
    95    54    57   ar
    96    54    56   ar
    97    24    22    1
    98    85    86    1
    99    55    56   ar
   100    57    59   ar
   101    23    22    1
   102    56    58   ar
   103    87    86   ar
   104    86    88   ar
   105    30    32    1
   106    30    29    1
   107    59    60   ar
   108    22    19    1
   109    58    60   ar
   110    26    25    1
   111    26    29    1
   112    26    27    1
   113     9     7   ar
   114     9    10   ar
   115     7     6   ar
   116    19    20    1
   117    19    18    1
   118    28    27    2
   119    21    20    2
   120    10     8   ar
   121     6     5    1
   122     6     8   ar
   123     5     2    1
   124     2     1    1
   125     2     3    1
   126    17    15    1
   127    16    15    1
   128    15    12    1
   129     3     4    2
   130    12    11    1
   131    12    13    1
   132    13    14    2
