@<TRIPOS>MOLECULE
tmp/6hu9M00.pdb
 111 103 0 0 0
SMALL
GASTEIGER

@<TRIPOS>ATOM
      1  N        207.7230  200.9150  230.5420 N.3    38  LEU38      -0.1245
      2  CA       208.4890  199.7640  231.0200 C.3    38  LEU38       0.1561
      3  C        208.2010  198.5110  230.2010 C.2    38  LEU38       0.2260
      4  O        209.1260  197.7540  229.8800 O.2    38  LEU38      -0.2867
      5  CB       208.1960  199.5090  232.4940 C.3    38  LEU38       0.0270
      6  CG       208.9080  198.3050  233.1160 C.3    38  LEU38       0.0019
      7  CD1      210.4150  198.4060  232.9610 C.3    38  LEU38       0.0001
      8  CD2      208.5360  198.1690  234.5750 C.3    38  LEU38       0.0001
      9  N        210.0960  198.8000  226.9240 N.3    41  VAL41      -0.1231
     10  CA       211.5270  198.5260  227.0610 C.3    41  VAL41       0.1692
     11  C        211.7740  197.0280  227.2430 C.2    41  VAL41       0.2591
     12  O        212.7130  196.4670  226.6580 O.2    41  VAL41      -0.2718
     13  CB       212.1140  199.3680  228.2060 C.3    41  VAL41       0.0266
     14  CG1      213.5560  199.0170  228.4560 C.3    41  VAL41       0.0020
     15  CG2      212.0230  200.8210  227.8500 C.3    41  VAL41       0.0020
     16  N        210.8780  196.3450  227.9670 N.am   42  ILE42      -0.1980
     17  CA       210.9810  194.8940  228.1460 C.3    42  ILE42       0.1595
     18  C        210.8160  194.1770  226.8120 C.2    42  ILE42       0.2287
     19  O        211.6070  193.2890  226.4600 O.2    42  ILE42      -0.2864
     20  CB       209.9420  194.4060  229.1700 C.3    42  ILE42       0.0276
     21  CG1      210.3310  194.8250  230.5770 C.3    42  ILE42       0.0022
     22  CG2      209.7920  192.9020  229.1280 C.3    42  ILE42       0.0022
     23  CD1      209.2850  194.4860  231.5850 C.3    42  ILE42       0.0001
     24  N        213.8580  194.8590  224.3860 N.3    45  VAL45      -0.1231
     25  CA       215.1160  194.2260  224.7710 C.3    45  VAL45       0.1692
     26  C        215.0460  192.7110  224.5990 C.2    45  VAL45       0.2592
     27  O        215.9460  192.1020  223.9990 O.2    45  VAL45      -0.2718
     28  CB       215.4950  194.6330  226.2020 C.3    45  VAL45       0.0266
     29  CG1      216.5600  193.7330  226.7500 C.3    45  VAL45       0.0020
     30  CG2      216.0140  196.0380  226.1930 C.3    45  VAL45       0.0020
     31  N        213.9710  192.0790  225.0880 N.am   46  THR46      -0.1953
     32  CA       213.8370  190.6380  224.8960 C.3    46  THR46       0.1897
     33  C        213.6320  190.2830  223.4300 C.2    46  THR46       0.2313
     34  O        214.0590  189.2090  222.9870 O.2    46  THR46      -0.2863
     35  CB       212.6960  190.1000  225.7470 C.3    46  THR46       0.1794
     36  OG1      211.6510  191.0720  225.8000 O.3    46  THR46      -0.2208
     37  CG2      213.1830  189.8430  227.1410 C.3    46  THR46       0.0378
     38  N        219.0760  180.5890  229.1680 N.3    74  ASN74      -0.1240
     39  CA       217.9850  181.4640  229.6340 C.3    74  ASN74       0.1653
     40  C        217.0850  181.9260  228.4940 C.2    74  ASN74       0.2266
     41  O        216.4880  182.9980  228.5640 O.2    74  ASN74      -0.2867
     42  CB       218.5050  182.6820  230.4030 C.3    74  ASN74       0.1155
     43  CG       219.4990  182.3160  231.4570 C.2    74  ASN74       0.2627
     44  OD1      220.5970  182.8650  231.5050 O.2    74  ASN74      -0.2716
     45  ND2      219.1270  181.3810  232.3160 N.am   74  ASN74      -0.0877
     46  N        213.5250  182.0880  229.4570 N.3    77  ILE77      -0.1245
     47  CA       213.2660  183.3270  230.1840 C.3    77  ILE77       0.1561
     48  C        212.9150  184.4430  229.2120 C.2    77  ILE77       0.2260
     49  O        211.9170  185.1460  229.3930 O.2    77  ILE77      -0.2867
     50  CB       214.4750  183.7010  231.0620 C.3    77  ILE77       0.0252
     51  CG1      214.5780  182.7720  232.2620 C.3    77  ILE77       0.0019
     52  CG2      214.3810  185.1240  231.5430 C.3    77  ILE77       0.0019
     53  CD1      215.8040  183.0100  233.0820 C.3    77  ILE77       0.0001
     54  N        209.2170  185.8930  228.7870 N.3    81  LEU81      -0.1245
     55  CA       209.1860  187.3050  229.1340 C.3    81  LEU81       0.1561
     56  C        208.5860  188.1290  228.0100 C.2    81  LEU81       0.2260
     57  O        207.7300  188.9730  228.2600 O.2    81  LEU81      -0.2867
     58  CB       210.5920  187.7930  229.4650 C.3    81  LEU81       0.0270
     59  CG       210.8520  188.3630  230.8550 C.3    81  LEU81       0.0019
     60  CD1      212.3340  188.5370  231.0490 C.3    81  LEU81       0.0001
     61  CD2      210.1540  189.6770  231.0490 C.3    81  LEU81       0.0001
     62  N        207.6700  197.7660  240.5900 N.3   234  PHE234     -0.1241
     63  CA       207.9850  196.5100  241.2560 C.3   234  PHE234      0.1605
     64  C        206.7730  195.5940  241.3570 C.2   234  PHE234      0.2264
     65  O        206.9280  194.3730  241.2960 O.2   234  PHE234     -0.2867
     66  CB       208.5760  196.7830  242.6300 C.3   234  PHE234      0.0534
     67  CG       209.9980  197.2270  242.5830 C.ar  234  PHE234     -0.0203
     68  CD1      210.8820  196.6510  241.6930 C.ar  234  PHE234     -0.0042
     69  CD2      210.4490  198.2380  243.4060 C.ar  234  PHE234     -0.0042
     70  CE1      212.1910  197.0600  241.6390 C.ar  234  PHE234     -0.0003
     71  CE2      211.7580  198.6530  243.3540 C.ar  234  PHE234     -0.0003
     72  CZ       212.6270  198.0670  242.4720 C.ar  234  PHE234     -0.0000
     73  N        206.4710  194.0420  237.9160 N.3   237  MET237     -0.1245
     74  CA       207.5110  193.0290  237.7820 C.3   237  MET237      0.1570
     75  C        207.2060  191.7880  238.6030 C.2   237  MET237      0.2261
     76  O        207.5360  190.6830  238.1780 O.2   237  MET237     -0.2867
     77  CB       208.8620  193.5960  238.1950 C.3   237  MET237      0.0387
     78  CG       209.5090  194.4980  237.1740 C.3   237  MET237      0.0595
     79  SD       211.1560  194.9530  237.7280 S.3   237  MET237     -0.1393
     80  CE       211.4470  196.4190  236.7530 C.3   237  MET237      0.0692
     81  N        204.3820  189.9190  236.6760 N.3   240  LEU240     -0.1231
     82  CA       204.9860  189.3630  235.4710 C.3   240  LEU240      0.1693
     83  C        205.9570  188.2350  235.7880 C.2   240  LEU240      0.2591
     84  O        206.0570  187.2780  235.0190 O.2   240  LEU240     -0.2718
     85  CB       205.6950  190.4630  234.6870 C.3   240  LEU240      0.0284
     86  CG       206.3420  190.1110  233.3520 C.3   240  LEU240      0.0019
     87  CD1      205.3470  189.4000  232.4840 C.3   240  LEU240      0.0001
     88  CD2      206.7690  191.3830  232.7010 C.3   240  LEU240      0.0001
     89  N        206.6510  188.3040  236.9210 N.am  241  ALA241     -0.1980
     90  CA       207.5590  187.2290  237.2920 C.3   241  ALA241      0.1597
     91  C        206.7970  185.9770  237.6850 C.2   241  ALA241      0.2287
     92  O        207.2330  184.8640  237.3720 O.2   241  ALA241     -0.2864
     93  CB       208.4490  187.6800  238.4370 C.3   241  ALA241      0.0319
     94  N        205.5990  184.5050  234.4280 N.3   244  VAL244     -0.1231
     95  CA       206.6640  183.9890  233.5760 C.3   244  VAL244      0.1692
     96  C        207.2700  182.7250  234.1670 C.2   244  VAL244      0.2592
     97  O        207.5620  181.7690  233.4460 O.2   244  VAL244     -0.2718
     98  CB       207.7230  185.0910  233.3380 C.3   244  VAL244      0.0266
     99  CG1      209.0780  184.5270  232.9410 C.3   244  VAL244      0.0020
    100  CG2      207.2560  186.0240  232.2610 C.3   244  VAL244      0.0020
    101  N        207.3970  182.6520  235.4860 N.am  245  PHE245     -0.1976
    102  CA       208.1370  181.5550  236.0830 C.3   245  PHE245      0.1639
    103  C        207.2690  180.4450  236.6470 C.2   245  PHE245      0.2290
    104  O        207.7880  179.3620  236.9310 O.2   245  PHE245     -0.2864
    105  CB       209.0180  182.0820  237.2030 C.3   245  PHE245      0.0560
    106  CG       210.2170  182.8340  236.7340 C.ar  245  PHE245     -0.0200
    107  CD1      211.2000  182.2000  235.9980 C.ar  245  PHE245     -0.0042
    108  CD2      210.3730  184.1710  237.0410 C.ar  245  PHE245     -0.0042
    109  CE1      212.3060  182.8900  235.5700 C.ar  245  PHE245     -0.0003
    110  CE2      211.4800  184.8620  236.6160 C.ar  245  PHE245     -0.0003
    111  CZ       212.4430  184.2220  235.8740 C.ar  245  PHE245     -0.0000
@<TRIPOS>BOND
     1    34    33    2
     2    33    32    1
     3    27    26    2
     4    24    25    1
     5    26    25    1
     6    26    31   am
     7    25    28    1
     8    32    31    1
     9    32    35    1
    10    35    36    1
    11    35    37    1
    12    30    28    1
    13    28    29    1
    14    19    18    2
    15    12    11    2
    16    18    17    1
    17     9    10    1
    18    10    11    1
    19    10    13    1
    20    11    16   am
    21    15    13    1
    22    16    17    1
    23    56    57    2
    24    56    55    1
    25    17    20    1
    26    13    14    1
    27    40    41    2
    28    40    39    1
    29    54    55    1
    30    22    20    1
    31    55    58    1
    32    38    39    1
    33    20    21    1
    34    48    49    2
    35    48    47    1
    36    46    47    1
    37    58    59    1
    38    39    42    1
    39     4     3    2
    40    47    50    1
    41     3     2    1
    42    42    43    1
    43     1     2    1
    44    21    23    1
    45    59    61    1
    46    59    60    1
    47     2     5    1
    48    50    52    1
    49    50    51    1
    50    43    44    2
    51    43    45   am
    52   100    98    1
    53    51    53    1
    54    87    86    1
    55     5     6    1
    56    88    86    1
    57    99    98    1
    58     7     6    1
    59     6     8    1
    60    98    95    1
    61    86    85    1
    62    97    96    2
    63    95    96    1
    64    95    94    1
    65    96   101   am
    66    85    82    1
    67    84    83    2
    68    82    83    1
    69    82    81    1
    70   101   102    1
    71   109   111   ar
    72   109   107   ar
    73    83    89   am
    74   111   110   ar
    75   107   106   ar
    76   102   103    1
    77   102   105    1
    78   110   108   ar
    79   103   104    2
    80   106   108   ar
    81   106   105    1
    82    80    79    1
    83    89    90    1
    84    78    79    1
    85    78    77    1
    86    90    91    1
    87    90    93    1
    88    92    91    2
    89    74    73    1
    90    74    77    1
    91    74    75    1
    92    76    75    2
    93    62    63    1
    94    63    64    1
    95    63    66    1
    96    65    64    2
    97    70    68   ar
    98    70    72   ar
    99    68    67   ar
   100    72    71   ar
   101    67    66    1
   102    67    69   ar
   103    71    69   ar
