@<TRIPOS>MOLECULE
tmp/6hu9Y02.pdb
 86 82 0 0 0
SMALL
GASTEIGER

@<TRIPOS>ATOM
      1  N        221.9110  224.7940  168.2500 N.3    84  LEU84      -0.1245
      2  CA       221.3000  223.6900  168.9890 C.3    84  LEU84       0.1561
      3  C        219.9160  223.3550  168.4560 C.2    84  LEU84       0.2260
      4  O        219.5680  222.1770  168.3180 O.2    84  LEU84      -0.2867
      5  CB       221.2100  224.0250  170.4720 C.3    84  LEU84       0.0270
      6  CG       222.4810  223.9640  171.3060 C.3    84  LEU84       0.0019
      7  CD1      222.1020  224.0330  172.7600 C.3    84  LEU84       0.0001
      8  CD2      223.2660  222.7000  171.0130 C.3    84  LEU84       0.0001
      9  N        220.2990  221.4870  165.0210 N.3    87  VAL87      -0.1231
     10  CA       220.6870  220.0770  165.0660 C.3    87  VAL87       0.1692
     11  C        219.6450  219.2390  165.8030 C.2    87  VAL87       0.2592
     12  O        219.5130  218.0390  165.5400 O.2    87  VAL87      -0.2718
     13  CB       222.0860  219.8910  165.6720 C.3    87  VAL87       0.0266
     14  CG1      223.1110  220.5930  164.8270 C.3    87  VAL87       0.0020
     15  CG2      222.1310  220.4010  167.0730 C.3    87  VAL87       0.0020
     16  N        218.8400  219.8530  166.6710 N.am   88  GLY88      -0.1957
     17  CA       217.7330  219.1220  167.2620 C.3    88  GLY88       0.1869
     18  C        216.6350  218.8280  166.2590 C.2    88  GLY88       0.2309
     19  O        216.0980  217.7140  166.2210 O.2    88  GLY88      -0.2863
     20  N        217.1760  218.6000  163.0910 N.3    90  PHE90      -0.1227
     21  CA       217.7720  217.6050  162.2100 C.3    90  PHE90       0.1736
     22  C        217.6530  216.2100  162.7950 C.2    90  PHE90       0.2595
     23  O        217.3700  215.2590  162.0640 O.2    90  PHE90      -0.2718
     24  CB       219.2340  217.9310  161.9460 C.3    90  PHE90       0.0547
     25  CG       219.9030  216.9690  161.0140 C.ar   90  PHE90      -0.0202
     26  CD1      219.7020  217.0550  159.6520 C.ar   90  PHE90      -0.0042
     27  CD2      220.7370  215.9860  161.4960 C.ar   90  PHE90      -0.0042
     28  CE1      220.3140  216.1750  158.7930 C.ar   90  PHE90      -0.0003
     29  CE2      221.3430  215.1010  160.6410 C.ar   90  PHE90      -0.0003
     30  CZ       221.1320  215.1980  159.2880 C.ar   90  PHE90      -0.0000
     31  N        217.8590  216.0710  164.1070 N.am   91  ALA91      -0.1966
     32  CA       217.7210  214.7640  164.7430 C.3    91  ALA91       0.1728
     33  C        216.2820  214.2710  164.6950 C.2    91  ALA91       0.2616
     34  O        216.0390  213.0750  164.5040 O.2    91  ALA91      -0.2715
     35  CB       218.2150  214.8270  166.1830 C.3    91  ALA91       0.0334
     36  N        215.3210  215.1880  164.8110 N.am   92  VAL92      -0.1977
     37  CA       213.9100  214.8170  164.7260 C.3    92  VAL92       0.1596
     38  C        213.5570  214.3250  163.3250 C.2    92  VAL92       0.2287
     39  O        213.0710  213.1980  163.1510 O.2    92  VAL92      -0.2864
     40  CB       213.0240  215.9970  165.1510 C.3    92  VAL92       0.0276
     41  CG1      211.5740  215.7120  164.8290 C.3    92  VAL92       0.0022
     42  CG2      213.1830  216.2350  166.6240 C.3    92  VAL92       0.0022
     43  N        215.4900  213.3410  161.0790 N.3    94  ARG94      -0.1231
     44  CA       216.3090  212.1960  160.7370 C.3    94  ARG94       0.1694
     45  C        215.7690  210.9250  161.3670 C.2    94  ARG94       0.2591
     46  O        215.8520  209.8560  160.7570 O.2    94  ARG94      -0.2718
     47  CB       217.7380  212.4580  161.1880 C.3    94  ARG94       0.0321
     48  CG       218.7460  211.5660  160.5800 C.3    94  ARG94       0.0489
     49  CD       218.9740  211.9130  159.1400 C.3    94  ARG94       0.2205
     50  NE       219.5400  210.7700  158.4470 N.pl3  94  ARG94      -0.0865
     51  CZ       218.8050  209.8470  157.8530 C.cat  94  ARG94       0.5346
     52  NH1      217.4880  209.9640  157.8580 N.pl3  94  ARG94       0.1354
     53  NH2      219.3730  208.8200  157.2480 N.pl3  94  ARG94       0.1354
     54  N        215.2120  211.0190  162.5790 N.am   95  MET95      -0.1979
     55  CA       214.5070  209.8780  163.1470 C.3    95  MET95       0.1605
     56  C        213.2330  209.5780  162.3830 C.2    95  MET95       0.2287
     57  O        212.7900  208.4280  162.3480 O.2    95  MET95      -0.2864
     58  CB       214.1850  210.1170  164.6180 C.3    95  MET95       0.0413
     59  CG       215.2870  209.6890  165.5450 C.3    95  MET95       0.0598
     60  SD       215.8570  208.0190  165.1920 S.3    95  MET95      -0.1393
     61  CE       217.2210  207.8730  166.3440 C.3    95  MET95       0.0692
     62  N        212.8510  209.1480  159.2880 N.3    97  GLY97      -0.1210
     63  CA       213.3770  208.8430  157.9730 C.3    97  GLY97       0.1956
     64  C        213.4400  207.3600  157.6930 C.2    97  GLY97       0.2612
     65  O        213.1590  206.5490  158.5750 O.2    97  GLY97      -0.2717
     66  N        213.8270  206.9940  156.4750 N.am   98  GLY98      -0.1942
     67  CA       213.8320  205.6060  156.0680 C.3    98  GLY98       0.2014
     68  C        214.9180  204.7790  156.7290 C.2    98  GLY98       0.2639
     69  O        215.7430  205.2740  157.4890 O.2    98  GLY98      -0.2714
     70  N        214.9050  203.4850  156.4260 N.am   99  GLN99      -0.1963
     71  CA       215.8140  202.5450  157.0620 C.3    99  GLN99       0.1733
     72  C        217.2410  202.7250  156.5620 C.2    99  GLN99       0.2616
     73  O        217.4860  203.1940  155.4490 O.2    99  GLN99      -0.2715
     74  CB       215.3820  201.1090  156.7910 C.3    99  GLN99       0.0408
     75  CG       214.0380  200.7460  157.3400 C.3    99  GLN99       0.0908
     76  CD       213.7070  199.2990  157.0760 C.2    99  GLN99       0.2608
     77  OE1      214.4780  198.5810  156.4360 O.2    99  GLN99      -0.2717
     78  NE2      212.5570  198.8560  157.5680 N.am   99  GLN99      -0.0878
     79  N        218.1890  202.3350  157.4080 N.am  100  ASP100     -0.1971
     80  CA       219.5880  202.3220  157.0200 C.3   100  ASP100      0.1709
     81  C        219.8390  201.2450  155.9750 C.2   100  ASP100      0.2293
     82  O        219.0820  200.2810  155.8540 O.2   100  ASP100     -0.2864
     83  CB       220.4760  202.0700  158.2340 C.3   100  ASP100      0.1436
     84  CG       220.4020  203.1830  159.2550 C.2   100  ASP100      0.3671
     85  OD1      220.3300  204.3610  158.8540 O.co2 100  ASP100     -0.2456
     86  OD2      220.4240  202.8810  160.4640 O.co2 100  ASP100     -0.2456
@<TRIPOS>BOND
     1    73    72    2
     2    82    81    2
     3    81    80    1
     4    67    66    1
     5    67    68    1
     6    70    68   am
     7    70    71    1
     8    77    76    2
     9    66    64   am
    10    72    71    1
    11    72    79   am
    12    68    69    2
    13    74    71    1
    14    74    75    1
    15    80    79    1
    16    80    83    1
    17    76    75    1
    18    76    78   am
    19    53    51    1
    20    64    63    1
    21    64    65    2
    22    51    52    1
    23    51    50    2
    24    63    62    1
    25    83    84    1
    26    50    49    1
    27    28    30   ar
    28    28    26   ar
    29    85    84   ar
    30    49    48    1
    31    84    86   ar
    32    30    29   ar
    33    26    25   ar
    34    48    47    1
    35    29    27   ar
    36    44    43    1
    37    44    47    1
    38    44    45    1
    39    46    45    2
    40    25    27   ar
    41    25    24    1
    42    45    54   am
    43    24    21    1
    44    23    22    2
    45    21    22    1
    46    21    20    1
    47    57    56    2
    48    56    55    1
    49    54    55    1
    50    22    31   am
    51    55    58    1
    52    39    38    2
    53    38    37    1
    54    31    32    1
    55    34    33    2
    56    58    59    1
    57    33    32    1
    58    33    36   am
    59    37    36    1
    60    37    40    1
    61    32    35    1
    62    14    13    1
    63    41    40    1
    64     9    10    1
    65    10    13    1
    66    10    11    1
    67    40    42    1
    68    60    59    1
    69    60    61    1
    70    12    11    2
    71    13    15    1
    72    11    16   am
    73    19    18    2
    74    18    17    1
    75    16    17    1
    76     1     2    1
    77     4     3    2
    78     3     2    1
    79     2     5    1
    80     5     6    1
    81     8     6    1
    82     6     7    1
