@<TRIPOS>MOLECULE
tmp/6hubH00.pdb
 138 130 0 0 0
SMALL
GASTEIGER

@<TRIPOS>ATOM
      1  N         64.9050 -139.0140   44.8580 N.3     1  THR1       -0.1218
      2  CA        65.3250 -137.8770   45.6180 C.3     1  THR1        0.1862
      3  C         65.3050 -138.2880   47.0500 C.2     1  THR1        0.2287
      4  O         64.4480 -139.0200   47.4550 O.2     1  THR1       -0.2866
      5  CB        64.3120 -136.7690   45.4320 C.3     1  THR1        0.1770
      6  OG1       64.4780 -136.0870   44.2190 O.3     1  THR1       -0.2211
      7  CG2       64.5970 -135.7400   46.4830 C.3     1  THR1        0.0375
      8  N         70.6170 -136.1500   42.3230 N.3    19  ARG19      -0.1231
      9  CA        70.1630 -136.8250   41.0970 C.3    19  ARG19       0.1694
     10  C         68.8100 -136.2900   40.6170 C.2    19  ARG19       0.2592
     11  O         67.8100 -136.3950   41.3290 O.2    19  ARG19      -0.2718
     12  CB        70.0730 -138.3420   41.3090 C.3    19  ARG19       0.0321
     13  CG        69.4860 -139.1030   40.1270 C.3    19  ARG19       0.0489
     14  CD        69.5540 -140.6050   40.3280 C.3    19  ARG19       0.2205
     15  NE        70.9230 -141.1130   40.2580 N.pl3  19  ARG19      -0.0865
     16  CZ        71.2780 -142.3830   40.4570 C.cat  19  ARG19       0.5346
     17  NH1       70.3710 -143.3170   40.7570 N.pl3  19  ARG19       0.1354
     18  NH2       72.5590 -142.7270   40.3600 N.pl3  19  ARG19       0.1354
     19  N         68.7910 -135.7370   39.4060 N.am   20  ALA20      -0.1966
     20  CA        67.5570 -135.3080   38.7450 C.3    20  ALA20       0.1728
     21  C         67.2570 -136.3310   37.6740 C.2    20  ALA20       0.2617
     22  O         68.0850 -136.5550   36.7860 O.2    20  ALA20      -0.2715
     23  CB        67.7280 -133.9340   38.1190 C.3    20  ALA20       0.0334
     24  N         66.0920 -136.9650   37.7650 N.am   21  THR21      -0.1937
     25  CA        65.7090 -137.9910   36.8040 C.3    21  THR21       0.2028
     26  C         64.4950 -137.5900   36.0040 C.2    21  THR21       0.2642
     27  O         63.6740 -136.7850   36.4440 O.2    21  THR21      -0.2714
     28  CB        65.3860 -139.3440   37.4730 C.3    21  THR21       0.1808
     29  OG1       64.3270 -139.1770   38.4230 O.3    21  THR21      -0.2208
     30  CG2       66.6080 -139.9000   38.1590 C.3    21  THR21       0.0379
     31  N         64.3970 -138.2030   34.8310 N.am   22  GLU22      -0.1963
     32  CA        63.2610 -138.0700   33.9470 C.3    22  GLU22       0.1733
     33  C         62.8460 -139.4970   33.6100 C.2    22  GLU22       0.2616
     34  O         63.3210 -140.0860   32.6370 O.2    22  GLU22      -0.2715
     35  CB        63.6830 -137.2920   32.7070 C.3    22  GLU22       0.0429
     36  CG        62.5370 -136.7720   31.8610 C.3    22  GLU22       0.1163
     37  CD        62.9740 -136.4860   30.4330 C.2    22  GLU22       0.3649
     38  OE1       62.9870 -137.4440   29.6110 O.co2  22  GLU22      -0.2457
     39  OE2       63.3140 -135.3100   30.1320 O.co2  22  GLU22      -0.2457
     40  N         61.9950 -140.0670   34.4590 N.am   23  GLY23      -0.1955
     41  CA        61.6190 -141.4680   34.3460 C.3    23  GLY23       0.1869
     42  C         62.7300 -142.3130   34.9400 C.2    23  GLY23       0.2309
     43  O         63.0150 -142.2090   36.1300 O.2    23  GLY23      -0.2863
     44  N         69.0780 -137.1330   34.0810 N.3    27  ALA27      -0.1245
     45  CA        69.3490 -135.9380   33.2690 C.3    27  ALA27       0.1562
     46  C         70.4980 -135.1080   33.8320 C.2    27  ALA27       0.2260
     47  O         71.3080 -134.5820   33.0690 O.2    27  ALA27      -0.2867
     48  CB        68.0990 -135.0820   33.1340 C.3    27  ALA27       0.0290
     49  N         72.6030 -131.8200   40.4960 N.3    31  CYS31      -0.1221
     50  CA        71.6480 -130.7190   40.5240 C.3    31  CYS31       0.1808
     51  C         71.4350 -130.2870   41.9650 C.2    31  CYS31       0.2602
     52  O         71.6400 -131.0720   42.8910 O.2    31  CYS31      -0.2717
     53  CB        70.3280 -131.1400   39.8910 C.3    31  CYS31       0.0970
     54  SG        69.2400 -132.0680   40.9950 S.3    31  CYS31      -0.0800
     55  N         71.0380 -129.0320   42.1490 N.am   32  SER32      -0.1938
     56  CA        70.8410 -128.4680   43.4830 C.3    32  SER32       0.2055
     57  C         69.3810 -128.6380   43.9010 C.2    32  SER32       0.2642
     58  O         68.4750 -128.2430   43.1720 O.2    32  SER32      -0.2714
     59  CB        71.2500 -126.9910   43.5110 C.3    32  SER32       0.2130
     60  OG        71.7670 -126.6320   44.7860 O.3    32  SER32      -0.2179
     61  N         69.1690 -129.2510   45.0620 N.am   33  LYS33      -0.1977
     62  CA        67.8290 -129.4470   45.6180 C.3    33  LYS33       0.1596
     63  C         67.5750 -128.6560   46.8980 C.2    33  LYS33       0.2287
     64  O         66.4450 -128.6340   47.3850 O.2    33  LYS33      -0.2864
     65  CB        67.6060 -130.9320   45.8830 C.3    33  LYS33       0.0298
     66  CG        67.6830 -131.7650   44.6230 C.3    33  LYS33       0.0038
     67  CD        67.6090 -133.2390   44.9380 C.3    33  LYS33       0.0206
     68  CE        67.8720 -134.0570   43.6900 C.3    33  LYS33       0.1093
     69  NZ        67.4260 -135.4580   43.8880 N.3    33  LYS33      -0.1314
     70  N         67.2140 -125.1260   48.3520 N.3    35  HIS35      -0.1241
     71  CA        66.8850 -123.8120   47.8380 C.3    35  HIS35       0.1621
     72  C         66.9430 -122.7540   48.9100 C.2    35  HIS35       0.2264
     73  O         66.7030 -123.0150   50.0870 O.2    35  HIS35      -0.2867
     74  CB        65.4860 -123.8180   47.2380 C.3    35  HIS35       0.0745
     75  CG        65.3230 -124.7870   46.1120 C.ar   35  HIS35       0.0817
     76  ND1       64.8810 -126.0810   46.3020 N.ar   35  HIS35      -0.2268
     77  CD2       65.5520 -124.6560   44.7830 C.ar   35  HIS35       0.1154
     78  CE1       64.8400 -126.7040   45.1380 C.ar   35  HIS35       0.1986
     79  NE2       65.2410 -125.8610   44.2000 N.ar   35  HIS35      -0.2212
     80  N         63.9560 -129.7310   48.4580 N.3    45  GLY45      -0.1210
     81  CA        62.8530 -129.9520   47.5310 C.3    45  GLY45       0.1956
     82  C         62.8060 -131.3420   46.9300 C.2    45  GLY45       0.2612
     83  O         63.8220 -131.8570   46.4580 O.2    45  GLY45      -0.2717
     84  N         61.6170 -131.9380   46.9540 N.am   46  ALA46      -0.1965
     85  CA        61.3370 -133.2250   46.3060 C.3    46  ALA46       0.1728
     86  C         59.9790 -133.1420   45.6170 C.2    46  ALA46       0.2617
     87  O         59.3080 -132.1130   45.6930 O.2    46  ALA46      -0.2715
     88  CB        61.3490 -134.3450   47.3350 C.3    46  ALA46       0.0334
     89  N         59.5580 -134.2240   44.9720 N.am   47  GLY47      -0.1940
     90  CA        58.3720 -134.2060   44.1220 C.3    47  GLY47       0.2014
     91  C         58.6630 -133.6620   42.7300 C.2    47  GLY47       0.2640
     92  O         59.7640 -133.8540   42.1890 O.2    47  GLY47      -0.2714
     93  N         57.6620 -132.9930   42.1500 N.am   48  THR48      -0.1936
     94  CA        57.7810 -132.3810   40.8260 C.3    48  THR48       0.2028
     95  C         58.7450 -131.1970   40.8790 C.2    48  THR48       0.2642
     96  O         58.4590 -130.1770   41.5070 O.2    48  THR48      -0.2714
     97  CB        56.4150 -131.9150   40.3040 C.3    48  THR48       0.1808
     98  OG1       55.5180 -133.0280   40.2920 O.3    48  THR48      -0.2208
     99  CG2       56.5300 -131.3630   38.8960 C.3    48  THR48       0.0379
    100  N         59.8770 -131.3540   40.1960 N.am   49  ALA49      -0.1963
    101  CA        61.0180 -130.4300   40.2800 C.3    49  ALA49       0.1728
    102  C         60.7120 -128.9700   39.9230 C.2    49  ALA49       0.2616
    103  O         61.1780 -128.0550   40.6060 O.2    49  ALA49      -0.2715
    104  CB        62.1550 -130.9440   39.4140 C.3    49  ALA49       0.0334
    105  N         59.9440 -128.7570   38.8570 N.am   50  ALA50      -0.1977
    106  CA        59.5510 -127.4060   38.4510 C.3    50  ALA50       0.1597
    107  C         58.6960 -126.7450   39.5240 C.2    50  ALA50       0.2287
    108  O         58.9030 -125.5780   39.8550 O.2    50  ALA50      -0.2864
    109  CB        58.7850 -127.4390   37.1420 C.3    50  ALA50       0.0319
    110  N         58.6020 -127.5380   42.7130 N.3    52  THR52      -0.1203
    111  CA        59.4950 -127.3400   43.8460 C.3    52  THR52       0.1994
    112  C         60.3040 -126.0540   43.6800 C.2    52  THR52       0.2617
    113  O         60.3810 -125.2400   44.6060 O.2    52  THR52      -0.2717
    114  CB        60.4120 -128.5800   43.9960 C.3    52  THR52       0.1784
    115  OG1       59.7160 -129.5850   44.7410 O.3    52  THR52      -0.2211
    116  CG2       61.7210 -128.2720   44.6940 C.3    52  THR52       0.0376
    117  N         60.8930 -125.8870   42.4960 N.am   53  ASP53      -0.1973
    118  CA        61.7140 -124.7110   42.1760 C.3    53  ASP53       0.1709
    119  C         60.9200 -123.4140   42.2480 C.2    53  ASP53       0.2293
    120  O         61.3190 -122.4720   42.9190 O.2    53  ASP53      -0.2864
    121  CB        62.3260 -124.8290   40.7680 C.3    53  ASP53       0.1436
    122  CG        63.5120 -125.7760   40.7070 C.2    53  ASP53       0.3671
    123  OD1       63.7180 -126.3830   39.6310 O.co2  53  ASP53      -0.2456
    124  OD2       64.2470 -125.9120   41.7120 O.co2  53  ASP53      -0.2456
    125  N         60.8520 -137.5940   49.7470 N.3   128  GLY128     -0.1210
    126  CA        61.2810 -138.0810   48.4400 C.3   128  GLY128      0.1956
    127  C         61.2150 -139.5940   48.3930 C.2   128  GLY128      0.2612
    128  O         60.8260 -140.2340   49.3680 O.2   128  GLY128     -0.2717
    129  N         61.6020 -140.1660   47.2570 N.am  129  SER129     -0.1952
    130  CA        61.5730 -141.6200   47.0760 C.3   129  SER129      0.1924
    131  C         62.5090 -142.3630   48.0440 C.2   129  SER129      0.2314
    132  O         62.2490 -143.5190   48.3920 O.2   129  SER129     -0.2863
    133  CB        61.8950 -141.9920   45.6250 C.3   129  SER129      0.2116
    134  OG        63.1700 -141.5120   45.2420 O.3   129  SER129     -0.2180
    135  N         65.8800 -143.8480   42.6860 N.3   168  GLY168     -0.1225
    136  CA        65.5520 -142.4540   42.3960 C.3   168  GLY168      0.1811
    137  C         66.5740 -141.4510   42.9080 C.2   168  GLY168      0.2280
    138  O         66.6610 -140.3340   42.3850 O.2   168  GLY168     -0.2866
@<TRIPOS>BOND
     1    38    37   ar
     2    39    37   ar
     3    37    36    1
     4    36    35    1
     5    34    33    2
     6    35    32    1
     7    47    46    2
     8    48    45    1
     9    45    46    1
    10    45    44    1
    11    33    32    1
    12    33    40   am
    13    32    31    1
    14    41    40    1
    15    41    42    1
    16    31    26   am
    17    42    43    2
    18    26    27    2
    19    26    25    1
    20    22    21    2
    21    25    28    1
    22    25    24    1
    23   109   106    1
    24    28    30    1
    25    28    29    1
    26    21    24   am
    27    21    20    1
    28    23    20    1
    29   106   105    1
    30   106   107    1
    31    20    19    1
    32   105   102   am
    33    99    97    1
    34    19    10   am
    35   104   101    1
    36   107   108    2
    37   123   122   ar
    38    53    50    1
    39    53    54    1
    40   102   101    1
    41   102   103    2
    42    13    14    1
    43    13    12    1
    44   100   101    1
    45   100    95   am
    46    15    14    1
    47    15    16    2
    48    98    97    1
    49    97    94    1
    50    18    16    1
    51    16    17    1
    52    49    50    1
    53    50    51    1
    54    10     9    1
    55    10    11    2
    56   122   121    1
    57   122   124   ar
    58   121   118    1
    59    94    95    1
    60    94    93    1
    61    95    96    2
    62     9    12    1
    63     9     8    1
    64    51    55   am
    65    51    52    2
    66    55    56    1
    67    93    91   am
    68   118   119    1
    69   118   117    1
    70    92    91    2
    71   119   120    2
    72   138   137    2
    73   136   135    1
    74   136   137    1
    75   117   112   am
    76   110   111    1
    77    91    90    1
    78    58    57    2
    79    56    59    1
    80    56    57    1
    81    59    60    1
    82   112   111    1
    83   112   113    2
    84    68    69    1
    85    68    67    1
    86   111   114    1
    87    57    61   am
    88   114   116    1
    89   114   115    1
    90    90    89    1
    91    79    77   ar
    92    79    78   ar
    93     6     5    1
    94    66    67    1
    95    66    65    1
    96    77    75   ar
    97     1     2    1
    98    89    86   am
    99    61    62    1
   100    78    76   ar
   101   134   133    1
   102     5     2    1
   103     5     7    1
   104    86    87    2
   105    86    85    1
   106     2     3    1
   107    62    65    1
   108    62    63    1
   109   133   130    1
   110    75    76   ar
   111    75    74    1
   112    85    84    1
   113    85    88    1
   114    83    82    2
   115    63    64    2
   116    82    84   am
   117    82    81    1
   118     3     4    2
   119   130   129    1
   120   130   131    1
   121    74    71    1
   122   129   127   am
   123    81    80    1
   124    71    70    1
   125    71    72    1
   126   131   132    2
   127   127   126    1
   128   127   128    2
   129   126   125    1
   130    72    73    2
