@<TRIPOS>MOLECULE
tmp/6hucL00.pdb
 89 88 0 0 0
SMALL
GASTEIGER

@<TRIPOS>ATOM
      1  N         15.5830 -130.7490   30.4420 N.3   104  PRO104     -0.2116
      2  CA        14.1440 -130.6830   30.1680 C.3   104  PRO104      0.1372
      3  C         13.2160 -130.8820   31.3390 C.2   104  PRO104      0.2244
      4  O         13.5840 -131.5020   32.3360 O.2   104  PRO104     -0.2868
      5  CB        13.9230 -131.7980   29.1430 C.3   104  PRO104      0.0268
      6  CG        15.2520 -132.0080   28.5210 C.3   104  PRO104      0.0207
      7  CD        16.2310 -131.7950   29.6290 C.3   104  PRO104      0.0892
      8  N         10.7030 -133.0620   32.4490 N.3   106  TYR106     -0.1241
      9  CA        10.4700 -134.4650   32.0680 C.3   106  TYR106      0.1605
     10  C          8.9780 -134.7750   32.1180 C.2   106  TYR106      0.2264
     11  O          8.5130 -135.5430   32.9610 O.2   106  TYR106     -0.2867
     12  CB        11.2780 -135.3950   32.9820 C.3   106  TYR106      0.0534
     13  CG        11.5410 -136.7780   32.4330 C.ar  106  TYR106     -0.0201
     14  CD1       12.5590 -136.9970   31.5040 C.ar  106  TYR106     -0.0009
     15  CD2       10.7950 -137.8770   32.8680 C.ar  106  TYR106     -0.0009
     16  CE1       12.8110 -138.2670   31.0060 C.ar  106  TYR106      0.0417
     17  CE2       11.0360 -139.1510   32.3740 C.ar  106  TYR106      0.0417
     18  CZ        12.0450 -139.3380   31.4460 C.ar  106  TYR106      0.1957
     19  OH        12.2930 -140.5950   30.9580 O.3   106  TYR106     -0.2866
     20  N          5.0890 -134.9510   29.6110 N.3   108  HIS108     -0.1241
     21  CA         4.2770 -134.8900   28.4120 C.3   108  HIS108      0.1621
     22  C          3.1070 -133.9770   28.7560 C.2   108  HIS108      0.2264
     23  O          2.2240 -134.3430   29.5450 O.2   108  HIS108     -0.2867
     24  CB         3.8240 -136.2980   27.9970 C.3   108  HIS108      0.0745
     25  CG         2.8040 -136.3250   26.8970 C.ar  108  HIS108      0.0817
     26  ND1        2.4930 -135.2260   26.1250 N.ar  108  HIS108     -0.2268
     27  CD2        2.0430 -137.3380   26.4250 C.ar  108  HIS108      0.1154
     28  CE1        1.5700 -135.5560   25.2420 C.ar  108  HIS108      0.1986
     29  NE2        1.2810 -136.8340   25.4010 N.ar  108  HIS108     -0.2212
     30  N          5.7320 -132.4560   23.4830 N.3   126  ASP126     -0.1225
     31  CA         6.7970 -133.3170   23.9770 C.3   126  ASP126      0.1790
     32  C          7.5080 -132.5830   25.1520 C.2   126  ASP126      0.2440
     33  O          7.0730 -131.4820   25.5580 O.2   126  ASP126     -0.2733
     34  CB         7.6980 -133.8220   22.8150 C.3   126  ASP126      0.1423
     35  CG         8.8350 -132.8740   22.4330 C.2   126  ASP126      0.3668
     36  OD1        8.7790 -131.6620   22.7370 O.co2 126  ASP126     -0.2456
     37  OD2        9.8030 -133.3640   21.7960 O.co2 126  ASP126     -0.2456
     38  N          8.5480 -133.2030   25.7460 N.am  127  PRO127     -0.2718
     39  CA         9.2590 -132.5550   26.8580 C.3   127  PRO127      0.1535
     40  C         10.0780 -131.3150   26.5050 C.2   127  PRO127      0.2598
     41  O         10.3090 -130.4640   27.3810 O.2   127  PRO127     -0.2715
     42  CB        10.1820 -133.6550   27.3550 C.3   127  PRO127      0.0310
     43  CG         9.4620 -134.9040   27.0270 C.3   127  PRO127      0.0237
     44  CD         8.8590 -134.6410   25.6880 C.3   127  PRO127      0.0939
     45  N         10.5150 -131.2050   25.2560 N.am  128  VAL128     -0.1978
     46  CA        11.2580 -130.0160   24.8210 C.3   128  VAL128      0.1596
     47  C         10.4400 -129.1070   23.8960 C.2   128  VAL128      0.2287
     48  O         10.9990 -128.2820   23.1820 O.2   128  VAL128     -0.2864
     49  CB        12.6330 -130.3670   24.2110 C.3   128  VAL128      0.0276
     50  CG1       13.5490 -130.9020   25.2980 C.3   128  VAL128      0.0022
     51  CG2       12.4960 -131.3570   23.0650 C.3   128  VAL128      0.0022
     52  N          8.1180 -129.3940   21.2340 N.3   130  SER130     -0.1202
     53  CA         7.4930 -129.6050   19.9280 C.3   130  SER130      0.2020
     54  C          6.0330 -129.8780   20.2360 C.2   130  SER130      0.2619
     55  O          5.7250 -130.6230   21.1580 O.2   130  SER130     -0.2717
     56  CB         8.1000 -130.7660   19.1370 C.3   130  SER130      0.2103
     57  OG         7.1650 -131.8110   18.9150 O.3   130  SER130     -0.2182
     58  N          5.1390 -129.2470   19.4910 N.am  131  TYR131     -0.1961
     59  CA         3.7200 -129.3320   19.7900 C.3   131  TYR131      0.1771
     60  C          2.8770 -129.3620   18.5440 C.2   131  TYR131      0.2619
     61  O          3.3410 -129.0170   17.4600 O.2   131  TYR131     -0.2715
     62  CB         3.2900 -128.1670   20.6930 C.3   131  TYR131      0.0574
     63  CG         3.0460 -126.8200   20.0150 C.ar  131  TYR131     -0.0198
     64  CD1        4.1040 -125.9580   19.7210 C.ar  131  TYR131     -0.0009
     65  CD2        1.7490 -126.3930   19.7100 C.ar  131  TYR131     -0.0009
     66  CE1        3.8780 -124.7260   19.1240 C.ar  131  TYR131      0.0417
     67  CE2        1.5130 -125.1640   19.1140 C.ar  131  TYR131      0.0417
     68  CZ         2.5770 -124.3310   18.8240 C.ar  131  TYR131      0.1957
     69  OH         2.3380 -123.1040   18.2370 O.3   131  TYR131     -0.2866
     70  N          1.6290 -129.7770   18.7260 N.am  132  GLU132     -0.1977
     71  CA         0.6480 -129.7790   17.6490 C.3   132  GLU132      0.1602
     72  C         -0.7750 -129.8840   18.1460 C.2   132  GLU132      0.2287
     73  O         -1.0480 -130.5360   19.1610 O.2   132  GLU132     -0.2864
     74  CB         0.9260 -130.9030   16.6550 C.3   132  GLU132      0.0415
     75  CG         1.4830 -130.3770   15.3430 C.3   132  GLU132      0.1163
     76  CD         2.2310 -131.4120   14.5680 C.2   132  GLU132      0.3649
     77  OE1        2.0670 -132.6080   14.8760 O.co2 132  GLU132     -0.2457
     78  OE2        2.9840 -131.0170   13.6570 O.co2 132  GLU132     -0.2457
     79  N         -5.6280 -137.2730   22.2230 N.3   137  ARG137     -0.1245
     80  CA        -4.2970 -137.5600   22.7580 C.3   137  ARG137      0.1563
     81  C         -4.2990 -138.0670   24.1910 C.2   137  ARG137      0.2260
     82  O         -4.7100 -137.3670   25.1040 O.2   137  ARG137     -0.2867
     83  CB        -3.4080 -136.3200   22.6660 C.3   137  ARG137      0.0307
     84  CG        -2.0220 -136.4620   23.2870 C.3   137  ARG137      0.0489
     85  CD        -1.2290 -137.6110   22.6970 C.3   137  ARG137      0.2205
     86  NE        -1.0110 -137.4420   21.2660 N.pl3 137  ARG137     -0.0865
     87  CZ        -0.4930 -138.3670   20.4610 C.cat 137  ARG137      0.5346
     88  NH1       -0.1300 -139.5660   20.9250 N.pl3 137  ARG137      0.1354
     89  NH2       -0.3440 -138.0930   19.1700 N.pl3 137  ARG137      0.1354
@<TRIPOS>BOND
     1    78    76   ar
     2    76    77   ar
     3    76    75    1
     4    75    74    1
     5    74    71    1
     6    61    60    2
     7    71    72    1
     8    71    70    1
     9    72    73    2
    10    69    68    1
    11    60    70   am
    12    60    59    1
    13    68    67   ar
    14    68    66   ar
    15    57    56    1
    16    67    65   ar
    17    66    64   ar
    18    56    53    1
    19    89    87    1
    20    58    59    1
    21    58    54   am
    22    65    63   ar
    23    64    63   ar
    24    59    62    1
    25    53    54    1
    26    53    52    1
    27    63    62    1
    28    54    55    2
    29    87    88    1
    30    87    86    2
    31    86    85    1
    32    37    35   ar
    33    79    80    1
    34    35    36   ar
    35    35    34    1
    36    83    80    1
    37    83    84    1
    38    85    84    1
    39    80    81    1
    40    34    31    1
    41    51    49    1
    42    48    47    2
    43    30    31    1
    44    47    46    1
    45    31    32    1
    46    81    82    2
    47    49    46    1
    48    49    50    1
    49    46    45    1
    50    32    33    2
    51    32    38   am
    52    28    29   ar
    53    28    26   ar
    54    45    40   am
    55    29    27   ar
    56    44    38    1
    57    44    43    1
    58    38    39    1
    59    26    25   ar
    60    27    25   ar
    61    40    39    1
    62    40    41    2
    63    39    42    1
    64    25    24    1
    65    43    42    1
    66    24    21    1
    67    21    22    1
    68    21    20    1
    69     6     5    1
    70     6     7    1
    71    22    23    2
    72     5     2    1
    73     7     1    1
    74     2     1    1
    75     2     3    1
    76    19    18    1
    77    16    18   ar
    78    16    14   ar
    79     3     4    2
    80    18    17   ar
    81    14    13   ar
    82     9    10    1
    83     9     8    1
    84     9    12    1
    85    10    11    2
    86    17    15   ar
    87    13    15   ar
    88    13    12    1
