@<TRIPOS>MOLECULE
tmp/6hukB00.pdb
 97 95 0 0 0
SMALL
GASTEIGER

@<TRIPOS>ATOM
      1  N        142.9380  123.9030  147.5530 N.3    90  TYR90      -0.1241
      2  CA       141.8660  124.0800  146.5960 C.3    90  TYR90       0.1605
      3  C        142.3830  123.9150  145.1790 C.2    90  TYR90       0.2264
      4  O        143.5870  123.7760  144.9550 O.2    90  TYR90      -0.2867
      5  CB       141.1890  125.4420  146.7650 C.3    90  TYR90       0.0534
      6  CG       141.9830  126.6680  146.3710 C.ar   90  TYR90      -0.0201
      7  CD1      142.8270  127.2890  147.2690 C.ar   90  TYR90      -0.0009
      8  CD2      141.8410  127.2320  145.1120 C.ar   90  TYR90      -0.0009
      9  CE1      143.5370  128.4180  146.9180 C.ar   90  TYR90       0.0417
     10  CE2      142.5440  128.3580  144.7520 C.ar   90  TYR90       0.0417
     11  CZ       143.3880  128.9460  145.6560 C.ar   90  TYR90       0.1957
     12  OH       144.0890  130.0720  145.2990 O.3    90  TYR90      -0.2866
     13  N        142.4240  125.8560  141.5640 N.3    92  LEU92      -0.1245
     14  CA       142.2320  127.2070  141.0570 C.3    92  LEU92       0.1561
     15  C        141.3930  127.1560  139.7850 C.2    92  LEU92       0.2260
     16  O        140.7040  128.1250  139.4480 O.2    92  LEU92      -0.2867
     17  CB       143.5850  127.8640  140.7910 C.3    92  LEU92       0.0270
     18  CG       143.5950  129.3470  140.4370 C.3    92  LEU92       0.0019
     19  CD1      143.1260  130.1820  141.6040 C.3    92  LEU92       0.0001
     20  CD2      144.9850  129.7590  140.0080 C.3    92  LEU92       0.0001
     21  N        146.5750  124.4060  145.1650 N.3   148  GLU148     -0.1231
     22  CA       147.1370  125.4860  145.9650 C.3   148  GLU148      0.1699
     23  C        146.5360  125.5120  147.3620 C.2   148  GLU148      0.2593
     24  O        145.3370  125.2860  147.5290 O.2   148  GLU148     -0.2718
     25  CB       146.9030  126.8300  145.2650 C.3   148  GLU148      0.0402
     26  CG       147.5720  128.0070  145.9490 C.3   148  GLU148      0.1161
     27  CD       147.3370  129.3180  145.2420 C.2   148  GLU148      0.3649
     28  OE1      146.6520  129.3280  144.2010 O.co2 148  GLU148     -0.2457
     29  OE2      147.8360  130.3480  145.7400 O.co2 148  GLU148     -0.2457
     30  N        147.3750  125.7810  148.3600 N.am  149  SER149     -0.1938
     31  CA       146.8830  126.0730  149.6990 C.3   149  SER149      0.2055
     32  C        146.1020  127.3780  149.7240 C.2   149  SER149      0.2643
     33  O        146.4720  128.3450  149.0540 O.2   149  SER149     -0.2714
     34  CB       148.0460  126.1480  150.6820 C.3   149  SER149      0.2130
     35  OG       147.5830  126.4730  151.9780 O.3   149  SER149     -0.2179
     36  N        145.0220  127.4080  150.5010 N.am  150  TYR150     -0.1959
     37  CA       144.1480  128.5760  150.4780 C.3   150  TYR150      0.1771
     38  C        144.6840  129.6840  151.3740 C.2   150  TYR150      0.2620
     39  O        145.0370  130.7650  150.8940 O.2   150  TYR150     -0.2715
     40  CB       142.7350  128.1870  150.9070 C.3   150  TYR150      0.0574
     41  CG       141.7090  129.2670  150.6810 C.ar  150  TYR150     -0.0198
     42  CD1      141.2170  129.5260  149.4120 C.ar  150  TYR150     -0.0009
     43  CD2      141.2240  130.0170  151.7360 C.ar  150  TYR150     -0.0009
     44  CE1      140.2720  130.5070  149.2000 C.ar  150  TYR150      0.0417
     45  CE2      140.2780  131.0000  151.5340 C.ar  150  TYR150      0.0417
     46  CZ       139.8110  131.2400  150.2620 C.ar  150  TYR150      0.1957
     47  OH       138.8700  132.2170  150.0550 O.3   150  TYR150     -0.2866
     48  N        144.7660  129.4270  152.6760 N.am  151  GLY151     -0.1954
     49  CA       145.0690  130.4760  153.6290 C.3   151  GLY151      0.1869
     50  C        146.5000  130.4590  154.1200 C.2   151  GLY151      0.2309
     51  O        147.0960  131.5150  154.3480 O.2   151  GLY151     -0.2863
     52  N        152.7370  136.5120  145.8820 N.3   193  PHE193     -0.1227
     53  CA       151.6040  137.4160  145.7720 C.3   193  PHE193      0.1736
     54  C        151.7310  138.5750  146.7520 C.2   193  PHE193      0.2595
     55  O        152.6870  138.6390  147.5280 O.2   193  PHE193     -0.2718
     56  CB       150.2920  136.6760  146.0330 C.3   193  PHE193      0.0547
     57  CG       149.9030  135.7020  144.9690 C.ar  193  PHE193     -0.0202
     58  CD1      150.3410  135.8410  143.6620 C.ar  193  PHE193     -0.0042
     59  CD2      149.1350  134.5990  145.2950 C.ar  193  PHE193     -0.0042
     60  CE1      149.9810  134.9240  142.6930 C.ar  193  PHE193     -0.0003
     61  CE2      148.7700  133.6790  144.3340 C.ar  193  PHE193     -0.0003
     62  CZ       149.1950  133.8400  143.0300 C.ar  193  PHE193     -0.0000
     63  N        150.7570  139.4860  146.7070 N.am  194  ALA194     -0.1966
     64  CA       150.8140  140.6690  147.5570 C.3   194  ALA194      0.1728
     65  C        150.5500  140.3330  149.0170 C.2   194  ALA194      0.2616
     66  O        151.0800  141.0040  149.9090 O.2   194  ALA194     -0.2715
     67  CB       149.8150  141.7160  147.0690 C.3   194  ALA194      0.0334
     68  N        149.7400  139.3080  149.2850 N.am  195  THR195     -0.1951
     69  CA       149.4280  138.9400  150.6600 C.3   195  THR195      0.1897
     70  C        150.4580  137.9720  151.2200 C.2   195  THR195      0.2313
     71  O        150.4940  137.7310  152.4310 O.2   195  THR195     -0.2863
     72  CB       148.0420  138.3060  150.7740 C.3   195  THR195      0.1794
     73  OG1      147.9940  137.1160  149.9790 O.3   195  THR195     -0.2208
     74  CG2      146.9700  139.2600  150.2960 C.3   195  THR195      0.0378
     75  N        152.5880  131.7500  148.3730 N.3   198  TYR198     -0.1241
     76  CA       151.8190  130.5330  148.5600 C.3   198  TYR198      0.1605
     77  C        152.4550  129.3710  147.8060 C.2   198  TYR198      0.2264
     78  O        153.1250  129.5800  146.7920 O.2   198  TYR198     -0.2867
     79  CB       150.3750  130.7340  148.0880 C.3   198  TYR198      0.0534
     80  CG       149.6240  131.7460  148.9170 C.ar  198  TYR198     -0.0201
     81  CD1      149.0200  131.3810  150.1100 C.ar  198  TYR198     -0.0009
     82  CD2      149.5350  133.0690  148.5130 C.ar  198  TYR198     -0.0009
     83  CE1      148.3370  132.3050  150.8740 C.ar  198  TYR198      0.0417
     84  CE2      148.8540  134.0000  149.2710 C.ar  198  TYR198      0.0417
     85  CZ       148.2590  133.6110  150.4500 C.ar  198  TYR198      0.1957
     86  OH       147.5800  134.5340  151.2090 O.3   198  TYR198     -0.2866
     87  N        152.1860  126.1690  145.3120 N.3   200  ARG200     -0.1245
     88  CA       151.2940  125.7750  144.2320 C.3   200  ARG200      0.1563
     89  C        151.9060  124.6850  143.3720 C.2   200  ARG200      0.2260
     90  O        152.9640  124.8830  142.7700 O.2   200  ARG200     -0.2867
     91  CB       150.9430  126.9840  143.3640 C.3   200  ARG200      0.0307
     92  CG       150.0160  126.6450  142.2210 C.3   200  ARG200      0.0489
     93  CD       149.6750  127.8630  141.3960 C.3   200  ARG200      0.2205
     94  NE       148.8540  128.8060  142.1400 N.pl3 200  ARG200     -0.0865
     95  CZ       148.4900  129.9970  141.6800 C.cat 200  ARG200      0.5346
     96  NH1      148.8560  130.3900  140.4690 N.pl3 200  ARG200      0.1354
     97  NH2      147.7430  130.7920  142.4300 N.pl3 200  ARG200      0.1354
@<TRIPOS>BOND
     1    16    15    2
     2    15    14    1
     3    20    18    1
     4    18    17    1
     5    18    19    1
     6    96    95    1
     7    17    14    1
     8    14    13    1
     9    93    94    1
    10    93    92    1
    11    95    94    2
    12    95    97    1
    13    92    91    1
    14    60    62   ar
    15    60    58   ar
    16    90    89    2
    17    62    61   ar
    18    91    88    1
    19    89    88    1
    20    58    57   ar
    21    28    27   ar
    22    88    87    1
    23    61    59   ar
    24    10     8   ar
    25    10    11   ar
    26     4     3    2
    27    57    59   ar
    28    57    56    1
    29     8     6   ar
    30    21    22    1
    31     3     2    1
    32    27    29   ar
    33    27    26    1
    34    25    26    1
    35    25    22    1
    36    12    11    1
    37    11     9   ar
    38    53    52    1
    39    53    56    1
    40    53    54    1
    41    22    23    1
    42     6     5    1
    43     6     7   ar
    44     2     5    1
    45     2     1    1
    46    63    54   am
    47    63    64    1
    48    54    55    2
    49    78    77    2
    50     9     7   ar
    51    67    64    1
    52    23    24    2
    53    23    30   am
    54    64    65    1
    55    77    76    1
    56    79    76    1
    57    79    80    1
    58    30    31    1
    59    75    76    1
    60    82    80   ar
    61    82    84   ar
    62    80    81   ar
    63    65    68   am
    64    65    66    2
    65    33    32    2
    66    44    42   ar
    67    44    46   ar
    68    84    85   ar
    69    68    69    1
    70    42    41   ar
    71    31    32    1
    72    31    34    1
    73    32    36   am
    74    73    72    1
    75    47    46    1
    76    81    83   ar
    77    46    45   ar
    78    74    72    1
    79    85    83   ar
    80    85    86    1
    81    37    36    1
    82    37    40    1
    83    37    38    1
    84    69    72    1
    85    69    70    1
    86    41    40    1
    87    41    43   ar
    88    34    35    1
    89    39    38    2
    90    70    71    2
    91    38    48   am
    92    45    43   ar
    93    48    49    1
    94    49    50    1
    95    50    51    2
