@<TRIPOS>MOLECULE
tmp/6hulB00.pdb
 91 89 0 0 0
SMALL
GASTEIGER

@<TRIPOS>ATOM
      1  N         30.6690  -32.0550   13.3970 N.3   104  LYS104     -0.1245
      2  CA        30.3970  -33.4590   13.7500 C.3   104  LYS104      0.1561
      3  C         29.6670  -33.5470   15.0440 C.2   104  LYS104      0.2260
      4  O         28.9020  -34.5000   15.2650 O.2   104  LYS104     -0.2867
      5  CB        31.7070  -34.2220   13.7740 C.3   104  LYS104      0.0271
      6  CG        32.2730  -34.2480   12.3430 C.3   104  LYS104      0.0035
      7  CD        32.6670  -35.6570   11.8700 C.3   104  LYS104      0.0206
      8  CE        33.0700  -35.5850   10.3760 C.3   104  LYS104      0.1093
      9  NZ        34.5010  -35.2150   10.2300 N.3   104  LYS104     -0.1314
     10  N         35.0690  -44.9060   15.2880 N.3   126  GLU126     -0.1231
     11  CA        36.3620  -44.6840   14.6540 C.3   126  GLU126      0.1699
     12  C         36.5830  -43.1880   14.4080 C.2   126  GLU126      0.2593
     13  O         35.6940  -42.3610   14.6160 O.2   126  GLU126     -0.2718
     14  CB        36.4590  -45.4570   13.3360 C.3   126  GLU126      0.0402
     15  CG        35.8640  -44.7410   12.1150 C.3   126  GLU126      0.1161
     16  CD        34.3290  -44.6860   12.1020 C.2   126  GLU126      0.3649
     17  OE1       33.7800  -43.9000   11.2760 O.co2 126  GLU126     -0.2457
     18  OE2       33.6810  -45.4160   12.9050 O.co2 126  GLU126     -0.2457
     19  N         37.7970  -42.8460   13.9730 N.am  127  THR127     -0.1939
     20  CA        38.0570  -41.5050   13.4780 C.3   127  THR127      0.2028
     21  C         39.3310  -41.5450   12.6550 C.2   127  THR127      0.2643
     22  O         40.2190  -42.3690   12.9020 O.2   127  THR127     -0.2714
     23  CB        38.1680  -40.4650   14.6110 C.3   127  THR127      0.1808
     24  OG1       38.1020  -39.1520   14.0560 O.3   127  THR127     -0.2208
     25  CG2       39.4870  -40.5830   15.3530 C.3   127  THR127      0.0379
     26  N         39.4000  -40.6550   11.6700 N.am  128  GLY128     -0.1939
     27  CA        40.5630  -40.4580   10.8330 C.3   128  GLY128      0.2014
     28  C         41.3740  -39.2850   11.3400 C.2   128  GLY128      0.2639
     29  O         42.2310  -39.4490   12.2220 O.2   128  GLY128     -0.2714
     30  N         41.1340  -38.0850   10.7970 N.am  129  ALA129     -0.1963
     31  CA        41.7280  -36.8470   11.3150 C.3   129  ALA129      0.1728
     32  C         41.6030  -36.7450   12.8350 C.2   129  ALA129      0.2617
     33  O         42.5880  -36.4950   13.5390 O.2   129  ALA129     -0.2715
     34  CB        41.0550  -35.6330   10.6520 C.3   129  ALA129      0.0334
     35  N         40.3830  -36.9020   13.3490 N.am  130  GLY130     -0.1940
     36  CA        40.0990  -36.8330   14.7670 C.3   130  GLY130      0.2014
     37  C         38.9610  -35.8750   15.0440 C.2   130  GLY130      0.2639
     38  O         38.6310  -35.6110   16.1990 O.2   130  GLY130     -0.2714
     39  N         38.3580  -35.3220   13.9920 N.am  131  GLN131     -0.1963
     40  CA        37.2280  -34.4260   14.2090 C.3   131  GLN131      0.1733
     41  C         36.0500  -35.1760   14.8110 C.2   131  GLN131      0.2616
     42  O         35.4090  -34.6990   15.7550 O.2   131  GLN131     -0.2715
     43  CB        36.8250  -33.7580   12.8990 C.3   131  GLN131      0.0408
     44  CG        37.7480  -32.6240   12.4480 C.3   131  GLN131      0.0908
     45  CD        37.5820  -31.3370   13.2500 C.2   131  GLN131      0.2608
     46  OE1       36.9580  -31.3170   14.3220 O.2   131  GLN131     -0.2717
     47  NE2       38.1360  -30.2500   12.7270 N.am  131  GLN131     -0.0878
     48  N         35.7700  -36.3620   14.2790 N.am  132  TRP132     -0.1974
     49  CA        34.6770  -37.1880   14.7630 C.3   132  TRP132      0.1640
     50  C         35.0050  -37.7910   16.1180 C.2   132  TRP132      0.2290
     51  O         34.1560  -37.8040   17.0160 O.2   132  TRP132     -0.2864
     52  CB        34.3800  -38.2800   13.7360 C.3   132  TRP132      0.0576
     53  CG        33.3130  -39.2830   14.1240 C.ar  132  TRP132      0.0006
     54  CD1       33.4030  -40.6260   14.0130 C.ar  132  TRP132      0.0946
     55  CD2       31.9940  -39.0080   14.6580 C.ar  132  TRP132      0.0152
     56  NE1       32.2430  -41.2150   14.4570 N.ar  132  TRP132     -0.2442
     57  CE2       31.3620  -40.2460   14.8530 C.ar  132  TRP132      0.0810
     58  CE3       31.3010  -37.8370   14.9900 C.ar  132  TRP132      0.0012
     59  CZ2       30.0710  -40.3590   15.3680 C.ar  132  TRP132      0.0191
     60  CZ3       30.0250  -37.9460   15.4970 C.ar  132  TRP132      0.0001
     61  CH2       29.4190  -39.2020   15.6810 C.ar  132  TRP132      0.0015
     62  N         39.6660  -45.4380    7.2100 N.3   198  LEU198     -0.1245
     63  CA        38.3760  -45.2530    7.8620 C.3   198  LEU198      0.1561
     64  C         37.5390  -46.5320    7.8230 C.2   198  LEU198      0.2260
     65  O         36.9630  -46.9350    8.8410 O.2   198  LEU198     -0.2867
     66  CB        37.6420  -44.0750    7.2240 C.3   198  LEU198      0.0270
     67  CG        38.1610  -42.7520    7.7870 C.3   198  LEU198      0.0019
     68  CD1       37.5680  -41.5860    7.0340 C.3   198  LEU198      0.0001
     69  CD2       37.8710  -42.6180    9.2790 C.3   198  LEU198      0.0001
     70  N         29.3150  -41.4580   12.2930 N.3   219  GLY219     -0.1210
     71  CA        29.6850  -40.0740   12.0640 C.3   219  GLY219      0.1956
     72  C         29.4180  -39.5120   10.6750 C.2   219  GLY219      0.2612
     73  O         29.5520  -38.3040   10.4640 O.2   219  GLY219     -0.2717
     74  N         29.0430  -40.3450    9.7170 N.am  220  SER220     -0.1952
     75  CA        28.7340  -39.8460    8.3810 C.3   220  SER220      0.1924
     76  C         28.0350  -40.9560    7.5840 C.2   220  SER220      0.2314
     77  O         27.7630  -42.0490    8.1000 O.2   220  SER220     -0.2863
     78  CB        30.0110  -39.3440    7.7040 C.3   220  SER220      0.2116
     79  OG        29.7140  -38.6610    6.4990 O.3   220  SER220     -0.2180
     80  N         37.6050  -40.6280    3.2220 N.3   327  TYR327     -0.1241
     81  CA        36.6340  -41.7100    3.1880 C.3   327  TYR327      0.1605
     82  C         36.3350  -42.1140    1.7390 C.2   327  TYR327      0.2264
     83  O         36.3870  -41.2940    0.8180 O.2   327  TYR327     -0.2867
     84  CB        35.3580  -41.2960    3.9140 C.3   327  TYR327      0.0534
     85  CG        34.3730  -42.4260    4.0020 C.ar  327  TYR327     -0.0201
     86  CD1       34.6410  -43.5320    4.8030 C.ar  327  TYR327     -0.0009
     87  CD2       33.1930  -42.4170    3.2570 C.ar  327  TYR327     -0.0009
     88  CE1       33.7650  -44.5930    4.8770 C.ar  327  TYR327      0.0417
     89  CE2       32.2990  -43.4860    3.3340 C.ar  327  TYR327      0.0417
     90  CZ        32.5990  -44.5680    4.1440 C.ar  327  TYR327      0.1957
     91  OH        31.7420  -45.6360    4.2320 O.3   327  TYR327     -0.2866
@<TRIPOS>BOND
     1    83    82    2
     2    82    81    1
     3    81    80    1
     4    81    84    1
     5    87    89   ar
     6    87    85   ar
     7    89    90   ar
     8    84    85    1
     9    85    86   ar
    10    90    91    1
    11    90    88   ar
    12    86    88   ar
    13    79    78    1
    14    68    67    1
    15    62    63    1
    16    66    67    1
    17    66    63    1
    18    76    77    2
    19    76    75    1
    20    78    75    1
    21    67    69    1
    22    64    63    1
    23    64    65    2
    24    75    74    1
    25    74    72   am
    26     9     8    1
    27     8     7    1
    28    73    72    2
    29    34    31    1
    30    72    71    1
    31    30    31    1
    32    30    28   am
    33    27    28    1
    34    27    26    1
    35    17    16   ar
    36    31    32    1
    37    28    29    2
    38    26    21   am
    39     7     6    1
    40    71    70    1
    41    16    15    1
    42    16    18   ar
    43    15    14    1
    44     6     5    1
    45    44    43    1
    46    44    45    1
    47    21    22    2
    48    21    20    1
    49    47    45   am
    50    32    35   am
    51    32    33    2
    52    43    40    1
    53    45    46    2
    54    14    11    1
    55    35    36    1
    56     1     2    1
    57    20    19    1
    58    20    23    1
    59    52    53    1
    60    52    49    1
    61     2     5    1
    62     2     3    1
    63    19    12   am
    64    39    40    1
    65    39    37   am
    66    54    53   ar
    67    54    56   ar
    68    24    23    1
    69    53    55   ar
    70    40    41    1
    71    48    49    1
    72    48    41   am
    73    12    13    2
    74    12    11    1
    75    56    57   ar
    76    23    25    1
    77    11    10    1
    78    55    57   ar
    79    55    58   ar
    80    49    50    1
    81    36    37    1
    82    41    42    2
    83    57    59   ar
    84    58    60   ar
    85     3     4    2
    86    37    38    2
    87    59    61   ar
    88    60    61   ar
    89    50    51    2
