@<TRIPOS>MOLECULE
tmp/6hulB01.pdb
 116 108 0 0 0
SMALL
GASTEIGER

@<TRIPOS>ATOM
      1  N         34.2990  -28.5510   14.6900 N.3   102  SER102     -0.1202
      2  CA        33.6730  -29.0000   13.4490 C.3   102  SER102      0.2020
      3  C         32.1880  -29.2410   13.6610 C.2   102  SER102      0.2619
      4  O         31.6770  -29.2320   14.7820 O.2   102  SER102     -0.2717
      5  CB        34.3130  -30.2850   12.9100 C.3   102  SER102      0.2103
      6  OG        33.6370  -31.4350   13.4030 O.3   102  SER102     -0.2182
      7  N         31.5150  -29.5120   12.5540 N.am  103  HIS103     -0.1961
      8  CA        30.0950  -29.8140   12.5460 C.3   103  HIS103      0.1787
      9  C         29.6930  -31.1910   13.1390 C.2   103  HIS103      0.2620
     10  O         28.5070  -31.4570   13.3490 O.2   103  HIS103     -0.2715
     11  CB        29.6140  -29.7460   11.1190 C.3   103  HIS103      0.0785
     12  CG        30.2420  -30.7850   10.2470 C.ar  103  HIS103      0.0821
     13  ND1       31.5520  -30.7080    9.8220 N.ar  103  HIS103     -0.2267
     14  CD2       29.7450  -31.9400    9.7400 C.ar  103  HIS103      0.1154
     15  CE1       31.8240  -31.7550    9.0640 C.ar  103  HIS103      0.1986
     16  NE2       30.7480  -32.5210    9.0040 N.ar  103  HIS103     -0.2212
     17  N         30.6690  -32.0550   13.3970 N.am  104  LYS104     -0.1977
     18  CA        30.3970  -33.4590   13.7500 C.3   104  LYS104      0.1596
     19  C         29.6670  -33.5470   15.0440 C.2   104  LYS104      0.2287
     20  O         28.9020  -34.5000   15.2650 O.2   104  LYS104     -0.2864
     21  CB        31.7070  -34.2220   13.7740 C.3   104  LYS104      0.0298
     22  CG        32.2730  -34.2480   12.3430 C.3   104  LYS104      0.0038
     23  CD        32.6670  -35.6570   11.8700 C.3   104  LYS104      0.0206
     24  CE        33.0700  -35.5850   10.3760 C.3   104  LYS104      0.1093
     25  NZ        34.5010  -35.2150   10.2300 N.3   104  LYS104     -0.1314
     26  N         41.1340  -38.0850   10.7970 N.3   129  ALA129     -0.1245
     27  CA        41.7280  -36.8470   11.3150 C.3   129  ALA129      0.1562
     28  C         41.6030  -36.7450   12.8350 C.2   129  ALA129      0.2260
     29  O         42.5880  -36.4950   13.5390 O.2   129  ALA129     -0.2867
     30  CB        41.0550  -35.6330   10.6520 C.3   129  ALA129      0.0290
     31  N         38.3580  -35.3220   13.9920 N.3   131  GLN131     -0.1245
     32  CA        37.2280  -34.4260   14.2090 C.3   131  GLN131      0.1566
     33  C         36.0500  -35.1760   14.8110 C.2   131  GLN131      0.2260
     34  O         35.4090  -34.6990   15.7550 O.2   131  GLN131     -0.2867
     35  CB        36.8250  -33.7580   12.8990 C.3   131  GLN131      0.0367
     36  CG        37.7480  -32.6240   12.4480 C.3   131  GLN131      0.0905
     37  CD        37.5820  -31.3370   13.2500 C.2   131  GLN131      0.2608
     38  OE1       36.9580  -31.3170   14.3220 O.2   131  GLN131     -0.2717
     39  NE2       38.1360  -30.2500   12.7270 N.am  131  GLN131     -0.0878
     40  N         29.0430  -40.3450    9.7170 N.3   220  SER220     -0.1217
     41  CA        28.7340  -39.8460    8.3810 C.3   220  SER220      0.1889
     42  C         28.0350  -40.9560    7.5840 C.2   220  SER220      0.2288
     43  O         27.7630  -42.0490    8.1000 O.2   220  SER220     -0.2866
     44  CB        30.0110  -39.3440    7.7040 C.3   220  SER220      0.2089
     45  OG        29.7140  -38.6610    6.4990 O.3   220  SER220     -0.2183
     46  N         32.1340  -28.9770    1.2460 N.3   253  CYS253     -0.1221
     47  CA        33.0720  -30.0640    1.0000 C.3   253  CYS253      0.1808
     48  C         32.4610  -31.4080    1.4050 C.2   253  CYS253      0.2601
     49  O         31.5190  -31.4830    2.2030 O.2   253  CYS253     -0.2717
     50  CB        34.3770  -29.8480    1.7510 C.3   253  CYS253      0.0970
     51  SG        34.2450  -30.1140    3.5290 S.3   253  CYS253     -0.0800
     52  N         33.0260  -32.4840    0.8530 N.am  254  VAL254     -0.1965
     53  CA        32.4520  -33.8130    1.0230 C.3   254  VAL254      0.1727
     54  C         33.4890  -34.8700    1.4100 C.2   254  VAL254      0.2617
     55  O         34.2910  -35.3030    0.5770 O.2   254  VAL254     -0.2715
     56  CB        31.7180  -34.2270   -0.2550 C.3   254  VAL254      0.0290
     57  CG1       31.1530  -35.6400   -0.1000 C.3   254  VAL254      0.0023
     58  CG2       30.6120  -33.2170   -0.5600 C.3   254  VAL254      0.0023
     59  N         33.4760  -35.2850    2.6700 N.am  255  GLY255     -0.1940
     60  CA        34.1280  -36.5180    3.0720 C.3   255  GLY255      0.2014
     61  C         33.1590  -37.6810    2.9090 C.2   255  GLY255      0.2639
     62  O         33.1140  -38.3210    1.8530 O.2   255  GLY255     -0.2714
     63  N         32.3490  -37.9420    3.9340 N.am  256  GLY256     -0.1939
     64  CA        31.2690  -38.8930    3.7860 C.3   256  GLY256      0.2014
     65  C         29.9900  -38.2430    3.3000 C.2   256  GLY256      0.2639
     66  O         29.0810  -38.9200    2.8100 O.2   256  GLY256     -0.2714
     67  N         29.9060  -36.9230    3.4520 N.am  257  GLY257     -0.1939
     68  CA        28.7750  -36.1500    2.9800 C.3   257  GLY257      0.2014
     69  C         27.8430  -35.5710    4.0400 C.2   257  GLY257      0.2640
     70  O         26.7560  -35.1050    3.6810 O.2   257  GLY257     -0.2714
     71  N         28.2130  -35.5670    5.3280 N.am  258  SER258     -0.1935
     72  CA        27.2360  -35.0960    6.3070 C.3   258  SER258      0.2055
     73  C         27.1470  -33.5660    6.3710 C.2   258  SER258      0.2643
     74  O         26.0330  -33.0180    6.4040 O.2   258  SER258     -0.2714
     75  CB        27.5210  -35.6900    7.6830 C.3   258  SER258      0.2130
     76  OG        28.7870  -35.3250    8.1730 O.3   258  SER258     -0.2179
     77  N         28.2790  -32.8430    6.3740 N.am  259  ASN259     -0.1971
     78  CA        28.1710  -31.3850    6.4370 C.3   259  ASN259      0.1688
     79  C         27.5290  -30.8250    5.1680 C.2   259  ASN259      0.2292
     80  O         26.7350  -29.8770    5.2380 O.2   259  ASN259     -0.2864
     81  CB        29.5350  -30.7360    6.7290 C.3   259  ASN259      0.1181
     82  CG        30.3310  -30.3760    5.4730 C.2   259  ASN259      0.2629
     83  OD1       30.1180  -29.3200    4.8540 O.2   259  ASN259     -0.2716
     84  ND2       31.3020  -31.2280    5.1270 N.am  259  ASN259     -0.0877
     85  N         39.3420  -35.5890    3.5950 N.3   325  LEU325     -0.1245
     86  CA        38.2970  -36.1260    2.7200 C.3   325  LEU325      0.1561
     87  C         38.7060  -37.5020    2.1640 C.2   325  LEU325      0.2260
     88  O         38.5970  -37.7950    0.9660 O.2   325  LEU325     -0.2867
     89  CB        37.9740  -35.1280    1.6110 C.3   325  LEU325      0.0270
     90  CG        37.6610  -33.6960    2.0800 C.3   325  LEU325      0.0019
     91  CD1       37.2640  -32.8290    0.9060 C.3   325  LEU325      0.0001
     92  CD2       36.5600  -33.6480    3.1380 C.3   325  LEU325      0.0001
     93  N         39.9200  -25.7050    8.2250 N.3   369  ALA369     -0.1245
     94  CA        40.3080  -27.1020    8.1260 C.3   369  ALA369      0.1562
     95  C         40.7580  -27.4050    6.6970 C.2   369  ALA369      0.2260
     96  O         40.2270  -26.8310    5.7410 O.2   369  ALA369     -0.2867
     97  CB        39.1460  -28.0170    8.5240 C.3   369  ALA369      0.0290
     98  N         40.0410  -29.9680    4.9750 N.3   371  GLU371     -0.1245
     99  CA        38.7560  -30.3570    4.3920 C.3   371  GLU371      0.1567
    100  C         38.0200  -29.1610    3.8060 C.2   371  GLU371      0.2260
    101  O         37.6600  -29.1520    2.6250 O.2   371  GLU371     -0.2867
    102  CB        37.8630  -31.0170    5.4510 C.3   371  GLU371      0.0388
    103  CG        38.3090  -32.3650    5.9320 C.3   371  GLU371      0.1160
    104  CD        39.5080  -32.2990    6.8560 C.2   371  GLU371      0.3649
    105  OE1       39.7700  -31.2220    7.4410 O.co2 371  GLU371     -0.2457
    106  OE2       40.1810  -33.3390    6.9940 O.co2 371  GLU371     -0.2457
    107  N         33.3650  -25.9920    7.2970 N.3   400  SER400     -0.1202
    108  CA        32.9210  -27.0960    8.1370 C.3   400  SER400      0.2020
    109  C         33.7540  -27.2500    9.3980 C.2   400  SER400      0.2619
    110  O         33.2690  -27.8420   10.3680 O.2   400  SER400     -0.2717
    111  CB        32.9170  -28.4010    7.3390 C.3   400  SER400      0.2103
    112  OG        34.2210  -28.7280    6.8710 O.3   400  SER400     -0.2182
    113  N         34.9780  -26.7320    9.4190 N.am  401  GLY401     -0.1956
    114  CA        35.7530  -26.7190   10.6510 C.3   401  GLY401      0.1869
    115  C         36.9590  -25.8170   10.5370 C.2   401  GLY401      0.2309
    116  O         37.4170  -25.4820    9.4370 O.2   401  GLY401     -0.2863
@<TRIPOS>BOND
     1    58    56    1
     2    56    57    1
     3    56    53    1
     4    55    54    2
     5    52    53    1
     6    52    48   am
     7    91    90    1
     8    88    87    2
     9    47    46    1
    10    47    48    1
    11    47    50    1
    12    53    54    1
    13    48    49    2
    14    54    59   am
    15    89    90    1
    16    89    86    1
    17    50    51    1
    18    62    61    2
    19    90    92    1
    20    87    86    1
    21   101   100    2
    22    59    60    1
    23    86    85    1
    24    66    65    2
    25    61    60    1
    26    61    63   am
    27    68    67    1
    28    68    69    1
    29    65    67   am
    30    65    64    1
    31    70    69    2
    32    64    63    1
    33   100    99    1
    34    69    71   am
    35    99    98    1
    36    99   102    1
    37    83    82    2
    38    84    82   am
    39    79    80    2
    40    79    78    1
    41    71    72    1
    42   102   103    1
    43    82    81    1
    44    96    95    2
    45   103   104    1
    46    72    73    1
    47    72    75    1
    48    73    77   am
    49    73    74    2
    50    77    78    1
    51    78    81    1
    52    45    44    1
    53    95    94    1
    54   104   106   ar
    55   104   105   ar
    56   112   111    1
    57   107   108    1
    58   111   108    1
    59    42    43    2
    60    42    41    1
    61    75    76    1
    62    44    41    1
    63    94    93    1
    64    94    97    1
    65   108   109    1
    66    41    40    1
    67    16    15   ar
    68    16    14   ar
    69    15    13   ar
    70   109   113   am
    71   109   110    2
    72   113   114    1
    73   116   115    2
    74    14    12   ar
    75    13    12   ar
    76    25    24    1
    77    12    11    1
    78    24    23    1
    79   115   114    1
    80    30    27    1
    81    26    27    1
    82    11     8    1
    83    27    28    1
    84    23    22    1
    85    22    21    1
    86    36    35    1
    87    36    37    1
    88     8     7    1
    89     8     9    1
    90     7     3   am
    91    39    37   am
    92    28    29    2
    93    35    32    1
    94     5     6    1
    95     5     2    1
    96     9    10    2
    97     9    17   am
    98    37    38    2
    99    17    18    1
   100     2     3    1
   101     2     1    1
   102     3     4    2
   103    18    21    1
   104    18    19    1
   105    31    32    1
   106    32    33    1
   107    33    34    2
   108    19    20    2
