@<TRIPOS>MOLECULE
tmp/6hulA00.pdb
 122 116 0 0 0
SMALL
GASTEIGER

@<TRIPOS>ATOM
      1  N          1.2390  -64.0150    2.7930 N.3     7  TYR7       -0.1241
      2  CA         2.3810  -64.4430    1.9890 C.3     7  TYR7        0.1605
      3  C          2.8170  -65.8410    2.4000 C.2     7  TYR7        0.2264
      4  O          2.8590  -66.1640    3.5870 O.2     7  TYR7       -0.2867
      5  CB         3.5890  -63.4950    2.1270 C.3     7  TYR7        0.0534
      6  CG         4.8470  -64.1170    1.5340 C.ar    7  TYR7       -0.0201
      7  CD1        5.6930  -64.8890    2.3130 C.ar    7  TYR7       -0.0009
      8  CD2        5.1490  -63.9830    0.1780 C.ar    7  TYR7       -0.0009
      9  CE1        6.8040  -65.4940    1.7710 C.ar    7  TYR7        0.0417
     10  CE2        6.2640  -64.5940   -0.3730 C.ar    7  TYR7        0.0417
     11  CZ         7.0840  -65.3510    0.4300 C.ar    7  TYR7        0.1957
     12  OH         8.1980  -65.9730   -0.0830 O.3     7  TYR7       -0.2866
     13  N         -0.1540  -63.8890   -1.6320 N.3    34  GLU34      -0.1245
     14  CA         1.0800  -63.6330   -2.3590 C.3    34  GLU34       0.1567
     15  C          2.0150  -64.8170   -2.1560 C.2    34  GLU34       0.2260
     16  O          2.2620  -65.2520   -1.0230 O.2    34  GLU34      -0.2867
     17  CB         1.7360  -62.2920   -1.9940 C.3    34  GLU34       0.0388
     18  CG         1.9380  -61.9460   -0.5510 C.3    34  GLU34       0.1160
     19  CD         2.2930  -60.4670   -0.3910 C.2    34  GLU34       0.3649
     20  OE1        3.2770  -60.1460    0.3130 O.co2  34  GLU34      -0.2457
     21  OE2        1.5900  -59.6180   -0.9890 O.co2  34  GLU34      -0.2457
     22  N         14.4360  -59.3700    1.6050 N.3    45  ASP45      -0.1239
     23  CA        13.8990  -60.3930    2.4880 C.3    45  ASP45       0.1674
     24  C         14.8430  -60.6570    3.6490 C.2    45  ASP45       0.2266
     25  O         16.0650  -60.7270    3.4720 O.2    45  ASP45      -0.2867
     26  CB        13.6340  -61.6890    1.7160 C.3    45  ASP45       0.1410
     27  CG        12.2790  -61.6810    1.0280 C.2    45  ASP45       0.3668
     28  OD1       11.2640  -61.6230    1.7590 O.co2  45  ASP45      -0.2456
     29  OD2       12.2310  -61.6980   -0.2280 O.co2  45  ASP45      -0.2456
     30  N         12.6710  -65.5770    5.5600 N.3    49  ILE49      -0.1245
     31  CA        12.1350  -65.9180    4.2420 C.3    49  ILE49       0.1561
     32  C         13.2560  -66.3850    3.3150 C.2    49  ILE49       0.2260
     33  O         13.0350  -67.2530    2.4580 O.2    49  ILE49      -0.2867
     34  CB        11.3140  -64.7500    3.6520 C.3    49  ILE49       0.0252
     35  CG1        9.9540  -64.6760    4.3580 C.3    49  ILE49       0.0019
     36  CG2       11.0900  -64.9300    2.1520 C.3    49  ILE49       0.0019
     37  CD1        9.1890  -63.4350    4.0910 C.3    49  ILE49       0.0001
     38  N          4.9370  -63.1590   -6.3140 N.3    79  LEU79      -0.1245
     39  CA         5.8920  -62.1990   -5.7730 C.3    79  LEU79       0.1561
     40  C          7.3000  -62.6700   -6.1190 C.2    79  LEU79       0.2260
     41  O          7.7060  -63.7660   -5.7140 O.2    79  LEU79      -0.2867
     42  CB         5.7160  -62.0570   -4.2610 C.3    79  LEU79       0.0270
     43  CG         6.3960  -60.8530   -3.6300 C.3    79  LEU79       0.0019
     44  CD1        5.9140  -60.6560   -2.2070 C.3    79  LEU79       0.0001
     45  CD2        7.8930  -61.0580   -3.6620 C.3    79  LEU79       0.0001
     46  N          1.0110  -51.5460   -2.0810 N.3   156  TYR156     -0.1241
     47  CA         1.7910  -52.1170   -0.9890 C.3   156  TYR156      0.1605
     48  C          2.7430  -51.0640   -0.4420 C.2   156  TYR156      0.2264
     49  O          3.3960  -50.3410   -1.2060 O.2   156  TYR156     -0.2867
     50  CB         2.5790  -53.3430   -1.4610 C.3   156  TYR156      0.0534
     51  CG         3.0960  -54.2500   -0.3400 C.ar  156  TYR156     -0.0201
     52  CD1        4.0910  -53.8220    0.5470 C.ar  156  TYR156     -0.0009
     53  CD2        2.5990  -55.5450   -0.1820 C.ar  156  TYR156     -0.0009
     54  CE1        4.5630  -54.6620    1.5740 C.ar  156  TYR156      0.0417
     55  CE2        3.0690  -56.3910    0.8340 C.ar  156  TYR156      0.0417
     56  CZ         4.0470  -55.9450    1.7020 C.ar  156  TYR156      0.1957
     57  OH         4.4860  -56.7770    2.6990 O.3   156  TYR156     -0.2866
     58  N         11.9800  -57.7840    5.0850 N.3   163  THR163     -0.1203
     59  CA        10.9630  -58.5920    5.7560 C.3   163  THR163      0.1994
     60  C         11.5340  -59.2870    6.9810 C.2   163  THR163      0.2618
     61  O         12.7270  -59.5840    7.0520 O.2   163  THR163     -0.2717
     62  CB        10.3770  -59.6520    4.8210 C.3   163  THR163      0.1784
     63  OG1       11.4230  -60.5320    4.3600 O.3   163  THR163     -0.2211
     64  CG2        9.6700  -58.9960    3.6540 C.3   163  THR163      0.0376
     65  N         10.6580  -59.5640    7.9430 N.am  164  GLY164     -0.1956
     66  CA        11.0120  -60.3540    9.1040 C.3   164  GLY164      0.1869
     67  C         11.7490  -59.6000   10.1930 C.2   164  GLY164      0.2309
     68  O         11.2570  -59.4810   11.3180 O.2   164  GLY164     -0.2863
     69  N          5.6860  -55.9480    6.3060 N.3   190  PHE190     -0.1227
     70  CA         7.0660  -56.0690    6.7820 C.3   190  PHE190      0.1736
     71  C          7.1190  -55.9680    8.3010 C.2   190  PHE190      0.2596
     72  O          7.0620  -54.8740    8.8750 O.2   190  PHE190     -0.2718
     73  CB         7.9960  -55.0270    6.1420 C.3   190  PHE190      0.0547
     74  CG         8.3740  -55.3290    4.7070 C.ar  190  PHE190     -0.0202
     75  CD1        7.4270  -55.7730    3.7930 C.ar  190  PHE190     -0.0042
     76  CD2        9.6720  -55.1390    4.2620 C.ar  190  PHE190     -0.0042
     77  CE1        7.7720  -56.0340    2.4680 C.ar  190  PHE190     -0.0003
     78  CE2       10.0230  -55.4020    2.9340 C.ar  190  PHE190     -0.0003
     79  CZ         9.0720  -55.8410    2.0430 C.ar  190  PHE190     -0.0000
     80  N          7.2290  -57.1170    8.9560 N.am  191  GLY191     -0.1942
     81  CA         7.3590  -57.1510   10.3950 C.3   191  GLY191      0.2014
     82  C          6.0910  -56.8890   11.1770 C.2   191  GLY191      0.2638
     83  O          6.1790  -56.4930   12.3400 O.2   191  GLY191     -0.2714
     84  N          4.9100  -57.0970   10.5930 N.am  192  LEU192     -0.1977
     85  CA         3.6640  -56.8780   11.3310 C.3   192  LEU192      0.1596
     86  C          3.1730  -58.1970   11.9240 C.2   192  LEU192      0.2287
     87  O          2.1730  -58.7660   11.5050 O.2   192  LEU192     -0.2864
     88  CB         2.5990  -56.2480   10.4300 C.3   192  LEU192      0.0297
     89  CG         2.8380  -54.8900    9.7810 C.3   192  LEU192      0.0022
     90  CD1        1.5360  -54.1530    9.7000 C.3   192  LEU192      0.0001
     91  CD2        3.8430  -54.0770   10.5620 C.3   192  LEU192      0.0001
     92  N         -0.4260  -57.0740    5.3120 N.3   210  ALA210     -0.1231
     93  CA         0.2940  -58.1670    4.6700 C.3   210  ALA210      0.1694
     94  C          1.2580  -58.8130    5.6700 C.2   210  ALA210      0.2592
     95  O          2.0370  -58.1210    6.3360 O.2   210  ALA210     -0.2718
     96  CB         1.0280  -57.6540    3.4310 C.3   210  ALA210      0.0304
     97  N          1.2070  -60.1390    5.7710 N.am  211  ILE211     -0.1966
     98  CA         1.9640  -60.8950    6.7650 C.3   211  ILE211      0.1727
     99  C          2.5450  -62.1440    6.1160 C.2   211  ILE211      0.2617
    100  O          1.8320  -62.8770    5.4250 O.2   211  ILE211     -0.2715
    101  CB         1.0830  -61.3080    7.9490 C.3   211  ILE211      0.0290
    102  CG1        0.5230  -60.0860    8.6630 C.3   211  ILE211      0.0022
    103  CG2        1.8620  -62.1840    8.8920 C.3   211  ILE211      0.0023
    104  CD1       -0.6240  -60.4460    9.6260 C.3   211  ILE211      0.0001
    105  N          3.8280  -62.4050    6.3660 N.am  212  GLY212     -0.1940
    106  CA         4.5060  -63.5730    5.8320 C.3   212  GLY212      0.2014
    107  C          5.4020  -64.2830    6.8340 C.2   212  GLY212      0.2640
    108  O          5.1100  -65.4230    7.2220 O.2   212  GLY212     -0.2714
    109  N          6.4760  -63.6150    7.2860 N.am  213  THR213     -0.1936
    110  CA         7.5030  -64.2850    8.0890 C.3   213  THR213      0.2028
    111  C          6.9100  -65.0020    9.2960 C.2   213  THR213      0.2642
    112  O          7.3170  -66.1190    9.6240 O.2   213  THR213     -0.2714
    113  CB         8.5700  -63.2900    8.5580 C.3   213  THR213      0.1808
    114  OG1        9.1490  -62.6140    7.4360 O.3   213  THR213     -0.2208
    115  CG2        9.6680  -64.0140    9.3270 C.3   213  THR213      0.0379
    116  N          5.9420  -64.3850    9.9720 N.am  214  VAL214     -0.1977
    117  CA         5.4290  -65.0020   11.1910 C.3   214  VAL214      0.1596
    118  C          4.7710  -66.3480   10.9020 C.2   214  VAL214      0.2287
    119  O          4.7430  -67.2270   11.7720 O.2   214  VAL214     -0.2864
    120  CB         4.4620  -64.0430   11.9100 C.3   214  VAL214      0.0276
    121  CG1        3.1920  -63.8480   11.0920 C.3   214  VAL214      0.0022
    122  CG2        4.1330  -64.5740   13.2830 C.3   214  VAL214      0.0022
@<TRIPOS>BOND
     1    38    39    1
     2    40    39    1
     3    40    41    2
     4    39    42    1
     5    42    43    1
     6    45    43    1
     7    43    44    1
     8    14    15    1
     9    14    17    1
    10    14    13    1
    11    15    16    2
    12    46    47    1
    13    17    18    1
    14    50    47    1
    15    50    51    1
    16    49    48    2
    17    21    19   ar
    18    47    48    1
    19    18    19    1
    20    19    20   ar
    21    10     8   ar
    22    10    11   ar
    23    51    53   ar
    24    51    52   ar
    25    29    27   ar
    26    53    55   ar
    27    12    11    1
    28     8     6   ar
    29    11     9   ar
    30    52    54   ar
    31    55    56   ar
    32    27    26    1
    33    27    28   ar
    34     6     5    1
    35     6     7   ar
    36    54    56   ar
    37    22    23    1
    38    56    57    1
    39    26    23    1
    40     9     7   ar
    41     2     5    1
    42     2     3    1
    43     2     1    1
    44    79    77   ar
    45    79    78   ar
    46    36    34    1
    47     3     4    2
    48    33    32    2
    49    77    75   ar
    50    23    24    1
    51    78    76   ar
    52    32    31    1
    53    96    93    1
    54    25    24    2
    55    34    31    1
    56    34    35    1
    57    64    62    1
    58    75    74   ar
    59    37    35    1
    60    31    30    1
    61    76    74   ar
    62    63    62    1
    63    93    92    1
    64    93    94    1
    65    74    73    1
    66    62    59    1
    67    58    59    1
    68   100    99    2
    69    94    97   am
    70    94    95    2
    71    59    60    1
    72    97    98    1
    73   106   105    1
    74   106   107    1
    75    99   105   am
    76    99    98    1
    77    73    70    1
    78    69    70    1
    79    98   101    1
    80    70    71    1
    81   107   108    2
    82   107   109   am
    83    60    61    2
    84    60    65   am
    85   109   110    1
    86   114   113    1
    87    65    66    1
    88   101   102    1
    89   101   103    1
    90   110   113    1
    91   110   111    1
    92    71    72    2
    93    71    80   am
    94   113   115    1
    95   102   104    1
    96    80    81    1
    97    66    67    1
    98   111   112    2
    99   111   116   am
   100    90    89    1
   101    89    88    1
   102    89    91    1
   103   116   117    1
   104    67    68    2
   105    81    82    1
   106    88    85    1
   107    84    82   am
   108    84    85    1
   109   118   117    1
   110   118   119    2
   111   121   120    1
   112    82    83    2
   113   117   120    1
   114    85    86    1
   115    87    86    2
   116   120   122    1
