@<TRIPOS>MOLECULE
tmp/6humM00.pdb
 172 163 0 0 0
SMALL
GASTEIGER

@<TRIPOS>ATOM
      1  N        188.8980  205.9550  283.7660 N.3    14  LEU14      -0.1231
      2  CA       188.9990  205.7110  282.3310 C.3    14  LEU14       0.1693
      3  C        187.6300  205.7190  281.6750 C.2    14  LEU14       0.2591
      4  O        187.3720  206.5240  280.7690 O.2    14  LEU14      -0.2718
      5  CB       189.6940  204.3690  282.1070 C.3    14  LEU14       0.0284
      6  CG       190.1420  203.8860  280.7290 C.3    14  LEU14       0.0019
      7  CD1      188.9790  203.3970  279.9020 C.3    14  LEU14       0.0001
      8  CD2      190.9010  204.9620  279.9950 C.3    14  LEU14       0.0001
      9  N        186.7410  204.8360  282.1440 N.am   15  LEU15      -0.1980
     10  CA       185.3600  204.7870  281.6800 C.3    15  LEU15       0.1596
     11  C        184.7360  206.1720  281.6470 C.2    15  LEU15       0.2287
     12  O        184.1710  206.5740  280.6210 O.2    15  LEU15      -0.2864
     13  CB       184.5610  203.8610  282.5900 C.3    15  LEU15       0.0297
     14  CG       183.0840  203.6450  282.2860 C.3    15  LEU15       0.0022
     15  CD1      182.9180  202.9470  280.9540 C.3    15  LEU15       0.0001
     16  CD2      182.4600  202.8490  283.4110 C.3    15  LEU15       0.0001
     17  N        186.2310  209.1800  281.4690 N.3    17  ALA17      -0.1231
     18  CA       186.8440  209.8590  280.3360 C.3    17  ALA17       0.1694
     19  C        186.3210  209.3070  279.0250 C.2    17  ALA17       0.2591
     20  O        185.9310  210.0780  278.1400 O.2    17  ALA17      -0.2718
     21  CB       188.3600  209.7250  280.4000 C.3    17  ALA17       0.0304
     22  N        186.2270  207.9740  278.9220 N.am   18  LEU18      -0.1980
     23  CA       185.7370  207.3480  277.6990 C.3    18  LEU18       0.1596
     24  C        184.3760  207.9070  277.3300 C.2    18  LEU18       0.2287
     25  O        184.1910  208.4400  276.2270 O.2    18  LEU18      -0.2864
     26  CB       185.6610  205.8320  277.8730 C.3    18  LEU18       0.0297
     27  CG       185.2310  205.0130  276.6600 C.3    18  LEU18       0.0022
     28  CD1      186.2560  205.1280  275.5570 C.3    18  LEU18       0.0001
     29  CD2      185.0150  203.5730  277.0670 C.3    18  LEU18       0.0001
     30  N        184.7240  211.3890  276.5030 N.3    21  GLY21      -0.1225
     31  CA       185.3720  211.4870  275.2140 C.3    21  GLY21       0.1811
     32  C        184.3790  211.3260  274.0890 C.2    21  GLY21       0.2280
     33  O        184.3200  212.1610  273.1810 O.2    21  GLY21      -0.2866
     34  N        182.6460  214.5040  273.8610 N.3    24  LEU24      -0.1231
     35  CA       183.3390  215.6360  273.2520 C.3    24  LEU24       0.1693
     36  C        183.4260  215.5210  271.7400 C.2    24  LEU24       0.2591
     37  O        183.5730  216.5390  271.0560 O.2    24  LEU24      -0.2718
     38  CB       184.7590  215.7850  273.8100 C.3    24  LEU24       0.0284
     39  CG       185.0090  216.6420  275.0530 C.3    24  LEU24       0.0019
     40  CD1      184.5470  218.0620  274.8380 C.3    24  LEU24       0.0001
     41  CD2      184.3580  216.0520  276.2620 C.3    24  LEU24       0.0001
     42  N        183.3510  214.3040  271.2100 N.am   25  ILE25      -0.1980
     43  CA       183.4150  214.0630  269.7760 C.3    25  ILE25       0.1595
     44  C        182.0080  214.1290  269.2060 C.2    25  ILE25       0.2287
     45  O        181.7020  214.9890  268.3740 O.2    25  ILE25      -0.2864
     46  CB       184.0730  212.7020  269.4880 C.3    25  ILE25       0.0276
     47  CG1      185.5340  212.6860  269.9550 C.3    25  ILE25       0.0022
     48  CG2      183.9680  212.3580  268.0350 C.3    25  ILE25       0.0022
     49  CD1      186.4610  213.6710  269.2320 C.3    25  ILE25       0.0001
     50  N        179.0530  217.4860  270.7190 N.3    28  SER28      -0.1202
     51  CA       180.1270  218.3510  271.1910 C.3    28  SER28       0.2020
     52  C        179.5870  219.5430  271.9690 C.2    28  SER28       0.2618
     53  O        180.1050  219.8820  273.0390 O.2    28  SER28      -0.2717
     54  CB       180.9630  218.8290  270.0080 C.3    28  SER28       0.2103
     55  OG       180.2050  219.6730  269.1620 O.3    28  SER28      -0.2182
     56  N        178.5530  220.2000  271.4430 N.am   29  GLU29      -0.1979
     57  CA       178.1020  221.4590  272.0270 C.3    29  GLU29       0.1602
     58  C        177.5240  221.2510  273.4200 C.2    29  GLU29       0.2287
     59  O        177.7740  222.0520  274.3290 O.2    29  GLU29      -0.2864
     60  CB       177.0700  222.1210  271.1160 C.3    29  GLU29       0.0415
     61  CG       177.6340  222.6220  269.7850 C.3    29  GLU29       0.1163
     62  CD       177.7390  221.5410  268.7180 C.2    29  GLU29       0.3649
     63  OE1      177.3240  220.3900  268.9710 O.co2  29  GLU29      -0.2457
     64  OE2      178.2440  221.8480  267.6180 O.co2  29  GLU29      -0.2457
     65  N        180.2450  220.5280  275.8490 N.3    32  SER32      -0.1217
     66  CA       181.0660  221.7190  276.0060 C.3    32  SER32       0.1889
     67  C        180.3810  222.7410  276.8960 C.2    32  SER32       0.2288
     68  O        181.0550  223.4870  277.6140 O.2    32  SER32      -0.2866
     69  CB       181.3710  222.3240  274.6420 C.3    32  SER32       0.2089
     70  OG       180.2060  222.8680  274.0530 O.3    32  SER32      -0.2183
     71  N        187.1850  227.8460  277.4040 N.3   117  PRO117     -0.2102
     72  CA       186.9340  226.6330  276.6210 C.3   117  PRO117      0.1504
     73  C        187.9710  225.5630  276.9140 C.2   117  PRO117      0.2576
     74  O        189.1760  225.8260  276.9300 O.2   117  PRO117     -0.2718
     75  CB       187.0190  227.1190  275.1710 C.3   117  PRO117      0.0282
     76  CG       187.8910  228.3000  275.2270 C.3   117  PRO117      0.0208
     77  CD       187.6020  228.9610  276.5330 C.3   117  PRO117      0.0893
     78  N        187.4840  224.3480  277.1500 N.am  118  GLY118     -0.1943
     79  CA       188.3290  223.2160  277.4760 C.3   118  GLY118      0.2014
     80  C        188.2390  222.8420  278.9390 C.2   118  GLY118      0.2639
     81  O        189.2180  222.4030  279.5460 O.2   118  GLY118     -0.2714
     82  N        187.0500  222.9970  279.5100 N.am  119  TYR119     -0.1959
     83  CA       186.8370  222.6810  280.9120 C.3   119  TYR119      0.1771
     84  C        186.5200  221.2120  281.1280 C.2   119  TYR119      0.2619
     85  O        186.6970  220.7100  282.2430 O.2   119  TYR119     -0.2715
     86  CB       185.6990  223.5340  281.4600 C.3   119  TYR119      0.0574
     87  CG       185.4280  223.3430  282.9260 C.ar  119  TYR119     -0.0198
     88  CD1      186.1800  224.0000  283.8800 C.ar  119  TYR119     -0.0009
     89  CD2      184.4330  222.4870  283.3540 C.ar  119  TYR119     -0.0009
     90  CE1      185.9330  223.8240  285.2160 C.ar  119  TYR119      0.0417
     91  CE2      184.1810  222.3010  284.6840 C.ar  119  TYR119      0.0417
     92  CZ       184.9320  222.9690  285.6130 C.ar  119  TYR119      0.1957
     93  OH       184.6680  222.7740  286.9440 O.3   119  TYR119     -0.2866
     94  N        186.0710  220.5170  280.0880 N.am  120  VAL120     -0.1963
     95  CA       185.6820  219.1210  280.1820 C.3   120  VAL120      0.1727
     96  C        186.7470  218.2120  279.5860 C.2   120  VAL120      0.2616
     97  O        187.0050  217.1260  280.1030 O.2   120  VAL120     -0.2715
     98  CB       184.3250  218.9270  279.4780 C.3   120  VAL120      0.0290
     99  CG1      183.8030  217.5300  279.6940 C.3   120  VAL120      0.0023
    100  CG2      183.3460  219.9790  279.9500 C.3   120  VAL120      0.0023
    101  N        187.3490  218.6470  278.4810 N.am  121  ARG121     -0.1977
    102  CA       188.5050  217.9590  277.9230 C.3   121  ARG121      0.1597
    103  C        189.6360  217.8740  278.9330 C.2   121  ARG121      0.2287
    104  O        190.3620  216.8720  278.9790 O.2   121  ARG121     -0.2864
    105  CB       188.9470  218.7010  276.6690 C.3   121  ARG121      0.0334
    106  CG       190.1540  218.1550  275.9630 C.3   121  ARG121      0.0492
    107  CD       190.3610  218.9010  274.6670 C.3   121  ARG121      0.2205
    108  NE       190.6490  220.3230  274.8420 N.pl3 121  ARG121     -0.0865
    109  CZ       191.8610  220.8530  274.9940 C.cat 121  ARG121      0.5346
    110  NH1      192.9530  220.1030  274.9880 N.pl3 121  ARG121      0.1354
    111  NH2      191.9830  222.1610  275.1400 N.pl3 121  ARG121      0.1354
    112  N        188.7290  215.1010  281.2410 N.3   124  ALA124     -0.1231
    113  CA       188.8880  213.8450  280.5220 C.3   124  ALA124      0.1694
    114  C        190.3460  213.4130  280.5160 C.2   124  ALA124      0.2592
    115  O        190.6710  212.2670  280.8540 O.2   124  ALA124     -0.2718
    116  CB       188.3670  213.9880  279.0990 C.3   124  ALA124      0.0304
    117  N        191.2370  214.3250  280.1160 N.am  125  TYR125     -0.1976
    118  CA       192.6700  214.0630  280.1800 C.3   125  TYR125      0.1639
    119  C        193.0860  213.6410  281.5810 C.2   125  TYR125      0.2290
    120  O        193.8820  212.7160  281.7600 O.2   125  TYR125     -0.2864
    121  CB       193.4600  215.3100  279.7960 C.3   125  TYR125      0.0560
    122  CG       193.3670  215.8270  278.3830 C.ar  125  TYR125     -0.0198
    123  CD1      192.8430  215.0700  277.3520 C.ar  125  TYR125     -0.0009
    124  CD2      193.8480  217.0900  278.0850 C.ar  125  TYR125     -0.0009
    125  CE1      192.7890  215.5710  276.0740 C.ar  125  TYR125      0.0417
    126  CE2      193.7980  217.5890  276.8260 C.ar  125  TYR125      0.0417
    127  CZ       193.2740  216.8330  275.8220 C.ar  125  TYR125      0.1957
    128  OH       193.2420  217.3770  274.5680 O.3   125  TYR125     -0.2866
    129  N        191.9330  210.1740  282.5160 N.3   128  LEU128     -0.1245
    130  CA       192.7870  209.2290  281.8110 C.3   128  LEU128      0.1561
    131  C        194.1400  209.1140  282.4960 C.2   128  LEU128      0.2260
    132  O        194.7030  208.0190  282.6020 O.2   128  LEU128     -0.2867
    133  CB       192.9490  209.6700  280.3610 C.3   128  LEU128      0.0270
    134  CG       193.7660  208.7860  279.4270 C.3   128  LEU128      0.0019
    135  CD1      193.1160  207.4320  279.2810 C.3   128  LEU128      0.0001
    136  CD2      193.8950  209.4590  278.0860 C.3   128  LEU128      0.0001
    137  N        201.6330  205.3750  278.5500 N.3   151  LEU151     -0.1245
    138  CA       200.3290  206.0290  278.5180 C.3   151  LEU151      0.1561
    139  C        200.3500  207.3150  279.3360 C.2   151  LEU151      0.2260
    140  O        199.7440  208.3250  278.9540 O.2   151  LEU151     -0.2867
    141  CB       199.2470  205.0870  279.0290 C.3   151  LEU151      0.0270
    142  CG       198.8810  203.9070  278.1300 C.3   151  LEU151      0.0019
    143  CD1      197.9210  202.9850  278.8350 C.3   151  LEU151      0.0001
    144  CD2      198.2700  204.3770  276.8310 C.3   151  LEU151      0.0001
    145  N        202.1090  210.0070  277.1150 N.3   154  MET154     -0.1245
    146  CA       201.2440  210.6550  276.1300 C.3   154  MET154      0.1570
    147  C        200.2090  211.5390  276.8080 C.2   154  MET154      0.2261
    148  O        199.8310  212.5860  276.2700 O.2   154  MET154     -0.2867
    149  CB       200.5500  209.6420  275.2180 C.3   154  MET154      0.0387
    150  CG       199.7040  208.5950  275.8910 C.3   154  MET154      0.0595
    151  SD       198.0790  209.0870  276.5060 S.3   154  MET154     -0.1393
    152  CE       197.1990  209.2950  274.9740 C.3   154  MET154      0.0692
    153  N        199.5140  215.4950  276.1650 N.3   158  LEU158     -0.1245
    154  CA       198.2240  216.1450  275.9730 C.3   158  LEU158      0.1561
    155  C        198.0510  217.3040  276.9420 C.2   158  LEU158      0.2260
    156  O        197.7370  218.4280  276.5360 O.2   158  LEU158     -0.2867
    157  CB       197.0900  215.1410  276.1560 C.3   158  LEU158      0.0270
    158  CG       196.9680  213.9810  275.1780 C.3   158  LEU158      0.0019
    159  CD1      195.8400  213.0880  275.6160 C.3   158  LEU158      0.0001
    160  CD2      196.7350  214.4710  273.7810 C.3   158  LEU158      0.0001
    161  N        196.6650  224.6710  273.0380 N.3   164  TYR164     -0.1241
    162  CA       197.2290  224.5170  271.7030 C.3   164  TYR164      0.1605
    163  C        197.1740  225.8000  270.8860 C.2   164  TYR164      0.2264
    164  O        197.8040  225.8620  269.8250 O.2   164  TYR164     -0.2867
    165  CB       196.5180  223.3880  270.9510 C.3   164  TYR164      0.0534
    166  CG       195.0360  223.5760  270.7410 C.ar  164  TYR164     -0.0201
    167  CD1      194.1160  223.0670  271.6410 C.ar  164  TYR164     -0.0009
    168  CD2      194.5580  224.2470  269.6340 C.ar  164  TYR164     -0.0009
    169  CE1      192.7660  223.2350  271.4460 C.ar  164  TYR164      0.0417
    170  CE2      193.2150  224.4210  269.4320 C.ar  164  TYR164      0.0417
    171  CZ       192.3210  223.9130  270.3370 C.ar  164  TYR164      0.1957
    172  OH       190.9750  224.0880  270.1280 O.3   164  TYR164     -0.2866
@<TRIPOS>BOND
     1    64    62   ar
     2    48    46    1
     3    45    44    2
     4    62    63   ar
     5    62    61    1
     6    55    54    1
     7    44    43    1
     8    49    47    1
     9   170   168   ar
    10   170   171   ar
    11    46    43    1
    12    46    47    1
    13   168   166   ar
    14    43    42    1
    15    61    60    1
    16   164   163    2
    17    54    51    1
    18   172   171    1
    19   171   169   ar
    20    50    51    1
    21   166   165    1
    22   166   167   ar
    23   163   162    1
    24   165   162    1
    25    37    36    2
    26    60    57    1
    27    51    52    1
    28    42    36   am
    29    56    52   am
    30    56    57    1
    31   169   167   ar
    32   162   161    1
    33    36    35    1
    34    52    53    2
    35    57    58    1
    36    33    32    2
    37    35    38    1
    38    35    34    1
    39    58    59    2
    40   160   158    1
    41    38    39    1
    42    70    69    1
    43    32    31    1
    44   128   127    1
    45    69    66    1
    46   107   108    1
    47   107   106    1
    48    40    39    1
    49   108   109    2
    50   152   151    1
    51   110   109    1
    52   109   111    1
    53    39    41    1
    54    75    76    1
    55    75    72    1
    56   158   159    1
    57   158   157    1
    58    31    30    1
    59   149   150    1
    60   149   146    1
    61    76    77    1
    62    28    27    1
    63   127   125   ar
    64   127   126   ar
    65    65    66    1
    66   150   151    1
    67   106   105    1
    68   154   157    1
    69   154   153    1
    70   154   155    1
    71    66    67    1
    72   125   123   ar
    73   146   147    1
    74   146   145    1
    75    25    24    2
    76   148   147    2
    77    77    71    1
    78   156   155    2
    79    72    73    1
    80    72    71    1
    81    27    29    1
    82    27    26    1
    83   105   102    1
    84   126   124   ar
    85   144   142    1
    86    67    68    2
    87    73    74    2
    88    73    78   am
    89    78    79    1
    90    24    23    1
    91   123   122   ar
    92    79    80    1
    93    23    26    1
    94    23    22    1
    95   102   101    1
    96   102   103    1
    97   124   122   ar
    98   136   134    1
    99   142   143    1
   100   142   141    1
   101    20    19    2
   102   122   121    1
   103   101    96   am
   104   138   137    1
   105   138   141    1
   106   138   139    1
   107    22    19   am
   108   103   104    2
   109    80    82   am
   110    80    81    2
   111   140   139    2
   112    19    18    1
   113   116   113    1
   114   135   134    1
   115   134   133    1
   116    98    99    1
   117    98   100    1
   118    98    95    1
   119    82    83    1
   120    96    97    2
   121    96    95    1
   122   121   118    1
   123     7     6    1
   124     8     6    1
   125    94    95    1
   126    94    84   am
   127   117   118    1
   128   117   114   am
   129   118   119    1
   130    18    21    1
   131    18    17    1
   132   133   130    1
   133   114   113    1
   134   114   115    2
   135   113   112    1
   136    12    11    2
   137     6     5    1
   138     4     3    2
   139    83    84    1
   140    83    86    1
   141    15    14    1
   142    84    85    2
   143    86    87    1
   144   119   120    2
   145    11    10    1
   146     3     9   am
   147     3     2    1
   148    10     9    1
   149    10    13    1
   150   130   131    1
   151   130   129    1
   152     5     2    1
   153    14    13    1
   154    14    16    1
   155     2     1    1
   156   131   132    2
   157    87    89   ar
   158    87    88   ar
   159    89    91   ar
   160    88    90   ar
   161    91    92   ar
   162    90    92   ar
   163    92    93    1
