@<TRIPOS>MOLECULE
tmp/6humC00.pdb
 164 154 0 0 0
SMALL
GASTEIGER

@<TRIPOS>ATOM
      1  N        180.9800  191.7670  252.9670 N.3    39  PHE39      -0.1241
      2  CA       181.5780  191.6540  254.2940 C.3    39  PHE39       0.1605
      3  C        180.7300  190.7690  255.1990 C.2    39  PHE39       0.2264
      4  O        181.2610  190.0060  256.0190 O.2    39  PHE39      -0.2867
      5  CB       181.7520  193.0450  254.9030 C.3    39  PHE39       0.0534
      6  CG       182.3880  193.0420  256.2570 C.ar   39  PHE39      -0.0203
      7  CD1      183.7400  192.8020  256.3980 C.ar   39  PHE39      -0.0042
      8  CD2      181.6400  193.2970  257.3870 C.ar   39  PHE39      -0.0042
      9  CE1      184.3290  192.8020  257.6420 C.ar   39  PHE39      -0.0003
     10  CE2      182.2240  193.3000  258.6320 C.ar   39  PHE39      -0.0003
     11  CZ       183.5700  193.0530  258.7590 C.ar   39  PHE39      -0.0000
     12  N        192.2920  186.6030  258.6300 N.3    80  PRO80      -0.2116
     13  CA       192.3340  187.9740  259.1610 C.3    80  PRO80       0.1372
     14  C        192.4640  189.0260  258.0830 C.2    80  PRO80       0.2244
     15  O        191.7970  190.0610  258.1410 O.2    80  PRO80      -0.2868
     16  CB       193.5650  187.9550  260.0740 C.3    80  PRO80       0.0268
     17  CG       193.7070  186.5870  260.4720 C.3    80  PRO80       0.0207
     18  CD       193.3170  185.7740  259.2870 C.3    80  PRO80       0.0892
     19  N        189.1520  189.4450  256.2270 N.3    83  LEU83      -0.1231
     20  CA       188.3280  190.3330  257.0390 C.3    83  LEU83       0.1693
     21  C        188.7790  191.7780  256.8870 C.2    83  LEU83       0.2591
     22  O        187.9590  192.6930  256.7320 O.2    83  LEU83      -0.2718
     23  CB       188.4110  189.9060  258.5030 C.3    83  LEU83       0.0284
     24  CG       187.7730  188.5840  258.9040 C.3    83  LEU83       0.0019
     25  CD1      188.2700  188.1600  260.2570 C.3    83  LEU83       0.0001
     26  CD2      186.2790  188.7350  258.9510 C.3    83  LEU83       0.0001
     27  N        190.0920  191.9920  256.9260 N.am   84  LEU84      -0.1980
     28  CA       190.6470  193.3340  256.8690 C.3    84  LEU84       0.1596
     29  C        190.2710  194.0330  255.5740 C.2    84  LEU84       0.2287
     30  O        189.8310  195.1860  255.5920 O.2    84  LEU84      -0.2864
     31  CB       192.1630  193.2660  257.0150 C.3    84  LEU84       0.0297
     32  CG       192.9290  194.5810  257.0410 C.3    84  LEU84       0.0022
     33  CD1      192.5370  195.3740  258.2570 C.3    84  LEU84       0.0001
     34  CD2      194.4070  194.3170  257.0300 C.3    84  LEU84       0.0001
     35  N        186.5600  194.8570  255.3060 N.3    87  PHE87      -0.1241
     36  CA       186.1850  195.9650  256.1750 C.3    87  PHE87       0.1605
     37  C        186.7020  197.2920  255.6260 C.2    87  PHE87       0.2264
     38  O        185.9520  198.2720  255.5000 O.2    87  PHE87      -0.2867
     39  CB       186.7400  195.6650  257.5690 C.3    87  PHE87       0.0534
     40  CG       186.4290  196.6870  258.6140 C.ar   87  PHE87      -0.0203
     41  CD1      185.1430  196.8630  259.0820 C.ar   87  PHE87      -0.0042
     42  CD2      187.4490  197.4060  259.1990 C.ar   87  PHE87      -0.0042
     43  CE1      184.8800  197.7850  260.0700 C.ar   87  PHE87      -0.0003
     44  CE2      187.1900  198.3220  260.1840 C.ar   87  PHE87      -0.0003
     45  CZ       185.9080  198.5100  260.6220 C.ar   87  PHE87      -0.0000
     46  N        197.8590  193.6330  260.3450 N.3   327  VAL327     -0.1245
     47  CA       196.4790  193.9940  260.6590 C.3   327  VAL327      0.1561
     48  C        196.4110  195.3260  261.3990 C.2   327  VAL327      0.2260
     49  O        195.3730  195.9980  261.3890 O.2   327  VAL327     -0.2867
     50  CB       195.8120  192.8630  261.4640 C.3   327  VAL327      0.0252
     51  CG1      194.4120  193.2560  261.8730 C.3   327  VAL327      0.0019
     52  CG2      195.8030  191.5860  260.6480 C.3   327  VAL327      0.0019
     53  N        194.8290  199.1940  259.6110 N.3   331  LEU331     -0.1245
     54  CA       193.8280  199.9880  260.3010 C.3   331  LEU331      0.1561
     55  C        194.3140  201.3880  260.6380 C.2   331  LEU331      0.2260
     56  O        193.4980  202.3110  260.7230 O.2   331  LEU331     -0.2867
     57  CB       193.4130  199.2730  261.5850 C.3   331  LEU331      0.0270
     58  CG       192.7420  197.9140  261.4010 C.3   331  LEU331      0.0019
     59  CD1      192.5910  197.2330  262.7340 C.3   331  LEU331      0.0001
     60  CD2      191.3990  198.0480  260.7280 C.3   331  LEU331      0.0001
     61  N        191.7460  216.1830  266.8120 N.3   367  ALA367     -0.1231
     62  CA       191.7130  215.1180  267.8060 C.3   367  ALA367      0.1694
     63  C        191.8800  213.7590  267.1560 C.2   367  ALA367      0.2591
     64  O        192.6630  212.9210  267.6180 O.2   367  ALA367     -0.2718
     65  CB       190.3990  215.1680  268.5730 C.3   367  ALA367      0.0304
     66  N        191.1340  213.5270  266.0840 N.am  368  MET368     -0.1979
     67  CA       191.1560  212.2500  265.3890 C.3   368  MET368      0.1605
     68  C        192.5380  211.9880  264.8100 C.2   368  MET368      0.2287
     69  O        193.0670  210.8700  264.8860 O.2   368  MET368     -0.2864
     70  CB       190.0900  212.2940  264.2980 C.3   368  MET368      0.0413
     71  CG       188.6730  212.5310  264.8260 C.3   368  MET368      0.0598
     72  SD       187.5380  213.0940  263.5550 S.3   368  MET368     -0.1393
     73  CE       187.4880  211.6340  262.5570 C.3   368  MET368      0.0692
     74  N        194.9910  211.1810  267.5650 N.3   371  ALA371     -0.1245
     75  CA       194.8240  209.8140  268.0410 C.3   371  ALA371      0.1562
     76  C        195.4560  208.8230  267.0760 C.2   371  ALA371      0.2260
     77  O        196.2050  207.9290  267.4880 O.2   371  ALA371     -0.2867
     78  CB       193.3440  209.5030  268.2360 C.3   371  ALA371      0.0290
     79  N        183.8150  210.8460  261.2350 N.3   449  VAL449     -0.1245
     80  CA       184.0070  210.3930  262.5990 C.3   449  VAL449      0.1561
     81  C        183.6150  208.9360  262.7350 C.2   449  VAL449      0.2260
     82  O        184.2530  208.1870  263.4780 O.2   449  VAL449     -0.2867
     83  CB       183.2060  211.2890  263.5550 C.3   449  VAL449      0.0252
     84  CG1      183.3180  210.7760  264.9640 C.3   449  VAL449      0.0019
     85  CG2      183.6850  212.7210  263.4450 C.3   449  VAL449      0.0019
     86  N        186.5130  206.7560  261.3270 N.3   452  ILE452     -0.1231
     87  CA       187.7040  206.6110  262.1480 C.3   452  ILE452      0.1692
     88  C        187.3790  205.9770  263.4940 C.2   452  ILE452      0.2591
     89  O        188.2160  205.2700  264.0550 O.2   452  ILE452     -0.2718
     90  CB       188.4220  207.9580  262.2530 C.3   452  ILE452      0.0266
     91  CG1      189.1260  208.1830  260.9190 C.3   452  ILE452      0.0019
     92  CG2      189.3950  207.9750  263.4160 C.3   452  ILE452      0.0020
     93  CD1      189.5070  209.5490  260.6410 C.3   452  ILE452      0.0001
     94  N        186.1660  206.1480  264.0120 N.am  453  ALA453     -0.1980
     95  CA       185.7860  205.4330  265.2220 C.3   453  ALA453      0.1597
     96  C        185.7070  203.9300  264.9860 C.2   453  ALA453      0.2287
     97  O        186.1130  203.1410  265.8500 O.2   453  ALA453     -0.2864
     98  CB       184.4590  205.9650  265.7380 C.3   453  ALA453      0.0319
     99  N        189.0890  202.6840  264.8770 N.3   456  LEU456     -0.1231
    100  CA       189.8000  202.9100  266.1230 C.3   456  LEU456      0.1693
    101  C        189.2510  202.0870  267.2820 C.2   456  LEU456      0.2592
    102  O        189.8580  202.0790  268.3570 O.2   456  LEU456     -0.2718
    103  CB       189.7330  204.4020  266.4610 C.3   456  LEU456      0.0284
    104  CG       190.5380  205.0020  267.6000 C.3   456  LEU456      0.0019
    105  CD1      191.9990  204.8500  267.3140 C.3   456  LEU456      0.0001
    106  CD2      190.1890  206.4600  267.7390 C.3   456  LEU456      0.0001
    107  N        188.1130  201.4260  267.1010 N.am  457  VAL457     -0.1966
    108  CA       187.6260  200.4430  268.0670 C.3   457  VAL457      0.1712
    109  C        188.4180  199.1400  267.9510 C.2   457  VAL457      0.2458
    110  O        188.9220  198.6540  268.9780 O.2   457  VAL457     -0.2730
    111  CB       186.1130  200.2090  267.9060 C.3   457  VAL457      0.0289
    112  CG1      185.6590  198.9920  268.6840 C.3   457  VAL457      0.0023
    113  CG2      185.3450  201.4210  268.3890 C.3   457  VAL457      0.0023
    114  N        188.5570  198.5300  266.7630 N.am  458  PRO458     -0.2727
    115  CA       189.2700  197.2450  266.7020 C.3   458  PRO458      0.1402
    116  C        190.7080  197.3380  267.1480 C.2   458  PRO458      0.2269
    117  O        191.2310  196.3940  267.7500 O.2   458  PRO458     -0.2865
    118  CB       189.1840  196.8680  265.2200 C.3   458  PRO458      0.0296
    119  CG       188.0790  197.6460  264.6810 C.3   458  PRO458      0.0237
    120  CD       188.1160  198.9290  265.4170 C.3   458  PRO458      0.0939
    121  N        192.0480  199.2560  269.4650 N.3   460  ILE460     -0.1231
    122  CA       192.1550  199.2660  270.9180 C.3   460  ILE460      0.1692
    123  C        191.7520  197.9110  271.4790 C.2   460  ILE460      0.2593
    124  O        192.3780  197.4000  272.4170 O.2   460  ILE460     -0.2718
    125  CB       191.3080  200.4010  271.5150 C.3   460  ILE460      0.0266
    126  CG1      191.8150  201.7620  271.0300 C.3   460  ILE460      0.0019
    127  CG2      191.3620  200.3240  273.0280 C.3   460  ILE460      0.0020
    128  CD1      190.8900  202.9040  271.3080 C.3   460  ILE460      0.0001
    129  N        190.7060  197.3060  270.9120 N.am  461  GLY461     -0.1942
    130  CA       190.3150  195.9710  271.3370 C.3   461  GLY461      0.2014
    131  C        191.4290  194.9600  271.1530 C.2   461  GLY461      0.2638
    132  O        191.5320  193.9840  271.8990 O.2   461  GLY461     -0.2714
    133  N        192.2750  195.1810  270.1490 N.am  462  ILE462     -0.1977
    134  CA       193.4530  194.3410  269.9640 C.3   462  ILE462      0.1596
    135  C        194.5190  194.6970  270.9880 C.2   462  ILE462      0.2287
    136  O        195.0680  193.8210  271.6650 O.2   462  ILE462     -0.2864
    137  CB       193.9830  194.4780  268.5260 C.3   462  ILE462      0.0276
    138  CG1      192.9970  193.8720  267.5290 C.3   462  ILE462      0.0022
    139  CG2      195.3410  193.8180  268.3970 C.3   462  ILE462      0.0022
    140  CD1      193.2090  194.3270  266.1060 C.3   462  ILE462      0.0001
    141  N        194.4480  195.8980  273.8560 N.3   464  LEU464     -0.1245
    142  CA       194.1600  195.5230  275.2330 C.3   464  LEU464      0.1561
    143  C        194.1840  194.0130  275.4140 C.2   464  LEU464      0.2260
    144  O        194.8180  193.5130  276.3500 O.2   464  LEU464     -0.2867
    145  CB       192.8020  196.0770  275.6460 C.3   464  LEU464      0.0270
    146  CG       192.6690  197.5990  275.6470 C.3   464  LEU464      0.0019
    147  CD1      191.2310  197.9840  275.9090 C.3   464  LEU464      0.0001
    148  CD2      193.5860  198.2470  276.6660 C.3   464  LEU464      0.0001
    149  N        192.4040  188.1180  270.6300 N.3   468  LEU468     -0.1231
    150  CA       191.3160  188.2050  269.6590 C.3   468  LEU468      0.1693
    151  C        191.8180  188.0150  268.2350 C.2   468  LEU468      0.2591
    152  O        191.2450  187.2370  267.4650 O.2   468  LEU468     -0.2718
    153  CB       190.6220  189.5600  269.7740 C.3   468  LEU468      0.0284
    154  CG       189.9260  189.9510  271.0720 C.3   468  LEU468      0.0019
    155  CD1      189.3570  191.3390  270.9090 C.3   468  LEU468      0.0001
    156  CD2      188.8420  188.9810  271.4730 C.3   468  LEU468      0.0001
    157  N        192.8970  188.7010  267.8730 N.am  469  LEU469     -0.1980
    158  CA       193.4600  188.5610  266.5410 C.3   469  LEU469      0.1596
    159  C        194.4070  187.3750  266.4400 C.2   469  LEU469      0.2287
    160  O        194.6130  186.8580  265.3370 O.2   469  LEU469     -0.2864
    161  CB       194.1760  189.8620  266.1500 C.3   469  LEU469      0.0297
    162  CG       194.5590  190.1890  264.6960 C.3   469  LEU469      0.0022
    163  CD1      195.8050  189.4730  264.2150 C.3   469  LEU469      0.0001
    164  CD2      193.3980  189.9090  263.7470 C.3   469  LEU469      0.0001
@<TRIPOS>BOND
     1     1     2    1
     2     2     5    1
     3     2     3    1
     4     5     6    1
     5     3     4    2
     6    35    36    1
     7    38    37    2
     8    29    30    2
     9    29    28    1
    10    37    36    1
    11    36    39    1
    12    19    20    1
    13     6     7   ar
    14     6     8   ar
    15     7     9   ar
    16    22    21    2
    17    28    27    1
    18    28    31    1
    19    21    27   am
    20    21    20    1
    21    31    32    1
    22    34    32    1
    23    20    23    1
    24    32    33    1
    25     8    10   ar
    26    39    40    1
    27     9    11   ar
    28    14    15    2
    29    14    13    1
    30    23    24    1
    31    40    41   ar
    32    40    42   ar
    33    12    13    1
    34    12    18    1
    35    10    11   ar
    36    24    26    1
    37    24    25    1
    38    41    43   ar
    39    13    16    1
    40    42    44   ar
    41    18    17    1
    42    53    54    1
    43    43    45   ar
    44    16    17    1
    45    44    45   ar
    46    54    55    1
    47    54    57    1
    48    46    47    1
    49    55    56    2
    50    93    91    1
    51    52    50    1
    52    47    48    1
    53    47    50    1
    54    60    58    1
    55    91    90    1
    56    79    80    1
    57    86    87    1
    58    49    48    2
    59    58    57    1
    60    58    59    1
    61    50    51    1
    62    87    90    1
    63    87    88    1
    64    90    92    1
    65    73    72    1
    66    80    81    1
    67    80    83    1
    68    81    82    2
    69    85    83    1
    70    88    94   am
    71    88    89    2
    72    83    84    1
    73    72    71    1
    74   164   162    1
    75    94    95    1
    76   163   162    1
    77    70    71    1
    78    70    67    1
    79   119   118    1
    80   119   120    1
    81   162   161    1
    82    68    69    2
    83    68    67    1
    84    99   100    1
    85    96    95    1
    86    96    97    2
    87   118   115    1
    88    95    98    1
    89   160   159    2
    90    67    66    1
    91   120   114    1
    92    66    63   am
    93   140   138    1
    94   100   103    1
    95   100   101    1
    96   161   158    1
    97   159   158    1
    98   103   104    1
    99   158   157    1
   100   115   114    1
   101   115   116    1
   102   114   109   am
   103    61    62    1
   104    76    77    2
   105    76    75    1
   106   107   101   am
   107   107   108    1
   108   116   117    2
   109    63    64    2
   110    63    62    1
   111   101   102    2
   112   105   104    1
   113   152   151    2
   114   138   137    1
   115    74    75    1
   116   104   106    1
   117    62    65    1
   118   157   151   am
   119   111   108    1
   120   111   113    1
   121   111   112    1
   122   109   108    1
   123   109   110    2
   124    75    78    1
   125   151   150    1
   126   139   137    1
   127   137   134    1
   128   121   122    1
   129   150   153    1
   130   150   149    1
   131   153   154    1
   132   134   133    1
   133   134   135    1
   134   133   131   am
   135   155   154    1
   136   129   130    1
   137   129   123   am
   138   122   123    1
   139   122   125    1
   140   135   136    2
   141   126   128    1
   142   126   125    1
   143   154   156    1
   144   131   130    1
   145   131   132    2
   146   123   124    2
   147   125   127    1
   148   141   142    1
   149   142   143    1
   150   142   145    1
   151   143   144    2
   152   145   146    1
   153   146   147    1
   154   146   148    1
