@<TRIPOS>MOLECULE
tmp/6humC01.pdb
 109 102 0 0 0
SMALL
GASTEIGER

@<TRIPOS>ATOM
      1  N        193.8730  224.1610  263.9040 N.3   359  GLY359     -0.1225
      2  CA       193.0800  223.4910  264.9070 C.3   359  GLY359      0.1811
      3  C        192.3010  224.3890  265.8360 C.2   359  GLY359      0.2280
      4  O        191.7640  223.9000  266.8310 O.2   359  GLY359     -0.2866
      5  N        188.7130  221.9870  264.6120 N.3   363  LYS363     -0.1231
      6  CA       189.1310  221.3520  265.8560 C.3   363  LYS363      0.1693
      7  C        188.3840  220.0540  266.1260 C.2   363  LYS363      0.2591
      8  O        188.0830  219.7330  267.2800 O.2   363  LYS363     -0.2718
      9  CB       188.9660  222.3290  267.0180 C.3   363  LYS363      0.0285
     10  CG       187.5470  222.7370  267.3460 C.3   363  LYS363      0.0035
     11  CD       187.5640  223.8590  268.3690 C.3   363  LYS363      0.0206
     12  CE       186.1730  224.3230  268.7350 C.3   363  LYS363      0.1093
     13  NZ       185.4750  224.9850  267.6000 N.3   363  LYS363     -0.1314
     14  N        188.0790  219.3080  265.0720 N.am  364  LYS364     -0.1980
     15  CA       187.5770  217.9440  265.1480 C.3   364  LYS364      0.1596
     16  C        188.5170  216.9630  264.4760 C.2   364  LYS364      0.2287
     17  O        188.7260  215.8600  264.9820 O.2   364  LYS364     -0.2864
     18  CB       186.2030  217.8580  264.4810 C.3   364  LYS364      0.0298
     19  CG       185.4570  216.5400  264.6630 C.3   364  LYS364      0.0038
     20  CD       184.9350  216.3320  266.0690 C.3   364  LYS364      0.0206
     21  CE       183.7700  217.2590  266.3760 C.3   364  LYS364      0.1093
     22  NZ       183.1200  216.9510  267.6660 N.3   364  LYS364     -0.1314
     23  N        191.6140  217.5380  264.3400 N.3   366  PHE366     -0.1227
     24  CA       192.8400  217.5730  265.1250 C.3   366  PHE366      0.1736
     25  C        192.8720  216.4580  266.1590 C.2   366  PHE366      0.2595
     26  O        193.9030  215.8030  266.3320 O.2   366  PHE366     -0.2718
     27  CB       192.9820  218.9490  265.7650 C.3   366  PHE366      0.0547
     28  CG       194.0890  219.0550  266.7590 C.ar  366  PHE366     -0.0202
     29  CD1      195.3830  218.7340  266.4190 C.ar  366  PHE366     -0.0042
     30  CD2      193.8450  219.5740  268.0090 C.ar  366  PHE366     -0.0042
     31  CE1      196.3970  218.8600  267.3300 C.ar  366  PHE366     -0.0003
     32  CE2      194.8520  219.7050  268.9170 C.ar  366  PHE366     -0.0003
     33  CZ       196.1310  219.3510  268.5790 C.ar  366  PHE366     -0.0000
     34  N        191.7460  216.1830  266.8120 N.am  367  ALA367     -0.1980
     35  CA       191.7130  215.1180  267.8060 C.3   367  ALA367      0.1597
     36  C        191.8800  213.7590  267.1560 C.2   367  ALA367      0.2287
     37  O        192.6630  212.9210  267.6180 O.2   367  ALA367     -0.2864
     38  CB       190.3990  215.1680  268.5730 C.3   367  ALA367      0.0319
     39  N        195.3780  213.3820  265.9000 N.3   370  THR370     -0.1203
     40  CA       196.2970  213.1600  267.0040 C.3   370  THR370      0.1994
     41  C        196.2030  211.7290  267.5040 C.2   370  THR370      0.2617
     42  O        197.2210  211.1100  267.8260 O.2   370  THR370     -0.2717
     43  CB       195.9980  214.1370  268.1380 C.3   370  THR370      0.1784
     44  OG1      196.0070  215.4760  267.6330 O.3   370  THR370     -0.2211
     45  CG2      197.0420  214.0190  269.2170 C.3   370  THR370      0.0376
     46  N        194.9910  211.1810  267.5650 N.am  371  ALA371     -0.1979
     47  CA       194.8240  209.8140  268.0410 C.3   371  ALA371      0.1597
     48  C        195.4560  208.8230  267.0760 C.2   371  ALA371      0.2287
     49  O        196.2050  207.9290  267.4880 O.2   371  ALA371     -0.2864
     50  CB       193.3440  209.5030  268.2360 C.3   371  ALA371      0.0319
     51  N        199.2480  209.1020  267.4210 N.3   374  LEU374     -0.1245
     52  CA       199.7010  208.3340  268.5740 C.3   374  LEU374      0.1561
     53  C        199.6590  206.8440  268.2790 C.2   374  LEU374      0.2260
     54  O        200.4800  206.0760  268.7900 O.2   374  LEU374     -0.2867
     55  CB       198.8340  208.6470  269.7900 C.3   374  LEU374      0.0270
     56  CG       198.8980  210.0440  270.3980 C.3   374  LEU374      0.0019
     57  CD1      197.8490  210.1680  271.4630 C.3   374  LEU374      0.0001
     58  CD2      200.2580  210.3260  270.9770 C.3   374  LEU374      0.0001
     59  N        202.6100  203.0180  270.4500 N.3   379  LEU379     -0.1231
     60  CA       201.9680  203.4150  271.6920 C.3   379  LEU379      0.1678
     61  C        201.3290  202.1930  272.3260 C.2   379  LEU379      0.2434
     62  O        200.6350  201.4450  271.6240 O.2   379  LEU379     -0.2733
     63  CB       200.8960  204.4720  271.4620 C.3   379  LEU379      0.0284
     64  CG       200.3150  205.0900  272.7460 C.3   379  LEU379      0.0019
     65  CD1      201.3390  205.9970  273.3950 C.3   379  LEU379      0.0001
     66  CD2      199.0160  205.8340  272.5350 C.3   379  LEU379      0.0001
     67  N        201.5110  201.9360  273.6190 N.am  380  PRO380     -0.2718
     68  CA       200.7640  200.8510  274.2540 C.3   380  PRO380      0.1535
     69  C        199.2680  201.1160  274.2350 C.2   380  PRO380      0.2599
     70  O        198.7950  202.2000  273.8930 O.2   380  PRO380     -0.2715
     71  CB       201.3160  200.8330  275.6750 C.3   380  PRO380      0.0310
     72  CG       202.6680  201.4020  275.5430 C.3   380  PRO380      0.0237
     73  CD       202.5480  202.4590  274.5220 C.3   380  PRO380      0.0939
     74  N        198.5140  200.0910  274.6190 N.am  381  GLY381     -0.1941
     75  CA       197.0730  200.1610  274.5160 C.3   381  GLY381      0.2014
     76  C        196.5510  200.0480  273.1060 C.2   381  GLY381      0.2638
     77  O        195.3590  200.2680  272.8790 O.2   381  GLY381     -0.2714
     78  N        197.4140  199.7220  272.1460 N.am  382  MET382     -0.1976
     79  CA       197.0310  199.6260  270.7480 C.3   382  MET382      0.1605
     80  C        197.8510  198.5310  270.0890 C.2   382  MET382      0.2287
     81  O        198.8290  198.0330  270.6510 O.2   382  MET382     -0.2864
     82  CB       197.2360  200.9510  270.0210 C.3   382  MET382      0.0413
     83  CG       196.3000  202.0420  270.4710 C.3   382  MET382      0.0598
     84  SD       196.6270  203.5720  269.6100 S.3   382  MET382     -0.1393
     85  CE       195.4520  204.6490  270.3900 C.3   382  MET382      0.0692
     86  N        189.0890  202.6840  264.8770 N.3   456  LEU456     -0.1245
     87  CA       189.8000  202.9100  266.1230 C.3   456  LEU456      0.1561
     88  C        189.2510  202.0870  267.2820 C.2   456  LEU456      0.2260
     89  O        189.8580  202.0790  268.3570 O.2   456  LEU456     -0.2867
     90  CB       189.7330  204.4020  266.4610 C.3   456  LEU456      0.0270
     91  CG       190.5380  205.0020  267.6000 C.3   456  LEU456      0.0019
     92  CD1      191.9990  204.8500  267.3140 C.3   456  LEU456      0.0001
     93  CD2      190.1890  206.4600  267.7390 C.3   456  LEU456      0.0001
     94  N        192.0480  199.2560  269.4650 N.3   460  ILE460     -0.1245
     95  CA       192.1550  199.2660  270.9180 C.3   460  ILE460      0.1561
     96  C        191.7520  197.9110  271.4790 C.2   460  ILE460      0.2260
     97  O        192.3780  197.4000  272.4170 O.2   460  ILE460     -0.2867
     98  CB       191.3080  200.4010  271.5150 C.3   460  ILE460      0.0252
     99  CG1      191.8150  201.7620  271.0300 C.3   460  ILE460      0.0019
    100  CG2      191.3620  200.3240  273.0280 C.3   460  ILE460      0.0019
    101  CD1      190.8900  202.9040  271.3080 C.3   460  ILE460      0.0001
    102  N        194.4480  195.8980  273.8560 N.3   464  LEU464     -0.1245
    103  CA       194.1600  195.5230  275.2330 C.3   464  LEU464      0.1561
    104  C        194.1840  194.0130  275.4140 C.2   464  LEU464      0.2260
    105  O        194.8180  193.5130  276.3500 O.2   464  LEU464     -0.2867
    106  CB       192.8020  196.0770  275.6460 C.3   464  LEU464      0.0270
    107  CG       192.6690  197.5990  275.6470 C.3   464  LEU464      0.0019
    108  CD1      191.2310  197.9840  275.9090 C.3   464  LEU464      0.0001
    109  CD2      193.5860  198.2470  276.6660 C.3   464  LEU464      0.0001
@<TRIPOS>BOND
     1     1     2    1
     2    23    24    1
     3    16    17    2
     4    16    15    1
     5    18    19    1
     6    18    15    1
     7     5     6    1
     8    19    20    1
     9    86    87    1
    10     2     3    1
    11    14    15    1
    12    14     7   am
    13    24    27    1
    14    24    25    1
    15    27    28    1
    16     3     4    2
    17     6     7    1
    18     6     9    1
    19    39    40    1
    20    20    21    1
    21    87    90    1
    22    87    88    1
    23     7     8    2
    24    25    26    2
    25    25    34   am
    26    21    22    1
    27    29    28   ar
    28    29    31   ar
    29    90    91    1
    30    28    30   ar
    31    34    35    1
    32    40    41    1
    33    40    43    1
    34     9    10    1
    35    48    49    2
    36    48    47    1
    37    36    37    2
    38    36    35    1
    39    88    89    2
    40    92    91    1
    41    31    33   ar
    42    10    11    1
    43    51    52    1
    44    41    46   am
    45    41    42    2
    46    46    47    1
    47    91    93    1
    48    13    12    1
    49    44    43    1
    50    35    38    1
    51    30    32   ar
    52    47    50    1
    53    43    45    1
    54    53    52    1
    55    53    54    2
    56    11    12    1
    57    52    55    1
    58    33    32   ar
    59    94    95    1
    60    84    85    1
    61    84    83    1
    62    55    56    1
    63    82    83    1
    64    82    79    1
    65    80    81    2
    66    80    79    1
    67    56    58    1
    68    56    57    1
    69    59    60    1
    70    79    78    1
    71    95    96    1
    72    95    98    1
    73    99   101    1
    74    99    98    1
    75    63    60    1
    76    63    64    1
    77    96    97    2
    78    98   100    1
    79    62    61    2
    80    60    61    1
    81    78    76   am
    82    61    67   am
    83    66    64    1
    84    64    65    1
    85    77    76    2
    86    76    75    1
    87    67    68    1
    88    67    73    1
    89   102   103    1
    90    70    69    2
    91    69    68    1
    92    69    74   am
    93    68    71    1
    94    75    74    1
    95    73    72    1
    96   103   104    1
    97   103   106    1
    98   104   105    2
    99    72    71    1
   100   106   107    1
   101   107   108    1
   102   107   109    1
