@<TRIPOS>MOLECULE
tmp/6huoD00.pdb
 86 85 0 0 0
SMALL
GASTEIGER

@<TRIPOS>ATOM
      1  N        154.4960  152.6890  165.6880 N.3    88  PHE88      -0.1241
      2  CA       153.5830  152.5450  164.5690 C.3    88  PHE88       0.1605
      3  C        154.3920  152.6690  163.2870 C.2    88  PHE88       0.2264
      4  O        155.4590  153.2710  163.2840 O.2    88  PHE88      -0.2867
      5  CB       152.4590  153.5840  164.6340 C.3    88  PHE88       0.0534
      6  CG       152.8160  154.9220  164.0510 C.ar   88  PHE88      -0.0203
      7  CD1      153.7750  155.7210  164.6400 C.ar   88  PHE88      -0.0042
      8  CD2      152.1650  155.3910  162.9260 C.ar   88  PHE88      -0.0042
      9  CE1      154.0930  156.9530  164.1060 C.ar   88  PHE88      -0.0003
     10  CE2      152.4760  156.6210  162.3880 C.ar   88  PHE88      -0.0003
     11  CZ       153.4410  157.4030  162.9790 C.ar   88  PHE88      -0.0000
     12  N        155.0360  154.1970  159.7390 N.3    90  HIS90      -0.1241
     13  CA       154.7450  155.4420  159.0350 C.3    90  HIS90       0.1621
     14  C        154.1040  155.2750  157.6670 C.2    90  HIS90       0.2264
     15  O        153.3850  156.1570  157.2050 O.2    90  HIS90      -0.2867
     16  CB       156.0180  156.2810  158.9020 C.3    90  HIS90       0.0745
     17  CG       156.4490  156.9360  160.1770 C.ar   90  HIS90       0.0817
     18  ND1      156.7650  158.2740  160.2560 N.ar   90  HIS90      -0.2268
     19  CD2      156.6120  156.4370  161.4240 C.ar   90  HIS90       0.1154
     20  CE1      157.1090  158.5700  161.4960 C.ar   90  HIS90       0.1986
     21  NE2      157.0230  157.4730  162.2250 N.ar   90  HIS90      -0.2212
     22  N        157.7120  156.3200  167.0900 N.3   147  SER147     -0.1202
     23  CA       156.7060  156.4130  168.1300 C.3   147  SER147      0.2020
     24  C        155.5590  157.2560  167.6130 C.2   147  SER147      0.2618
     25  O        155.6370  157.8030  166.5180 O.2   147  SER147     -0.2717
     26  CB       157.2980  157.0320  169.3920 C.3   147  SER147      0.2103
     27  OG       156.5410  156.6680  170.5300 O.3   147  SER147     -0.2182
     28  N        154.4910  157.3630  168.3900 N.am  148  TYR148     -0.1975
     29  CA       153.3580  158.1630  167.9570 C.3   148  TYR148      0.1639
     30  C        153.0670  159.3190  168.8990 C.2   148  TYR148      0.2290
     31  O        152.7970  160.4310  168.4560 O.2   148  TYR148     -0.2864
     32  CB       152.1000  157.3130  167.7900 C.3   148  TYR148      0.0560
     33  CG       150.9980  158.0830  167.1120 C.ar  148  TYR148     -0.0198
     34  CD1      150.4820  159.2300  167.6890 C.ar  148  TYR148     -0.0009
     35  CD2      150.5050  157.6940  165.8790 C.ar  148  TYR148     -0.0009
     36  CE1      149.4890  159.9540  167.0710 C.ar  148  TYR148      0.0417
     37  CE2      149.5100  158.4140  165.2530 C.ar  148  TYR148      0.0417
     38  CZ       149.0090  159.5420  165.8550 C.ar  148  TYR148      0.1957
     39  OH       148.0210  160.2700  165.2440 O.3   148  TYR148     -0.2866
     40  N        161.6550  162.9760  161.9650 N.3   191  VAL191     -0.1231
     41  CA       160.5280  163.5500  161.2400 C.3   191  VAL191      0.1692
     42  C        159.8020  164.6240  162.0370 C.2   191  VAL191      0.2592
     43  O        158.9720  164.3100  162.8830 O.2   191  VAL191     -0.2718
     44  CB       159.4980  162.4570  160.9000 C.3   191  VAL191      0.0266
     45  CG1      158.2860  163.0520  160.2010 C.3   191  VAL191      0.0020
     46  CG2      160.1350  161.3700  160.0520 C.3   191  VAL191      0.0020
     47  N        160.1050  165.8890  161.7650 N.am  192  GLN192     -0.1966
     48  CA       159.4550  166.9880  162.4700 C.3   192  GLN192      0.1733
     49  C        157.9730  167.0530  162.1340 C.2   192  GLN192      0.2617
     50  O        157.5800  166.8450  160.9920 O.2   192  GLN192     -0.2715
     51  CB       160.1290  168.3160  162.1370 C.3   192  GLN192      0.0408
     52  CG       161.5550  168.4170  162.6410 C.3   192  GLN192      0.0908
     53  CD       162.3190  169.5460  161.9870 C.2   192  GLN192      0.2608
     54  OE1      161.7270  170.4950  161.4750 O.2   192  GLN192     -0.2717
     55  NE2      163.6430  169.4480  161.9980 N.am  192  GLN192     -0.0878
     56  N        157.1570  167.3470  163.1390 N.am  193  SER193     -0.1936
     57  CA       155.7130  167.4340  162.9650 C.3   193  SER193      0.2055
     58  C        155.1210  168.5940  163.7550 C.2   193  SER193      0.2644
     59  O        155.7230  169.0740  164.7110 O.2   193  SER193     -0.2714
     60  CB       155.0470  166.1270  163.3850 C.3   193  SER193      0.2130
     61  OG       153.6500  166.1830  163.1650 O.3   193  SER193     -0.2179
     62  N        153.9400  169.0430  163.3460 N.am  194  SER194     -0.1935
     63  CA       153.2620  170.1480  164.0150 C.3   194  SER194      0.2055
     64  C        153.1630  169.9500  165.5240 C.2   194  SER194      0.2643
     65  O        152.9950  170.9120  166.2690 O.2   194  SER194     -0.2714
     66  CB       151.8750  170.3660  163.4110 C.3   194  SER194      0.2130
     67  OG       151.2700  169.1320  163.0700 O.3   194  SER194     -0.2179
     68  N        153.2710  168.7020  165.9690 N.am  195  THR195     -0.1950
     69  CA       153.2080  168.3800  167.3860 C.3   195  THR195      0.1897
     70  C        154.5780  168.1910  168.0200 C.2   195  THR195      0.2313
     71  O        154.6850  168.2480  169.2490 O.2   195  THR195     -0.2863
     72  CB       152.3790  167.1100  167.6020 C.3   195  THR195      0.1794
     73  OG1      153.0060  166.0120  166.9290 O.3   195  THR195     -0.2208
     74  CG2      150.9780  167.2940  167.0500 C.3   195  THR195      0.0378
     75  N        159.9710  163.5970  165.9690 N.3   198  TYR198     -0.1241
     76  CA       159.9830  162.1910  166.3160 C.3   198  TYR198      0.1605
     77  C        161.1220  161.4220  165.6910 C.2   198  TYR198      0.2264
     78  O        161.6000  161.7540  164.6110 O.2   198  TYR198     -0.2867
     79  CB       158.6540  161.5500  165.9130 C.3   198  TYR198      0.0534
     80  CG       157.4430  162.2450  166.4890 C.ar  198  TYR198     -0.0201
     81  CD1      156.8940  163.3530  165.8660 C.ar  198  TYR198     -0.0009
     82  CD2      156.8500  161.7920  167.6560 C.ar  198  TYR198     -0.0009
     83  CE1      155.7880  163.9910  166.3900 C.ar  198  TYR198      0.0417
     84  CE2      155.7450  162.4240  168.1860 C.ar  198  TYR198      0.0417
     85  CZ       155.2190  163.5210  167.5510 C.ar  198  TYR198      0.1957
     86  OH       154.1170  164.1510  168.0760 O.3   198  TYR198     -0.2866
@<TRIPOS>BOND
     1    15    14    2
     2    14    13    1
     3    16    13    1
     4    16    17    1
     5    13    12    1
     6    46    44    1
     7    17    18   ar
     8    17    19   ar
     9    45    44    1
    10    18    20   ar
    11    44    41    1
    12    50    49    2
    13    41    40    1
    14    41    42    1
    15    19    21   ar
    16    54    53    2
    17    20    21   ar
    18    47    42   am
    19    47    48    1
    20    53    55   am
    21    53    52    1
    22    42    43    2
    23    49    48    1
    24    49    56   am
    25    51    48    1
    26    51    52    1
    27    10     8   ar
    28    10    11   ar
    29     8     6   ar
    30    57    56    1
    31    57    60    1
    32    57    58    1
    33    11     9   ar
    34    67    66    1
    35    61    60    1
    36     4     3    2
    37     3     2    1
    38    62    58   am
    39    62    63    1
    40    66    63    1
    41    58    59    2
    42    63    64    1
    43     6     5    1
    44     6     7   ar
    45     9     7   ar
    46     2     5    1
    47     2     1    1
    48    78    77    2
    49    39    38    1
    50    37    38   ar
    51    37    35   ar
    52    64    68   am
    53    64    65    2
    54    77    76    1
    55    38    36   ar
    56    81    83   ar
    57    81    80   ar
    58    35    33   ar
    59    79    76    1
    60    79    80    1
    61    75    76    1
    62    68    69    1
    63    83    85   ar
    64    80    82   ar
    65    25    24    2
    66    73    72    1
    67    74    72    1
    68    36    34   ar
    69    22    23    1
    70    33    34   ar
    71    33    32    1
    72    69    72    1
    73    69    70    1
    74    85    86    1
    75    85    84   ar
    76    24    23    1
    77    24    28   am
    78    82    84   ar
    79    32    29    1
    80    29    28    1
    81    29    30    1
    82    70    71    2
    83    23    26    1
    84    31    30    2
    85    26    27    1
