@<TRIPOS>MOLECULE
tmp/6hupD00.pdb
 95 93 0 0 0
SMALL
GASTEIGER

@<TRIPOS>ATOM
      1  N        116.1070  146.9400  106.6450 N.3    88  PHE88      -0.1241
      2  CA       117.0220  146.8150  107.7570 C.3    88  PHE88       0.1605
      3  C        116.2970  147.1020  109.0570 C.2    88  PHE88       0.2264
      4  O        115.2170  147.6760  109.0560 O.2    88  PHE88      -0.2867
      5  CB       118.1660  147.7860  107.5950 C.3    88  PHE88       0.0534
      6  CG       117.8160  149.1790  107.9270 C.ar   88  PHE88      -0.0203
      7  CD1      117.1320  149.9820  107.0620 C.ar   88  PHE88      -0.0042
      8  CD2      118.3520  149.7370  109.0640 C.ar   88  PHE88      -0.0042
      9  CE1      116.8680  151.2690  107.4050 C.ar   88  PHE88      -0.0003
     10  CE2      118.1090  151.0050  109.3990 C.ar   88  PHE88      -0.0003
     11  CZ       117.3680  151.7810  108.5750 C.ar   88  PHE88      -0.0000
     12  N        116.1450  149.0710  112.5550 N.3    90  HIS90      -0.1241
     13  CA       116.6940  150.3190  113.0810 C.3    90  HIS90       0.1621
     14  C        117.4390  150.0990  114.3810 C.2    90  HIS90       0.2264
     15  O        118.5490  150.6090  114.5590 O.2    90  HIS90      -0.2867
     16  CB       115.5910  151.3450  113.3030 C.3    90  HIS90       0.0745
     17  CG       114.9430  151.8250  112.0530 C.ar   90  HIS90       0.0817
     18  ND1      115.5340  152.7380  111.2120 N.ar   90  HIS90      -0.2268
     19  CD2      113.7710  151.4870  111.4750 C.ar   90  HIS90       0.1154
     20  CE1      114.7350  152.9670  110.1850 C.ar   90  HIS90       0.1986
     21  NE2      113.6680  152.2060  110.3120 N.ar   90  HIS90      -0.2212
     22  N        111.8280  148.1090  115.3340 N.3   144  LYS144     -0.1245
     23  CA       111.7620  149.1630  114.3340 C.3   144  LYS144      0.1561
     24  C        112.4530  148.7230  113.0490 C.2   144  LYS144      0.2260
     25  O        113.6690  148.5230  113.0470 O.2   144  LYS144     -0.2867
     26  CB       112.4200  150.4290  114.8550 C.3   144  LYS144      0.0271
     27  CG       111.7440  151.0680  116.0130 C.3   144  LYS144      0.0035
     28  CD       112.4900  152.3120  116.3530 C.3   144  LYS144      0.0206
     29  CE       111.8540  153.0110  117.5040 C.3   144  LYS144      0.1093
     30  NZ       112.6020  154.2530  117.8230 N.3   144  LYS144     -0.1314
     31  N        113.0420  150.9250  105.2520 N.3   147  SER147     -0.1202
     32  CA       113.9260  150.8060  104.1110 C.3   147  SER147      0.2020
     33  C        115.0670  151.7890  104.2170 C.2   147  SER147      0.2618
     34  O        114.9270  152.8640  104.7920 O.2   147  SER147     -0.2717
     35  CB       113.1860  151.0380  102.8110 C.3   147  SER147      0.2103
     36  OG       114.0950  150.9650  101.7320 O.3   147  SER147     -0.2182
     37  N        116.2090  151.4160  103.6610 N.am  148  TYR148     -0.1975
     38  CA       117.3920  152.2320  103.8710 C.3   148  TYR148      0.1639
     39  C        117.6190  153.2570  102.7690 C.2   148  TYR148      0.2290
     40  O        118.0450  154.3750  103.0640 O.2   148  TYR148     -0.2864
     41  CB       118.6240  151.3510  104.0330 C.3   148  TYR148      0.0560
     42  CG       119.7890  152.1760  104.4400 C.ar  148  TYR148     -0.0198
     43  CD1      119.8510  152.7110  105.6850 C.ar  148  TYR148     -0.0009
     44  CD2      120.8300  152.4200  103.5710 C.ar  148  TYR148     -0.0009
     45  CE1      120.8950  153.4860  106.0650 C.ar  148  TYR148      0.0417
     46  CE2      121.8940  153.1900  103.9490 C.ar  148  TYR148      0.0417
     47  CZ       121.9120  153.7220  105.2040 C.ar  148  TYR148      0.1957
     48  OH       122.9510  154.5080  105.6190 O.3   148  TYR148     -0.2866
     49  N        109.7860  157.8580  110.1540 N.3   191  VAL191     -0.1231
     50  CA       110.9940  158.5300  110.6140 C.3   191  VAL191      0.1692
     51  C        111.4590  159.5240  109.5680 C.2   191  VAL191      0.2592
     52  O        111.6980  159.1520  108.4160 O.2   191  VAL191     -0.2718
     53  CB       112.0990  157.5180  110.9290 C.3   191  VAL191      0.0266
     54  CG1      113.4240  158.2130  111.0970 C.3   191  VAL191      0.0020
     55  CG2      111.7570  156.8180  112.2160 C.3   191  VAL191      0.0020
     56  N        111.5830  160.7880  109.9700 N.am  192  GLN192     -0.1966
     57  CA       112.0940  161.8410  109.1040 C.3   192  GLN192      0.1733
     58  C        113.5860  162.0340  109.3160 C.2   192  GLN192      0.2617
     59  O        114.0170  162.4170  110.4040 O.2   192  GLN192     -0.2715
     60  CB       111.3750  163.1560  109.3640 C.3   192  GLN192      0.0408
     61  CG       109.9170  163.1260  109.0530 C.3   192  GLN192      0.0908
     62  CD       109.2770  164.4490  109.3350 C.2   192  GLN192      0.2608
     63  OE1      109.9280  165.3750  109.8160 O.2   192  GLN192     -0.2717
     64  NE2      107.9890  164.5510  109.0570 N.am  192  GLN192     -0.0878
     65  N        114.3610  161.8020  108.2760 N.am  193  SER193     -0.1936
     66  CA       115.7790  162.0960  108.2770 C.3   193  SER193      0.2055
     67  C        116.0300  163.3850  107.5180 C.2   193  SER193      0.2644
     68  O        115.1070  164.0510  107.0470 O.2   193  SER193     -0.2714
     69  CB       116.5960  160.9670  107.6660 C.3   193  SER193      0.2130
     70  OG       117.9610  161.3370  107.6610 O.3   193  SER193     -0.2179
     71  N        117.3040  163.7490  107.4060 N.am  194  SER194     -0.1935
     72  CA       117.6570  164.8420  106.5150 C.3   194  SER194      0.2055
     73  C        117.6350  164.3960  105.0670 C.2   194  SER194      0.2643
     74  O        117.4840  165.2290  104.1670 O.2   194  SER194     -0.2714
     75  CB       119.0370  165.3800  106.8620 C.3   194  SER194      0.2130
     76  OG       120.0250  164.4050  106.5970 O.3   194  SER194     -0.2179
     77  N        117.8280  163.1020  104.8260 N.am  195  THR195     -0.1950
     78  CA       117.8090  162.5880  103.4670 C.3   195  THR195      0.1897
     79  C        116.3920  162.4340  102.9480 C.2   195  THR195      0.2313
     80  O        116.1660  162.5410  101.7420 O.2   195  THR195     -0.2863
     81  CB       118.5370  161.2530  103.4010 C.3   195  THR195      0.1794
     82  OG1      117.8690  160.3170  104.2480 O.3   195  THR195     -0.2208
     83  CG2      119.9550  161.4140  103.8810 C.3   195  THR195      0.0378
     84  N        110.8250  158.2670  105.7620 N.3   198  TYR198     -0.1241
     85  CA       110.9900  156.8240  105.6370 C.3   198  TYR198      0.1605
     86  C        109.8980  156.0650  106.3640 C.2   198  TYR198      0.2264
     87  O        109.6510  156.3120  107.5450 O.2   198  TYR198     -0.2867
     88  CB       112.3380  156.3850  106.1620 C.3   198  TYR198      0.0534
     89  CG       113.4860  156.9060  105.3670 C.ar  198  TYR198     -0.0201
     90  CD1      113.8860  156.2680  104.2220 C.ar  198  TYR198     -0.0009
     91  CD2      114.1580  158.0400  105.7490 C.ar  198  TYR198     -0.0009
     92  CE1      114.9320  156.7310  103.4820 C.ar  198  TYR198      0.0417
     93  CE2      115.2110  158.5110  105.0180 C.ar  198  TYR198      0.0417
     94  CZ       115.5900  157.8530  103.8870 C.ar  198  TYR198      0.1957
     95  OH       116.6410  158.3330  103.1560 O.3   198  TYR198     -0.2866
@<TRIPOS>BOND
     1    36    35    1
     2    80    79    2
     3    39    40    2
     4    39    38    1
     5    35    32    1
     6    79    78    1
     7    95    94    1
     8    81    78    1
     9    81    83    1
    10    81    82    1
    11    78    77    1
    12    92    94   ar
    13    92    90   ar
    14    44    46   ar
    15    44    42   ar
    16    37    38    1
    17    37    33   am
    18    38    41    1
    19    94    93   ar
    20    46    47   ar
    21    41    42    1
    22    32    33    1
    23    32    31    1
    24    74    73    2
    25    33    34    2
    26    90    89   ar
    27    42    43   ar
    28    77    73   am
    29    93    91   ar
    30    73    72    1
    31    47    48    1
    32    47    45   ar
    33    89    91   ar
    34    89    88    1
    35    85    84    1
    36    85    88    1
    37    85    86    1
    38    43    45   ar
    39    86    87    2
    40    72    75    1
    41    72    71    1
    42    76    75    1
    43     1     2    1
    44    68    67    2
    45     7     9   ar
    46     7     6   ar
    47     9    11   ar
    48    71    67   am
    49    67    66    1
    50     5     2    1
    51     5     6    1
    52    70    69    1
    53    69    66    1
    54     2     3    1
    55     6     8   ar
    56    65    66    1
    57    65    58   am
    58    52    51    2
    59    11    10   ar
    60    61    62    1
    61    61    60    1
    62     4     3    2
    63    64    62   am
    64     8    10   ar
    65    57    58    1
    66    57    60    1
    67    57    56    1
    68    58    59    2
    69    62    63    2
    70    51    56   am
    71    51    50    1
    72    49    50    1
    73    20    21   ar
    74    20    18   ar
    75    21    19   ar
    76    50    53    1
    77    53    54    1
    78    53    55    1
    79    18    17   ar
    80    19    17   ar
    81    17    16    1
    82    12    13    1
    83    25    24    2
    84    24    23    1
    85    13    16    1
    86    13    14    1
    87    23    26    1
    88    23    22    1
    89    14    15    2
    90    26    27    1
    91    27    28    1
    92    28    29    1
    93    29    30    1
