@<TRIPOS>MOLECULE
tmp/6huqK00.pdb
 159 152 0 0 0
SMALL
GASTEIGER

@<TRIPOS>ATOM
      1  N         10.7150 -140.1150    9.4100 N.3     1  THR1       -0.1218
      2  CA        10.7900 -138.7890    8.7060 C.3     1  THR1        0.1862
      3  C         11.4270 -138.9260    7.3370 C.2     1  THR1        0.2287
      4  O         12.4560 -139.5860    7.1670 O.2     1  THR1       -0.2866
      5  CB        11.5490 -137.7620    9.5460 C.3     1  THR1        0.1770
      6  OG1       10.8030 -137.6390   10.7800 O.3     1  THR1       -0.2211
      7  CG2       11.6870 -136.3890    8.8650 C.3     1  THR1        0.0375
      8  N          4.8460 -138.2950   10.0690 N.3    19  ARG19      -0.1231
      9  CA         4.9390 -139.1840   11.2260 C.3    19  ARG19       0.1694
     10  C          5.9710 -138.6920   12.2240 C.2    19  ARG19       0.2592
     11  O          7.0630 -138.2740   11.8410 O.2    19  ARG19      -0.2718
     12  CB         5.2990 -140.6040   10.7840 C.3    19  ARG19       0.0321
     13  CG         5.5030 -141.5770   11.9390 C.3    19  ARG19       0.0489
     14  CD         5.6850 -143.0030   11.4620 C.3    19  ARG19       0.2205
     15  NE         4.4440 -143.5920   10.9730 N.pl3  19  ARG19      -0.0865
     16  CZ         4.3100 -144.8550   10.5600 C.cat  19  ARG19       0.5346
     17  NH1        5.3450 -145.6960   10.5650 N.pl3  19  ARG19       0.1354
     18  NH2        3.1260 -145.2880   10.1370 N.pl3  19  ARG19       0.1354
     19  N          5.6300 -138.7910   13.5050 N.am   20  ALA20      -0.1966
     20  CA         6.5510 -138.4690   14.5920 C.3    20  ALA20       0.1728
     21  C          6.6840 -139.6840   15.4970 C.2    20  ALA20       0.2617
     22  O          5.6790 -140.2530   15.9370 O.2    20  ALA20      -0.2715
     23  CB         6.0500 -137.2760   15.3810 C.3    20  ALA20       0.0334
     24  N          7.9300 -140.0640   15.7720 N.am   21  THR21      -0.1937
     25  CA         8.2440 -141.2460   16.5640 C.3    21  THR21       0.2028
     26  C          9.0500 -140.9220   17.8200 C.2    21  THR21       0.2642
     27  O          9.8530 -139.9850   17.8390 O.2    21  THR21      -0.2714
     28  CB         9.0270 -142.2760   15.7230 C.3    21  THR21       0.1808
     29  OG1        9.8390 -141.5940   14.7530 O.3    21  THR21      -0.2208
     30  CG2        8.0640 -143.2160   15.0110 C.3    21  THR21       0.0379
     31  N          8.8070 -141.7150   18.8610 N.am   22  ALA22      -0.1977
     32  CA         9.6030 -141.7200   20.0770 C.3    22  ALA22       0.1597
     33  C         10.0900 -143.1550   20.2430 C.2    22  ALA22       0.2287
     34  O          9.5480 -143.9270   21.0330 O.2    22  ALA22      -0.2864
     35  CB         8.7590 -141.2800   21.2630 C.3    22  ALA22       0.0319
     36  N          7.4910 -146.0840   19.0930 N.3    25  TRP25      -0.1241
     37  CA         6.1720 -145.5540   19.3760 C.3    25  TRP25       0.1605
     38  C          5.8240 -144.5040   18.3290 C.2    25  TRP25       0.2264
     39  O          6.4710 -143.4640   18.2650 O.2    25  TRP25      -0.2867
     40  CB         6.1580 -144.9420   20.7780 C.3    25  TRP25       0.0550
     41  CG         4.9420 -144.1640   21.1010 C.ar   25  TRP25       0.0003
     42  CD1        4.8750 -142.8330   21.3660 C.ar   25  TRP25       0.0946
     43  CD2        3.6100 -144.6630   21.1940 C.ar   25  TRP25       0.0152
     44  NE1        3.5830 -142.4670   21.6230 N.ar   25  TRP25      -0.2442
     45  CE2        2.7830 -143.5740   21.5250 C.ar   25  TRP25       0.0810
     46  CE3        3.0340 -145.9280   21.0320 C.ar   25  TRP25       0.0012
     47  CZ2        1.4080 -143.7070   21.6980 C.ar   25  TRP25       0.0191
     48  CZ3        1.6680 -146.0610   21.2040 C.ar   25  TRP25       0.0001
     49  CH2        0.8690 -144.9540   21.5300 C.ar   25  TRP25       0.0015
     50  N          4.0450 -141.6640   17.6770 N.3    27  ALA27      -0.1231
     51  CA         3.4390 -140.6420   18.5250 C.3    27  ALA27       0.1694
     52  C          2.3470 -139.8710   17.8020 C.2    27  ALA27       0.2592
     53  O          1.3520 -139.5120   18.4140 O.2    27  ALA27      -0.2718
     54  CB         4.4950 -139.6890   19.0340 C.3    27  ALA27       0.0304
     55  N          2.5300 -139.6110   16.5100 N.am   28  SER28      -0.1952
     56  CA         1.5190 -138.9130   15.7140 C.3    28  SER28       0.1924
     57  C          1.7240 -139.1710   14.2280 C.2    28  SER28       0.2314
     58  O          2.8590 -139.3300   13.7770 O.2    28  SER28      -0.2863
     59  CB         1.5840 -137.4070   15.9900 C.3    28  SER28       0.2116
     60  OG         0.6330 -136.6830   15.2240 O.3    28  SER28      -0.2180
     61  N          1.4270 -134.7230   11.5990 N.3    31  VAL31      -0.1231
     62  CA         2.4360 -133.7450   11.9870 C.3    31  VAL31       0.1692
     63  C          2.8080 -132.8510   10.7950 C.2    31  VAL31       0.2592
     64  O          2.8320 -133.3110    9.6470 O.2    31  VAL31      -0.2718
     65  CB         3.6740 -134.4720   12.5690 C.3    31  VAL31       0.0266
     66  CG1        4.8980 -133.5750   12.6440 C.3    31  VAL31       0.0020
     67  CG2        3.3590 -135.0410   13.9440 C.3    31  VAL31       0.0020
     68  N          3.1060 -131.5810   11.0830 N.am   32  LYS32      -0.1966
     69  CA         3.4720 -130.5850   10.0630 C.3    32  LYS32       0.1728
     70  C          4.9810 -130.4420   10.0530 C.2    32  LYS32       0.2616
     71  O          5.5670 -129.9100   10.9940 O.2    32  LYS32      -0.2715
     72  CB         2.8380 -129.2140   10.3410 C.3    32  LYS32       0.0311
     73  CG         1.3520 -129.1120   10.0250 C.3    32  LYS32       0.0038
     74  CD         0.5440 -130.1090   10.8480 C.3    32  LYS32       0.0206
     75  CE        -0.9040 -129.6970   11.0580 C.3    32  LYS32       0.1093
     76  NZ        -1.4910 -130.4790   12.1850 N.3    32  LYS32      -0.1314
     77  N          5.6040 -130.9310    8.9910 N.am   33  LYS33      -0.1977
     78  CA         7.0560 -130.8750    8.8470 C.3    33  LYS33       0.1596
     79  C          7.4990 -129.7810    7.8950 C.2    33  LYS33       0.2287
     80  O          8.6910 -129.6520    7.6160 O.2    33  LYS33      -0.2864
     81  CB         7.5850 -132.2270    8.3880 C.3    33  LYS33       0.0298
     82  CG         7.4580 -133.2620    9.4830 C.3    33  LYS33       0.0038
     83  CD         7.7830 -134.6510    9.0000 C.3    33  LYS33       0.0206
     84  CE         7.4810 -135.6380   10.1090 C.3    33  LYS33       0.1093
     85  NZ         8.1150 -136.9390    9.8260 N.3    33  LYS33      -0.1314
     86  N         11.3580 -129.9150    7.9630 N.3    45  MET45      -0.1230
     87  CA        11.8870 -130.3270    9.2600 C.3    45  MET45       0.1702
     88  C         12.1770 -131.8260    9.3310 C.2    45  MET45       0.2592
     89  O         11.2800 -132.6500    9.1310 O.2    45  MET45      -0.2718
     90  CB        10.8950 -129.9660   10.3560 C.3    45  MET45       0.0401
     91  CG        10.4600 -128.5150   10.3640 C.3    45  MET45       0.0596
     92  SD         9.2030 -128.2600   11.6230 S.3    45  MET45      -0.1393
     93  CE         8.8530 -126.5360   11.3380 C.3    45  MET45       0.0692
     94  N         13.4350 -132.1570    9.6180 N.am   46  ALA46      -0.1966
     95  CA        13.8540 -133.5130    9.9760 C.3    46  ALA46       0.1728
     96  C         14.7820 -133.4380   11.1820 C.2    46  ALA46       0.2617
     97  O         15.2770 -132.3730   11.5160 O.2    46  ALA46      -0.2715
     98  CB        14.5540 -134.1750    8.8050 C.3    46  ALA46       0.0334
     99  N         15.0560 -134.5730   11.8070 N.am   47  GLY47      -0.1940
    100  CA        15.7720 -134.6040   13.0830 C.3    47  GLY47       0.2014
    101  C         14.8500 -134.3660   14.2670 C.2    47  GLY47       0.2639
    102  O         13.7380 -134.8850   14.3060 O.2    47  GLY47      -0.2714
    103  N         15.3140 -133.5820   15.2360 N.am   48  GLY48      -0.1939
    104  CA        14.5470 -133.2800   16.4460 C.3    48  GLY48       0.2014
    105  C         13.3350 -132.4150   16.1560 C.2    48  GLY48       0.2639
    106  O         13.4500 -131.3890   15.4900 O.2    48  GLY48      -0.2714
    107  N         12.1760 -132.8340   16.6590 N.am   49  ALA49      -0.1963
    108  CA        10.9120 -132.1610   16.3730 C.3    49  ALA49       0.1728
    109  C         10.8720 -130.7490   16.9440 C.2    49  ALA49       0.2616
    110  O         10.4560 -129.8130   16.2660 O.2    49  ALA49      -0.2715
    111  CB         9.7500 -132.9730   16.9200 C.3    49  ALA49       0.0334
    112  N         11.2960 -130.6130   18.1970 N.am   50  ALA50      -0.1977
    113  CA        11.3220 -129.3210   18.8780 C.3    50  ALA50       0.1597
    114  C         12.3610 -128.3980   18.2850 C.2    50  ALA50       0.2287
    115  O         12.0750 -127.2400   18.0150 O.2    50  ALA50      -0.2864
    116  CB        11.6010 -129.5070   20.3530 C.3    50  ALA50       0.0319
    117  N         13.6070 -128.2580   15.3990 N.3    52  CYS52      -0.1221
    118  CA        13.2140 -127.7690   14.0860 C.3    52  CYS52       0.1808
    119  C         12.0940 -126.7520   14.2020 C.2    52  CYS52       0.2601
    120  O         12.2350 -125.6160   13.7550 O.2    52  CYS52      -0.2717
    121  CB        12.7840 -128.9260   13.2000 C.3    52  CYS52       0.0970
    122  SG        14.1740 -129.9600   12.7100 S.3    52  CYS52      -0.0800
    123  N         10.9930 -127.1710   14.8210 N.am   53  GLN53      -0.1979
    124  CA         9.8000 -126.3310   14.9850 C.3    53  GLN53       0.1601
    125  C         10.1110 -124.9900   15.6540 C.2    53  GLN53       0.2287
    126  O          9.5460 -123.9630   15.2900 O.2    53  GLN53      -0.2864
    127  CB         8.7410 -127.0680   15.8060 C.3    53  GLN53       0.0394
    128  CG         7.3170 -126.7340   15.4320 C.3    53  GLN53       0.0908
    129  CD         6.3260 -127.3500   16.3910 C.2    53  GLN53       0.2608
    130  OE1        6.4870 -127.2600   17.6080 O.2    53  GLN53      -0.2717
    131  NE2        5.2910 -127.9850   15.8470 N.am   53  GLN53      -0.0878
    132  N         19.5830 -131.5240   17.0920 N.3    96  SER96      -0.1217
    133  CA        19.3690 -132.4640   15.9890 C.3    96  SER96       0.1889
    134  C         18.4350 -131.8190   14.9880 C.2    96  SER96       0.2288
    135  O         17.2650 -131.5810   15.2790 O.2    96  SER96      -0.2866
    136  CB        18.7750 -133.7740   16.4900 C.3    96  SER96       0.2089
    137  OG        18.7600 -134.7370   15.4550 O.3    96  SER96      -0.2183
    138  N         16.0690 -137.0800    6.2820 N.3   130  GLY130     -0.1210
    139  CA        15.2320 -137.8670    7.1820 C.3   130  GLY130      0.1956
    140  C         15.7580 -139.2770    7.2820 C.2   130  GLY130      0.2612
    141  O         16.7490 -139.6110    6.6530 O.2   130  GLY130     -0.2717
    142  N         15.1000 -140.1030    8.0880 N.am  131  SER131     -0.1952
    143  CA        15.4760 -141.5110    8.2090 C.3   131  SER131      0.1924
    144  C         15.1140 -142.2950    6.9420 C.2   131  SER131      0.2314
    145  O         15.6680 -143.3670    6.6940 O.2   131  SER131     -0.2863
    146  CB        14.8280 -142.1450    9.4460 C.3   131  SER131      0.2116
    147  OG        13.4120 -142.0720    9.4030 O.3   131  SER131     -0.2180
    148  N          9.9920 -145.4030   10.3700 N.3   170  TYR170     -0.1241
    149  CA         9.7910 -144.1120   11.0440 C.3   170  TYR170      0.1605
    150  C          9.1680 -143.0280   10.1650 C.2   170  TYR170      0.2264
    151  O          8.9110 -141.9230   10.6490 O.2   170  TYR170     -0.2867
    152  CB        11.1160 -143.6210   11.6540 C.3   170  TYR170      0.0534
    153  CG        11.7810 -144.6550   12.5470 C.ar  170  TYR170     -0.0201
    154  CD1       11.0300 -145.3960   13.4700 C.ar  170  TYR170     -0.0009
    155  CD2       13.1510 -144.9070   12.4680 C.ar  170  TYR170     -0.0009
    156  CE1       11.6180 -146.3510   14.2800 C.ar  170  TYR170      0.0417
    157  CE2       13.7510 -145.8610   13.2840 C.ar  170  TYR170      0.0417
    158  CZ        12.9770 -146.5820   14.1880 C.ar  170  TYR170      0.1957
    159  OH        13.5410 -147.5370   15.0090 O.3   170  TYR170     -0.2866
@<TRIPOS>BOND
     1   138   139    1
     2   141   140    2
     3   145   144    2
     4   144   143    1
     5     4     3    2
     6   139   140    1
     7   140   142   am
     8     3     2    1
     9    80    79    2
    10    79    78    1
    11    86    87    1
    12   142   143    1
    13   143   146    1
    14    81    78    1
    15    81    82    1
    16     2     1    1
    17     2     5    1
    18    98    95    1
    19    78    77    1
    20     7     5    1
    21    77    70   am
    22    83    82    1
    23    83    84    1
    24    89    88    2
    25    87    88    1
    26    87    90    1
    27    88    94   am
    28   147   146    1
    29     5     6    1
    30    94    95    1
    31    64    63    2
    32    85    84    1
    33    95    96    1
    34    73    72    1
    35    73    74    1
    36    70    69    1
    37    70    71    2
    38    69    72    1
    39    69    68    1
    40     8     9    1
    41    18    16    1
    42   150   151    2
    43   150   149    1
    44    90    91    1
    45    91    92    1
    46   148   149    1
    47    16    17    1
    48    16    15    2
    49    12     9    1
    50    12    13    1
    51    63    68   am
    52    63    62    1
    53    74    75    1
    54    15    14    1
    55   149   152    1
    56    75    76    1
    57    96    97    2
    58    96    99   am
    59     9    10    1
    60    93    92    1
    61    14    13    1
    62    61    62    1
    63   152   153    1
    64    99   100    1
    65    11    10    2
    66    62    65    1
    67    10    19   am
    68   155   153   ar
    69   155   157   ar
    70   153   154   ar
    71    65    66    1
    72    65    67    1
    73   122   121    1
    74   100   101    1
    75   121   118    1
    76   157   158   ar
    77   154   156   ar
    78    19    20    1
    79   120   119    2
    80    58    57    2
    81   118   119    1
    82   118   117    1
    83   158   156   ar
    84   158   159    1
    85   119   123   am
    86    57    56    1
    87   101   102    2
    88   101   103   am
    89    20    23    1
    90    20    21    1
    91    29    28    1
    92   123   124    1
    93   124   125    1
    94   124   127    1
    95   134   135    2
    96   134   133    1
    97    30    28    1
    98    60    59    1
    99   103   104    1
   100   126   125    2
   101   128   127    1
   102   128   129    1
   103   137   136    1
   104   106   105    2
   105    21    24   am
   106    21    22    2
   107    56    59    1
   108    56    55    1
   109    28    25    1
   110    24    25    1
   111   131   129   am
   112   133   136    1
   113   133   132    1
   114   105   104    1
   115   105   107   am
   116   110   109    2
   117   108   107    1
   118   108   111    1
   119   108   109    1
   120   129   130    2
   121    55    52   am
   122    25    26    1
   123   109   112   am
   124    50    51    1
   125    52    53    2
   126    52    51    1
   127    26    27    2
   128    26    31   am
   129   115   114    2
   130   112   113    1
   131    39    38    2
   132   114   113    1
   133    38    37    1
   134    51    54    1
   135    31    32    1
   136   113   116    1
   137    36    37    1
   138    37    40    1
   139    32    33    1
   140    32    35    1
   141    33    34    2
   142    40    41    1
   143    46    43   ar
   144    46    48   ar
   145    41    43   ar
   146    41    42   ar
   147    43    45   ar
   148    48    49   ar
   149    42    44   ar
   150    45    44   ar
   151    45    47   ar
   152    49    47   ar
