@<TRIPOS>MOLECULE
tmp/6huqW00.pdb
 84 82 0 0 0
SMALL
GASTEIGER

@<TRIPOS>ATOM
      1  N         17.3230 -171.8950   29.3720 N.3    98  ARG98      -0.1245
      2  CA        17.1340 -170.8270   30.3790 C.3    98  ARG98       0.1563
      3  C         18.2080 -169.7380   30.3460 C.2    98  ARG98       0.2260
      4  O         17.8850 -168.5560   30.4820 O.2    98  ARG98      -0.2867
      5  CB        17.0520 -171.4130   31.8020 C.3    98  ARG98       0.0307
      6  CG        16.9960 -170.4000   32.9460 C.3    98  ARG98       0.0489
      7  CD        15.8160 -169.4500   32.8070 C.3    98  ARG98       0.2205
      8  NE        15.7330 -168.5170   33.9270 N.pl3  98  ARG98      -0.0865
      9  CZ        16.5040 -167.4440   34.0940 C.cat  98  ARG98       0.5346
     10  NH1       16.3280 -166.6660   35.1600 N.pl3  98  ARG98       0.1354
     11  NH2       17.4570 -167.1380   33.2120 N.pl3  98  ARG98       0.1354
     12  N         18.4840 -167.9990   25.9280 N.3   101  PRO101     -0.2116
     13  CA        17.1390 -168.2980   25.4480 C.3   101  PRO101      0.1372
     14  C         16.8870 -167.9390   23.9950 C.2   101  PRO101      0.2244
     15  O         17.6640 -167.1970   23.3790 O.2   101  PRO101     -0.2868
     16  CB        16.2500 -167.4480   26.3620 C.3   101  PRO101      0.0268
     17  CG        17.1000 -166.2780   26.7120 C.3   101  PRO101      0.0207
     18  CD        18.5200 -166.7720   26.7420 C.3   101  PRO101      0.0892
     19  N          3.6780 -167.2250   26.4670 N.3   123  PHE123     -0.1227
     20  CA         4.9100 -167.4750   27.2270 C.3   123  PHE123      0.1736
     21  C          5.8810 -166.3070   27.1290 C.2   123  PHE123      0.2595
     22  O          5.9490 -165.6380   26.0880 O.2   123  PHE123     -0.2718
     23  CB         5.6470 -168.7320   26.7350 C.3   123  PHE123      0.0547
     24  CG         4.7430 -169.8590   26.3250 C.ar  123  PHE123     -0.0202
     25  CD1        4.0730 -169.8130   25.1100 C.ar  123  PHE123     -0.0042
     26  CD2        4.5740 -170.9710   27.1400 C.ar  123  PHE123     -0.0042
     27  CE1        3.2370 -170.8370   24.7180 C.ar  123  PHE123     -0.0003
     28  CE2        3.7410 -172.0040   26.7510 C.ar  123  PHE123     -0.0003
     29  CZ         3.0730 -171.9380   25.5370 C.ar  123  PHE123     -0.0000
     30  N          6.6440 -166.0810   28.2040 N.am  124  ASP124     -0.1960
     31  CA         7.8680 -165.2840   28.1040 C.3   124  ASP124      0.1840
     32  C          8.9430 -166.1100   27.3700 C.2   124  ASP124      0.2622
     33  O          8.7300 -167.2820   27.0520 O.2   124  ASP124     -0.2715
     34  CB         8.3240 -164.7150   29.4760 C.3   124  ASP124      0.1450
     35  CG         8.8780 -165.7710   30.4550 C.2   124  ASP124      0.3671
     36  OD1        8.9580 -166.9680   30.1070 O.co2 124  ASP124     -0.2456
     37  OD2        9.2480 -165.3840   31.6000 O.co2 124  ASP124     -0.2456
     38  N         10.0800 -165.4890   27.0840 N.am  125  LEU125     -0.1963
     39  CA        11.1620 -166.1400   26.3140 C.3   125  LEU125      0.1728
     40  C         11.8330 -167.3590   26.9980 C.2   125  LEU125      0.2616
     41  O         12.4990 -168.1750   26.3270 O.2   125  LEU125     -0.2715
     42  CB        12.2230 -165.1050   25.9070 C.3   125  LEU125      0.0311
     43  CG        13.3240 -164.7190   26.8970 C.3   125  LEU125      0.0022
     44  CD1       14.3490 -163.8060   26.2390 C.3   125  LEU125      0.0001
     45  CD2       12.7390 -164.0560   28.1260 C.3   125  LEU125      0.0001
     46  N         11.6680 -167.4730   28.3170 N.am  126  ILE126     -0.1977
     47  CA        12.1670 -168.6370   29.0690 C.3   126  ILE126      0.1596
     48  C         11.0560 -169.6050   29.5250 C.2   126  ILE126      0.2287
     49  O         11.2940 -170.4820   30.3420 O.2   126  ILE126     -0.2864
     50  CB        13.0780 -168.2160   30.2490 C.3   126  ILE126      0.0276
     51  CG1       12.3790 -167.2300   31.1900 C.3   126  ILE126      0.0022
     52  CG2       14.3680 -167.6120   29.7110 C.3   126  ILE126      0.0022
     53  CD1       13.0670 -167.0930   32.5290 C.3   126  ILE126      0.0001
     54  N          7.8180 -169.3280   31.0280 N.3   128  CYS128     -0.1221
     55  CA         6.7310 -169.1300   31.9930 C.3   128  CYS128      0.1808
     56  C          5.4260 -168.9520   31.2360 C.2   128  CYS128      0.2601
     57  O          5.3610 -168.1600   30.3060 O.2   128  CYS128     -0.2717
     58  CB         6.9290 -167.9130   32.8820 C.3   128  CYS128      0.0970
     59  SG         5.5720 -167.7780   34.0750 S.3   128  CYS128     -0.0800
     60  N          4.3960 -169.6790   31.6520 N.am  129  ILE129     -0.1965
     61  CA         3.1240 -169.7010   30.9410 C.3   129  ILE129      0.1727
     62  C          2.2130 -168.5960   31.4720 C.2   129  ILE129      0.2616
     63  O          1.9820 -168.5110   32.6780 O.2   129  ILE129     -0.2715
     64  CB         2.4300 -171.0790   31.0790 C.3   129  ILE129      0.0290
     65  CG1        3.3600 -172.1910   30.5670 C.3   129  ILE129      0.0022
     66  CG2        1.1110 -171.1170   30.3060 C.3   129  ILE129      0.0023
     67  CD1        2.9860 -173.5820   31.0360 C.3   129  ILE129      0.0001
     68  N          1.7360 -167.7400   30.5670 N.am  130  ASP130     -0.1957
     69  CA         0.5550 -166.9030   30.8020 C.3   130  ASP130      0.1840
     70  C         -0.6400 -167.7450   30.3660 C.2   130  ASP130      0.2621
     71  O         -0.7720 -168.0630   29.1820 O.2   130  ASP130     -0.2715
     72  CB         0.6350 -165.5930   29.9920 C.3   130  ASP130      0.1450
     73  CG        -0.6270 -164.7140   30.1150 C.2   130  ASP130      0.3671
     74  OD1       -1.5350 -165.0060   30.9290 O.co2 130  ASP130     -0.2456
     75  OD2       -0.7040 -163.7100   29.3720 O.co2 130  ASP130     -0.2456
     76  N         -1.5020 -168.0860   31.3240 N.am  131  GLU131     -0.1977
     77  CA        -2.6340 -169.0020   31.0940 C.3   131  GLU131      0.1602
     78  C         -3.9540 -168.2730   31.3370 C.2   131  GLU131      0.2287
     79  O         -4.6500 -168.5040   32.3280 O.2   131  GLU131     -0.2864
     80  CB        -2.5080 -170.2910   31.9340 C.3   131  GLU131      0.0415
     81  CG        -1.6700 -170.1840   33.2020 C.3   131  GLU131      0.1163
     82  CD        -1.5700 -171.5010   33.9420 C.2   131  GLU131      0.3649
     83  OE1       -0.4360 -171.9390   34.2260 O.co2 131  GLU131     -0.2457
     84  OE2       -2.6210 -172.1060   34.2320 O.co2 131  GLU131     -0.2457
@<TRIPOS>BOND
     1    15    14    2
     2    14    13    1
     3    27    25   ar
     4    27    29   ar
     5    25    24   ar
     6    13    12    1
     7    13    16    1
     8    29    28   ar
     9    42    39    1
    10    42    43    1
    11    12    18    1
    12    22    21    2
    13    44    43    1
    14    39    40    1
    15    39    38    1
    16    24    23    1
    17    24    26   ar
    18    41    40    2
    19    16    17    1
    20    19    20    1
    21    17    18    1
    22    23    20    1
    23    28    26   ar
    24    43    45    1
    25    40    46   am
    26    33    32    2
    27    38    32   am
    28    21    20    1
    29    21    30   am
    30    32    31    1
    31    31    30    1
    32    31    34    1
    33    46    47    1
    34    47    48    1
    35    47    50    1
    36    71    70    2
    37    75    73   ar
    38     1     2    1
    39    34    35    1
    40    48    49    2
    41    52    50    1
    42    72    73    1
    43    72    69    1
    44    36    35   ar
    45    73    74   ar
    46    50    51    1
    47    66    64    1
    48    57    56    2
    49     3     2    1
    50     3     4    2
    51    70    69    1
    52    70    76   am
    53     2     5    1
    54    35    37   ar
    55    65    67    1
    56    65    64    1
    57    68    69    1
    58    68    62   am
    59    61    64    1
    60    61    62    1
    61    61    60    1
    62    54    55    1
    63    77    76    1
    64    77    78    1
    65    77    80    1
    66    51    53    1
    67    56    60   am
    68    56    55    1
    69    78    79    2
    70    62    63    2
    71     5     6    1
    72    80    81    1
    73    55    58    1
    74     7     6    1
    75     7     8    1
    76    58    59    1
    77    81    82    1
    78    11     9    1
    79     8     9    2
    80    82    83   ar
    81    82    84   ar
    82     9    10    1
