@<TRIPOS>MOLECULE
tmp/6huqV00.pdb
 138 130 0 0 0
SMALL
GASTEIGER

@<TRIPOS>ATOM
      1  N          4.7580 -159.1850   43.4080 N.3     1  THR1       -0.1218
      2  CA         4.0540 -160.3490   44.0250 C.3     1  THR1        0.1862
      3  C          4.0140 -160.1650   45.5510 C.2     1  THR1        0.2287
      4  O          4.8770 -159.5060   46.1320 O.2     1  THR1       -0.2866
      5  CB         4.7770 -161.6500   43.6490 C.3     1  THR1        0.1770
      6  OG1        4.6390 -161.8580   42.2410 O.3     1  THR1       -0.2211
      7  CG2        4.1130 -162.8590   44.2960 C.3     1  THR1        0.0375
      8  N         -1.4870 -161.5340   40.6180 N.3    19  ARG19      -0.1231
      9  CA        -1.0620 -160.6580   39.5150 C.3    19  ARG19       0.1694
     10  C          0.2840 -161.0980   38.9100 C.2    19  ARG19       0.2592
     11  O          1.2990 -161.1500   39.6030 O.2    19  ARG19      -0.2718
     12  CB        -0.9840 -159.1990   39.9820 C.3    19  ARG19       0.0321
     13  CG        -0.4200 -158.2430   38.9380 C.3    19  ARG19       0.0489
     14  CD        -0.4720 -156.7970   39.3970 C.3    19  ARG19       0.2205
     15  NE        -1.8440 -156.2930   39.4550 N.pl3  19  ARG19      -0.0865
     16  CZ        -2.2040 -155.0830   39.8910 C.cat  19  ARG19       0.5346
     17  NH1       -1.3000 -154.2080   40.3290 N.pl3  19  ARG19       0.1354
     18  NH2       -3.4920 -154.7480   39.8970 N.pl3  19  ARG19       0.1354
     19  N          0.2760 -161.3950   37.6120 N.am   20  ALA20      -0.1966
     20  CA         1.4900 -161.7030   36.8550 C.3    20  ALA20       0.1728
     21  C          1.7760 -160.5200   35.9510 C.2    20  ALA20       0.2617
     22  O          0.9300 -160.1600   35.1210 O.2    20  ALA20      -0.2715
     23  CB         1.2940 -162.9610   36.0200 C.3    20  ALA20       0.0334
     24  N          2.9580 -159.9190   36.1080 N.am   21  THR21      -0.1937
     25  CA         3.3230 -158.7130   35.3580 C.3    21  THR21       0.2028
     26  C          4.5100 -158.8890   34.4260 C.2    21  THR21       0.2642
     27  O          5.4780 -159.5620   34.7550 O.2    21  THR21      -0.2714
     28  CB         3.6650 -157.5370   36.2900 C.3    21  THR21       0.1808
     29  OG1        4.6740 -157.9330   37.2210 O.3    21  THR21      -0.2208
     30  CG2        2.4420 -157.0750   37.0400 C.3    21  THR21       0.0379
     31  N          4.4040 -158.2520   33.2630 N.am   22  GLU22      -0.1963
     32  CA         5.5010 -158.0640   32.3230 C.3    22  GLU22       0.1733
     33  C          5.8370 -156.5850   32.3780 C.2    22  GLU22       0.2616
     34  O          5.0530 -155.7620   31.8990 O.2    22  GLU22      -0.2715
     35  CB         5.0600 -158.3990   30.8910 C.3    22  GLU22       0.0429
     36  CG         5.7310 -159.6040   30.2430 C.3    22  GLU22       0.1163
     37  CD         5.9140 -159.4600   28.7350 C.2    22  GLU22       0.3649
     38  OE1        5.6860 -158.3580   28.1780 O.co2  22  GLU22      -0.2457
     39  OE2        6.3070 -160.4650   28.0880 O.co2  22  GLU22      -0.2457
     40  N          6.9830 -156.2330   32.9520 N.am   23  GLY23      -0.1955
     41  CA         7.3440 -154.8260   33.1070 C.3    23  GLY23       0.1869
     42  C          6.3070 -154.1310   33.9720 C.2    23  GLY23       0.2309
     43  O          6.1530 -154.4710   35.1420 O.2    23  GLY23      -0.2863
     44  N         -0.1680 -159.1620   32.6230 N.3    27  ALA27      -0.1245
     45  CA        -0.4380 -160.2110   31.6220 C.3    27  ALA27       0.1562
     46  C         -1.5610 -161.1520   32.0530 C.2    27  ALA27       0.2260
     47  O         -2.3860 -161.5550   31.2230 O.2    27  ALA27      -0.2867
     48  CB         0.8250 -161.0040   31.3270 C.3    27  ALA27       0.0290
     49  N         -3.4750 -165.5440   38.1250 N.3    31  CYS31      -0.1221
     50  CA        -2.5230 -166.6380   37.9490 C.3    31  CYS31       0.1808
     51  C         -2.2660 -167.3210   39.2920 C.2    31  CYS31       0.2602
     52  O         -2.4180 -166.7080   40.3550 O.2    31  CYS31      -0.2717
     53  CB        -1.2230 -166.1340   37.3210 C.3    31  CYS31       0.0970
     54  SG        -0.0710 -165.3530   38.4700 S.3    31  CYS31      -0.0800
     55  N         -1.9090 -168.6010   39.2400 N.am   32  SER32      -0.1938
     56  CA        -1.6890 -169.3790   40.4520 C.3    32  SER32       0.2055
     57  C         -0.2330 -169.2340   40.8470 C.2    32  SER32       0.2642
     58  O          0.6690 -169.5120   40.0460 O.2    32  SER32      -0.2714
     59  CB        -2.0520 -170.8520   40.2490 C.3    32  SER32       0.2130
     60  OG        -2.3570 -171.4590   41.4980 O.3    32  SER32      -0.2179
     61  N         -0.0200 -168.7620   42.0720 N.am   33  LYS33      -0.1977
     62  CA         1.3170 -168.6390   42.6400 C.3    33  LYS33       0.1596
     63  C          1.6010 -169.6610   43.7380 C.2    33  LYS33       0.2287
     64  O          2.7260 -169.7080   44.2460 O.2    33  LYS33      -0.2864
     65  CB         1.5030 -167.2290   43.1770 C.3    33  LYS33       0.0298
     66  CG         1.3530 -166.1780   42.1010 C.3    33  LYS33       0.0038
     67  CD         1.5480 -164.8020   42.6790 C.3    33  LYS33       0.0206
     68  CE         1.4220 -163.7370   41.6050 C.3    33  LYS33       0.1093
     69  NZ         1.7970 -162.4000   42.1210 N.3    33  LYS33      -0.1314
     70  N          2.0400 -173.5000   44.5520 N.3    35  HIS35      -0.1241
     71  CA         2.4190 -174.7030   43.8270 C.3    35  HIS35       0.1621
     72  C          2.4060 -175.9340   44.7110 C.2    35  HIS35       0.2264
     73  O          2.6710 -175.8760   45.9160 O.2    35  HIS35      -0.2867
     74  CB         3.8160 -174.5450   43.2270 C.3    35  HIS35       0.0745
     75  CG         3.9530 -173.3580   42.3280 C.ar   35  HIS35       0.0817
     76  ND1        4.5260 -172.1730   42.7410 N.ar   35  HIS35      -0.2268
     77  CD2        3.5730 -173.1650   41.0430 C.ar   35  HIS35       0.1154
     78  CE1        4.5010 -171.3050   41.7470 C.ar   35  HIS35       0.1986
     79  NE2        3.9310 -171.8820   40.7030 N.ar   35  HIS35      -0.2212
     80  N          5.2860 -168.8680   45.3640 N.3    45  GLY45      -0.1210
     81  CA         6.3740 -168.4610   44.4830 C.3    45  GLY45       0.1956
     82  C          6.4040 -166.9750   44.1690 C.2    45  GLY45       0.2612
     83  O          5.3750 -166.3790   43.8440 O.2    45  GLY45      -0.2717
     84  N          7.5930 -166.3870   44.2740 N.am   46  ALA46      -0.1965
     85  CA         7.8560 -165.0060   43.8610 C.3    46  ALA46       0.1728
     86  C          9.2110 -164.9450   43.1600 C.2    46  ALA46       0.2617
     87  O          9.9140 -165.9470   43.0740 O.2    46  ALA46      -0.2715
     88  CB         7.8360 -164.0910   45.0680 C.3    46  ALA46       0.0334
     89  N          9.5900 -163.7700   42.6810 N.am   47  GLY47      -0.1940
     90  CA        10.7620 -163.6290   41.8250 C.3    47  GLY47       0.2014
     91  C         10.4360 -163.8910   40.3630 C.2    47  GLY47       0.2640
     92  O          9.3240 -163.6100   39.9070 O.2    47  GLY47      -0.2714
     93  N         11.4200 -164.4180   39.6320 N.am   48  THR48      -0.1936
     94  CA        11.2520 -164.7840   38.2280 C.3    48  THR48       0.2028
     95  C         10.3180 -165.9900   38.1260 C.2    48  THR48       0.2642
     96  O         10.6370 -167.0730   38.6140 O.2    48  THR48      -0.2714
     97  CB        12.5990 -165.1350   37.5670 C.3    48  THR48       0.1808
     98  OG1       13.5500 -164.1010   37.8390 O.3    48  THR48      -0.2208
     99  CG2       12.4380 -165.2970   36.0580 C.3    48  THR48       0.0379
    100  N          9.1770 -165.7930   37.4720 N.am   49  ALA49      -0.1963
    101  CA         8.0820 -166.7680   37.4900 C.3    49  ALA49       0.1728
    102  C          8.4290 -168.1140   36.8560 C.2    49  ALA49       0.2616
    103  O          7.9950 -169.1570   37.3520 O.2    49  ALA49      -0.2715
    104  CB         6.8540 -166.1810   36.8160 C.3    49  ALA49       0.0334
    105  N          9.1900 -168.0850   35.7610 N.am   50  ALA50      -0.1977
    106  CA         9.6310 -169.3160   35.1010 C.3    50  ALA50       0.1597
    107  C         10.4590 -170.1560   36.0560 C.2    50  ALA50       0.2287
    108  O         10.2260 -171.3570   36.1900 O.2    50  ALA50      -0.2864
    109  CB        10.4450 -169.0070   33.8580 C.3    50  ALA50       0.0319
    110  N         10.5290 -169.9380   39.3420 N.3    52  THR52      -0.1203
    111  CA         9.6310 -170.3480   40.4080 C.3    52  THR52       0.1994
    112  C          8.8530 -171.6100   40.0340 C.2    52  THR52       0.2617
    113  O          8.7600 -172.5440   40.8300 O.2    52  THR52      -0.2717
    114  CB         8.6910 -169.1770   40.7580 C.3    52  THR52       0.1784
    115  OG1        9.3620 -168.3180   41.6890 O.3    52  THR52      -0.2211
    116  CG2        7.3890 -169.6340   41.3580 C.3    52  THR52       0.0376
    117  N          8.3070 -171.6240   38.8220 N.am   53  ASP53      -0.1973
    118  CA         7.5320 -172.7630   38.3230 C.3    53  ASP53       0.1709
    119  C          8.3290 -174.0440   38.1680 C.2    53  ASP53       0.2293
    120  O          7.9260 -175.0830   38.6700 O.2    53  ASP53      -0.2864
    121  CB         6.9030 -172.4340   36.9670 C.3    53  ASP53       0.1436
    122  CG         5.7100 -171.5310   37.0840 C.2    53  ASP53       0.3671
    123  OD1        5.3850 -170.8780   36.0650 O.co2  53  ASP53      -0.2456
    124  OD2        5.0920 -171.4590   38.1770 O.co2  53  ASP53      -0.2456
    125  N          8.3720 -161.2850   47.9790 N.3   128  GLY128     -0.1210
    126  CA         7.9370 -160.5720   46.7830 C.3   128  GLY128      0.1956
    127  C          7.9950 -159.0750   46.9990 C.2   128  GLY128      0.2612
    128  O          8.4030 -158.6110   48.0550 O.2   128  GLY128     -0.2717
    129  N          7.5820 -158.3190   45.9880 N.am  129  SER129     -0.1952
    130  CA         7.5840 -156.8600   46.0600 C.3   129  SER129      0.1924
    131  C          6.6420 -156.3280   47.1420 C.2   129  SER129      0.2314
    132  O          6.8670 -155.2470   47.6770 O.2   129  SER129     -0.2863
    133  CB         7.2490 -156.2400   44.6950 C.3   129  SER129      0.2116
    134  OG         5.9840 -156.6600   44.2260 O.3   129  SER129     -0.2180
    135  N          3.2040 -153.9760   42.2060 N.3   168  GLY168     -0.1225
    136  CA         3.5430 -155.2990   41.6750 C.3   168  GLY168      0.1811
    137  C          2.5540 -156.4010   42.0340 C.2   168  GLY168      0.2280
    138  O          2.5000 -157.4320   41.3580 O.2   168  GLY168     -0.2866
@<TRIPOS>BOND
     1    39    37   ar
     2    38    37   ar
     3    37    36    1
     4    36    35    1
     5    35    32    1
     6    47    46    2
     7    48    45    1
     8    45    46    1
     9    45    44    1
    10    34    33    2
    11    32    33    1
    12    32    31    1
    13    33    40   am
    14    40    41    1
    15    41    42    1
    16    31    26   am
    17   109   106    1
    18    42    43    2
    19    26    27    2
    20    26    25    1
    21   106   105    1
    22   106   107    1
    23    22    21    2
    24    25    24    1
    25    25    28    1
    26   105   102   am
    27    21    24   am
    28    21    20    1
    29    23    20    1
    30   107   108    2
    31    99    97    1
    32   123   122   ar
    33    28    30    1
    34    28    29    1
    35   104   101    1
    36    20    19    1
    37   102   103    2
    38   102   101    1
    39   121   122    1
    40   121   118    1
    41   122   124   ar
    42    53    50    1
    43    53    54    1
    44   100   101    1
    45   100    95   am
    46    97    98    1
    47    97    94    1
    48    19    10   am
    49    50    49    1
    50    50    51    1
    51    95    94    1
    52    95    96    2
    53   119   118    1
    54   119   120    2
    55    94    93    1
    56   118   117    1
    57   117   112   am
    58    10     9    1
    59    10    11    2
    60    13    14    1
    61    13    12    1
    62    55    51   am
    63    55    56    1
    64    51    52    2
    65   110   111    1
    66    14    15    1
    67    15    16    2
    68     9    12    1
    69     9     8    1
    70    93    91   am
    71    16    18    1
    72    16    17    1
    73    92    91    2
    74   112   111    1
    75   112   113    2
    76    58    57    2
    77    59    56    1
    78    59    60    1
    79    91    90    1
    80   111   114    1
    81    56    57    1
    82    79    77   ar
    83    79    78   ar
    84   114   116    1
    85   114   115    1
    86    57    61   am
    87    77    75   ar
    88   138   137    2
    89    68    69    1
    90    68    67    1
    91   136   137    1
    92   136   135    1
    93    78    76   ar
    94    90    89    1
    95    61    62    1
    96    66    67    1
    97    66    65    1
    98     6     5    1
    99    75    76   ar
   100    75    74    1
   101    62    65    1
   102    62    63    1
   103    89    86   am
   104    87    86    2
   105    86    85    1
   106    74    71    1
   107     1     2    1
   108     5     2    1
   109     5     7    1
   110    63    64    2
   111    71    70    1
   112    71    72    1
   113    83    82    2
   114    85    84    1
   115    85    88    1
   116     2     3    1
   117    82    84   am
   118    82    81    1
   119   134   133    1
   120    81    80    1
   121   133   130    1
   122    72    73    2
   123     3     4    2
   124   129   130    1
   125   129   127   am
   126   130   131    1
   127   126   127    1
   128   126   125    1
   129   127   128    2
   130   131   132    2
