@<TRIPOS>MOLECULE
tmp/6huuH00.pdb
 146 138 0 0 0
SMALL
GASTEIGER

@<TRIPOS>ATOM
      1  N         64.9370 -138.9290   44.6950 N.3     1  THR1       -0.1218
      2  CA        65.4500 -137.8450   45.5740 C.3     1  THR1        0.1862
      3  C         65.4430 -138.3360   47.0020 C.2     1  THR1        0.2287
      4  O         64.5760 -139.1040   47.4130 O.2     1  THR1       -0.2866
      5  CB        64.5780 -136.5910   45.4640 C.3     1  THR1        0.1770
      6  OG1       64.7230 -136.0930   44.1260 O.3     1  THR1       -0.2211
      7  CG2       64.9800 -135.4480   46.3950 C.3     1  THR1        0.0375
      8  N         70.6710 -136.1970   42.2020 N.3    19  ARG19      -0.1231
      9  CA        70.2090 -136.8790   40.9820 C.3    19  ARG19       0.1694
     10  C         68.8570 -136.3470   40.4980 C.2    19  ARG19       0.2592
     11  O         67.8620 -136.4090   41.2290 O.2    19  ARG19      -0.2718
     12  CB        70.1210 -138.3920   41.1960 C.3    19  ARG19       0.0321
     13  CG        69.5270 -139.1510   40.0170 C.3    19  ARG19       0.0489
     14  CD        69.5980 -140.6520   40.2220 C.3    19  ARG19       0.2205
     15  NE        70.9660 -141.1560   40.1360 N.pl3  19  ARG19      -0.0865
     16  CZ        71.3230 -142.4240   40.3260 C.cat  19  ARG19       0.5346
     17  NH1       70.4180 -143.3580   40.6320 N.pl3  19  ARG19       0.1354
     18  NH2       72.6040 -142.7650   40.2170 N.pl3  19  ARG19       0.1354
     19  N         68.8400 -135.8550   39.2550 N.am   20  ALA20      -0.1966
     20  CA        67.6180 -135.4240   38.5640 C.3    20  ALA20       0.1728
     21  C         67.2750 -136.4410   37.4860 C.2    20  ALA20       0.2617
     22  O         68.0780 -136.6780   36.5790 O.2    20  ALA20      -0.2715
     23  CB        67.8110 -134.0520   37.9380 C.3    20  ALA20       0.0334
     24  N         66.0850 -137.0290   37.5860 N.am   21  THR21      -0.1937
     25  CA        65.6660 -138.0980   36.6870 C.3    21  THR21       0.2028
     26  C         64.4830 -137.6950   35.8180 C.2    21  THR21       0.2642
     27  O         63.5690 -137.0120   36.2800 O.2    21  THR21      -0.2714
     28  CB        65.2770 -139.3740   37.4650 C.3    21  THR21       0.1808
     29  OG1       64.3410 -139.0470   38.5000 O.3    21  THR21      -0.2208
     30  CG2       66.5000 -140.0120   38.0830 C.3    21  THR21       0.0379
     31  N         64.5210 -138.1180   34.5540 N.am   22  GLU22      -0.1963
     32  CA        63.3530 -138.1090   33.6810 C.3    22  GLU22       0.1733
     33  C         62.9920 -139.5680   33.3830 C.2    22  GLU22       0.2616
     34  O         63.6390 -140.2220   32.5620 O.2    22  GLU22      -0.2715
     35  CB        63.6470 -137.3490   32.3890 C.3    22  GLU22       0.0429
     36  CG        62.3860 -136.9570   31.6220 C.3    22  GLU22       0.1163
     37  CD        62.5650 -136.8940   30.1090 C.2    22  GLU22       0.3649
     38  OE1       63.7130 -136.7470   29.6250 O.co2  22  GLU22      -0.2457
     39  OE2       61.5370 -136.9870   29.3960 O.co2  22  GLU22      -0.2457
     40  N         61.9790 -140.0840   34.0770 N.am   23  GLY23      -0.1955
     41  CA        61.6110 -141.4920   33.9730 C.3    23  GLY23       0.1869
     42  C         62.6760 -142.3500   34.6350 C.2    23  GLY23       0.2309
     43  O         62.9170 -142.2150   35.8310 O.2    23  GLY23      -0.2863
     44  N         69.0930 -137.2200   33.9760 N.3    27  ALA27      -0.1231
     45  CA        69.3530 -136.0150   33.1750 C.3    27  ALA27       0.1694
     46  C         70.5180 -135.1830   33.7150 C.2    27  ALA27       0.2592
     47  O         71.3260 -134.6620   32.9400 O.2    27  ALA27      -0.2718
     48  CB        68.0980 -135.1600   33.0700 C.3    27  ALA27       0.0304
     49  N         70.5880 -135.0470   35.0370 N.am   28  ASP28      -0.1974
     50  CA        71.6620 -134.3010   35.7010 C.3    28  ASP28       0.1709
     51  C         72.1320 -135.1010   36.9170 C.2    28  ASP28       0.2293
     52  O         71.3200 -135.4780   37.7620 O.2    28  ASP28      -0.2864
     53  CB        71.1440 -132.9200   36.1310 C.3    28  ASP28       0.1436
     54  CG        72.2610 -131.9200   36.4360 C.2    28  ASP28       0.3671
     55  OD1       73.4430 -132.3220   36.5630 O.co2  28  ASP28      -0.2456
     56  OD2       71.9370 -130.7130   36.5550 O.co2  28  ASP28      -0.2456
     57  N         72.6710 -131.8960   40.3390 N.3    31  CYS31      -0.1221
     58  CA        71.7180 -130.7920   40.3730 C.3    31  CYS31       0.1808
     59  C         71.5130 -130.3390   41.8170 C.2    31  CYS31       0.2602
     60  O         71.7400 -131.1060   42.7540 O.2    31  CYS31      -0.2717
     61  CB        70.3990 -131.2130   39.7400 C.3    31  CYS31       0.0970
     62  SG        69.3450 -132.1900   40.8300 S.3    31  CYS31      -0.0800
     63  N         71.1080 -129.0840   41.9930 N.am   32  SER32      -0.1938
     64  CA        70.9380 -128.5070   43.3260 C.3    32  SER32       0.2055
     65  C         69.4880 -128.6620   43.7610 C.2    32  SER32       0.2642
     66  O         68.5760 -128.2920   43.0340 O.2    32  SER32      -0.2714
     67  CB        71.3490 -127.0320   43.3390 C.3    32  SER32       0.2130
     68  OG        71.8120 -126.6450   44.6270 O.3    32  SER32      -0.2179
     69  N         69.2870 -129.2380   44.9400 N.am   33  LYS33      -0.1977
     70  CA        67.9540 -129.4070   45.5170 C.3    33  LYS33       0.1596
     71  C         67.7520 -128.6310   46.8190 C.2    33  LYS33       0.2287
     72  O         66.6290 -128.6020   47.3260 O.2    33  LYS33      -0.2864
     73  CB        67.6840 -130.8910   45.7620 C.3    33  LYS33       0.0298
     74  CG        67.8740 -131.7510   44.5280 C.3    33  LYS33       0.0038
     75  CD        67.6250 -133.2050   44.8400 C.3    33  LYS33       0.0206
     76  CE        67.8480 -134.0600   43.6050 C.3    33  LYS33       0.1093
     77  NZ        67.4340 -135.4680   43.8450 N.3    33  LYS33      -0.1314
     78  N         67.3700 -125.1830   48.2430 N.3    35  HIS35      -0.1241
     79  CA        67.0160 -123.8710   47.7190 C.3    35  HIS35       0.1621
     80  C         67.0800 -122.7850   48.7630 C.2    35  HIS35       0.2264
     81  O         66.8420 -123.0230   49.9430 O.2    35  HIS35      -0.2867
     82  CB        65.6100 -123.9040   47.1330 C.3    35  HIS35       0.0745
     83  CG        65.4700 -124.8540   45.9890 C.ar   35  HIS35       0.0817
     84  ND1       64.8810 -126.0950   46.1200 N.ar   35  HIS35      -0.2268
     85  CD2       65.8690 -124.7550   44.6970 C.ar   35  HIS35       0.1154
     86  CE1       64.9080 -126.7130   44.9520 C.ar   35  HIS35       0.1986
     87  NE2       65.5020 -125.9220   44.0730 N.ar   35  HIS35      -0.2212
     88  N         64.1050 -129.7140   48.3210 N.3    45  GLY45      -0.1210
     89  CA        63.0080 -129.9510   47.3890 C.3    45  GLY45       0.1956
     90  C         62.9700 -131.3520   46.8040 C.2    45  GLY45       0.2612
     91  O         63.9930 -131.8720   46.3440 O.2    45  GLY45      -0.2717
     92  N         61.7780 -131.9490   46.8280 N.am   46  ALA46      -0.1965
     93  CA        61.4930 -133.2460   46.2000 C.3    46  ALA46       0.1728
     94  C         60.1290 -133.1700   45.5230 C.2    46  ALA46       0.2617
     95  O         59.4650 -132.1380   45.6010 O.2    46  ALA46      -0.2715
     96  CB        61.5010 -134.3470   47.2460 C.3    46  ALA46       0.0334
     97  N         59.6970 -134.2590   44.8920 N.am   47  GLY47      -0.1940
     98  CA        58.4960 -134.2530   44.0580 C.3    47  GLY47       0.2014
     99  C         58.7760 -133.7120   42.6620 C.2    47  GLY47       0.2640
    100  O         59.8860 -133.8650   42.1330 O.2    47  GLY47      -0.2714
    101  N         57.7610 -133.0860   42.0640 N.am   48  THR48      -0.1936
    102  CA        57.8810 -132.4780   40.7410 C.3    48  THR48       0.2028
    103  C         58.8480 -131.2930   40.7980 C.2    48  THR48       0.2642
    104  O         58.5500 -130.2700   41.4150 O.2    48  THR48      -0.2714
    105  CB        56.5140 -132.0070   40.2220 C.3    48  THR48       0.1808
    106  OG1       55.5830 -133.0910   40.2840 O.3    48  THR48      -0.2208
    107  CG2       56.6170 -131.5190   38.7780 C.3    48  THR48       0.0379
    108  N         59.9990 -131.4470   40.1470 N.am   49  ALA49      -0.1963
    109  CA        61.1160 -130.4980   40.2600 C.3    49  ALA49       0.1728
    110  C         60.7790 -129.0490   39.8800 C.2    49  ALA49       0.2616
    111  O         61.2710 -128.1180   40.5230 O.2    49  ALA49      -0.2715
    112  CB        62.2990 -130.9860   39.4410 C.3    49  ALA49       0.0334
    113  N         59.9500 -128.8620   38.8520 N.am   50  ALA50      -0.1977
    114  CA        59.5230 -127.5150   38.4340 C.3    50  ALA50       0.1597
    115  C         58.6610 -126.8580   39.4990 C.2    50  ALA50       0.2287
    116  O         58.8420 -125.6840   39.7990 O.2    50  ALA50      -0.2864
    117  CB        58.7550 -127.5600   37.1230 C.3    50  ALA50       0.0319
    118  N         58.6650 -127.5680   42.6860 N.3    52  THR52      -0.1203
    119  CA        59.5820 -127.3370   43.7940 C.3    52  THR52       0.1994
    120  C         60.3760 -126.0500   43.5840 C.2    52  THR52       0.2617
    121  O         60.4570 -125.2120   44.4810 O.2    52  THR52      -0.2717
    122  CB        60.5060 -128.5660   43.9590 C.3    52  THR52       0.1784
    123  OG1       59.8460 -129.5320   44.7840 O.3    52  THR52      -0.2211
    124  CG2       61.8400 -128.2260   44.5770 C.3    52  THR52       0.0376
    125  N         60.9470 -125.9040   42.3920 N.am   53  ASP53      -0.1973
    126  CA        61.7500 -124.7260   42.0440 C.3    53  ASP53       0.1709
    127  C         60.9760 -123.4100   42.0800 C.2    53  ASP53       0.2293
    128  O         61.4390 -122.4400   42.6620 O.2    53  ASP53      -0.2864
    129  CB        62.3630 -124.8780   40.6460 C.3    53  ASP53       0.1436
    130  CG        63.5740 -125.7810   40.6220 C.2    53  ASP53       0.3671
    131  OD1       63.9240 -126.2340   39.5100 O.co2  53  ASP53      -0.2456
    132  OD2       64.1840 -126.0430   41.6850 O.co2  53  ASP53      -0.2456
    133  N         61.0300 -137.6270   49.6660 N.3   128  GLY128     -0.1210
    134  CA        61.4330 -138.1240   48.3530 C.3   128  GLY128      0.1956
    135  C         61.3130 -139.6320   48.2890 C.2   128  GLY128      0.2612
    136  O         60.8450 -140.2580   49.2320 O.2   128  GLY128     -0.2717
    137  N         61.7370 -140.2120   47.1710 N.am  129  SER129     -0.1952
    138  CA        61.6890 -141.6650   46.9870 C.3   129  SER129      0.1924
    139  C         62.6290 -142.3940   47.9490 C.2   129  SER129      0.2314
    140  O         62.3780 -143.5500   48.3010 O.2   129  SER129     -0.2863
    141  CB        62.0160 -142.0490   45.5410 C.3   129  SER129      0.2116
    142  OG        63.3030 -141.5930   45.1730 O.3   129  SER129     -0.2180
    143  N         65.9340 -143.9290   42.6070 N.3   168  GLY168     -0.1225
    144  CA        65.6130 -142.5260   42.3200 C.3   168  GLY168      0.1811
    145  C         66.6220 -141.4970   42.8310 C.2   168  GLY168      0.2280
    146  O         66.6450 -140.3550   42.3480 O.2   168  GLY168     -0.2866
@<TRIPOS>BOND
     1    39    37   ar
     2    38    37   ar
     3    37    36    1
     4    36    35    1
     5    35    32    1
     6    34    33    2
     7    47    46    2
     8    48    45    1
     9    45    46    1
    10    45    44    1
    11    33    32    1
    12    33    40   am
    13    32    31    1
    14    46    49   am
    15    41    40    1
    16    41    42    1
    17    31    26   am
    18    42    43    2
    19    49    50    1
    20    50    53    1
    21    50    51    1
    22    26    27    2
    23    26    25    1
    24    53    54    1
    25    54    56   ar
    26    54    55   ar
    27    22    21    2
    28    25    28    1
    29    25    24    1
    30    51    52    2
    31   117   114    1
    32    28    30    1
    33    28    29    1
    34    21    24   am
    35    21    20    1
    36    23    20    1
    37   114   113    1
    38   114   115    1
    39    20    19    1
    40   107   105    1
    41   113   110   am
    42    19    10   am
    43   112   109    1
    44   115   116    2
    45   131   130   ar
    46    61    58    1
    47    61    62    1
    48   110   109    1
    49   110   111    2
    50    13    14    1
    51    13    12    1
    52    15    14    1
    53    15    16    2
    54   108   109    1
    55   108   103   am
    56    18    16    1
    57   105   106    1
    58   105   102    1
    59    16    17    1
    60    57    58    1
    61    58    59    1
    62    10     9    1
    63    10    11    2
    64   130   129    1
    65   130   132   ar
    66   129   126    1
    67   102   103    1
    68   102   101    1
    69   103   104    2
    70     9    12    1
    71     9     8    1
    72    59    63   am
    73    59    60    2
    74    63    64    1
    75   126   127    1
    76   126   125    1
    77   101    99   am
    78   127   128    2
    79   100    99    2
    80   144   143    1
    81   144   145    1
    82   146   145    2
    83   125   120   am
    84    99    98    1
    85   118   119    1
    86    66    65    2
    87    64    67    1
    88    64    65    1
    89    67    68    1
    90   120   119    1
    91   120   121    2
    92    76    77    1
    93    76    75    1
    94    65    69   am
    95   119   122    1
    96   122   124    1
    97   122   123    1
    98    98    97    1
    99    87    85   ar
   100    87    86   ar
   101     6     5    1
   102    74    75    1
   103    74    73    1
   104     1     2    1
   105    85    83   ar
   106    97    94   am
   107    69    70    1
   108    86    84   ar
   109   142   141    1
   110     5     2    1
   111     5     7    1
   112    70    73    1
   113    70    71    1
   114    94    95    2
   115    94    93    1
   116   141   138    1
   117     2     3    1
   118    83    84   ar
   119    83    82    1
   120    93    92    1
   121    93    96    1
   122    91    90    2
   123    90    92   am
   124    90    89    1
   125    71    72    2
   126   138   137    1
   127   138   139    1
   128     3     4    2
   129    82    79    1
   130   137   135   am
   131    89    88    1
   132    79    78    1
   133    79    80    1
   134   139   140    2
   135   135   134    1
   136   135   136    2
   137   134   133    1
   138    80    81    2
