@<TRIPOS>MOLECULE
tmp/6huvV00.pdb
 138 130 0 0 0
SMALL
GASTEIGER

@<TRIPOS>ATOM
      1  N          4.7680 -159.4330   43.9740 N.3     1  THR1       -0.1218
      2  CA         3.6900 -160.4110   44.3220 C.3     1  THR1        0.1862
      3  C          3.6520 -160.3400   45.8430 C.2     1  THR1        0.2287
      4  O          4.6590 -160.0230   46.4720 O.2     1  THR1       -0.2866
      5  CB         4.1430 -161.7750   43.8840 C.3     1  THR1        0.1770
      6  OG1        4.0970 -161.7870   42.4580 O.3     1  THR1       -0.2211
      7  CG2        3.2800 -162.9210   44.3710 C.3     1  THR1        0.0375
      8  N         -1.7500 -161.5610   40.7360 N.3    19  ARG19      -0.1231
      9  CA        -1.3340 -160.6590   39.6400 C.3    19  ARG19       0.1694
     10  C          0.0180 -161.0460   39.0120 C.2    19  ARG19       0.2592
     11  O          1.0570 -160.9920   39.6770 O.2    19  ARG19      -0.2718
     12  CB        -1.2720 -159.2060   40.1300 C.3    19  ARG19       0.0321
     13  CG        -0.6900 -158.2270   39.1090 C.3    19  ARG19       0.0489
     14  CD        -0.7540 -156.7820   39.5760 C.3    19  ARG19       0.2205
     15  NE        -2.1250 -156.2800   39.6020 N.pl3  19  ARG19      -0.0865
     16  CZ        -2.4860 -155.0650   40.0150 C.cat  19  ARG19       0.5346
     17  NH1       -1.5830 -154.1880   40.4540 N.pl3  19  ARG19       0.1354
     18  NH2       -3.7720 -154.7280   39.9940 N.pl3  19  ARG19       0.1354
     19  N         -0.0020 -161.4000   37.7300 N.am   20  ALA20      -0.1966
     20  CA         1.2140 -161.6880   36.9660 C.3    20  ALA20       0.1728
     21  C          1.5140 -160.4860   36.0760 C.2    20  ALA20       0.2617
     22  O          0.6670 -160.0850   35.2660 O.2    20  ALA20      -0.2715
     23  CB         1.0220 -162.9400   36.1230 C.3    20  ALA20       0.0334
     24  N          2.7080 -159.9100   36.2300 N.am   21  THR21      -0.1937
     25  CA         3.0910 -158.7040   35.4880 C.3    21  THR21       0.2028
     26  C          4.2690 -158.9300   34.5570 C.2    21  THR21       0.2642
     27  O          5.2440 -159.5770   34.9320 O.2    21  THR21      -0.2714
     28  CB         3.4920 -157.5530   36.4250 C.3    21  THR21       0.1808
     29  OG1        4.5880 -157.9610   37.2530 O.3    21  THR21      -0.2208
     30  CG2        2.3220 -157.1310   37.2850 C.3    21  THR21       0.0379
     31  N          4.1660 -158.3790   33.3500 N.am   22  GLU22      -0.1963
     32  CA         5.3030 -158.2390   32.4470 C.3    22  GLU22       0.1733
     33  C          5.6450 -156.7460   32.3320 C.2    22  GLU22       0.2616
     34  O          4.9900 -155.9980   31.6050 O.2    22  GLU22      -0.2715
     35  CB         4.9770 -158.8270   31.0770 C.3    22  GLU22       0.0429
     36  CG         6.2110 -159.0780   30.2160 C.3    22  GLU22       0.1163
     37  CD         5.9760 -158.8650   28.7240 C.2    22  GLU22       0.3649
     38  OE1        4.8240 -159.0120   28.2440 O.co2  22  GLU22      -0.2457
     39  OE2        6.9650 -158.5520   28.0250 O.co2  22  GLU22      -0.2457
     40  N          6.6640 -156.3190   33.0720 N.am   23  GLY23      -0.1955
     41  CA         7.0350 -154.9070   33.1450 C.3    23  GLY23       0.1869
     42  C          6.0320 -154.1470   33.9940 C.2    23  GLY23       0.2309
     43  O          5.8640 -154.4530   35.1750 O.2    23  GLY23      -0.2863
     44  N         -0.3930 -159.1290   32.7650 N.3    27  ALA27      -0.1245
     45  CA        -0.6750 -160.1830   31.7730 C.3    27  ALA27       0.1562
     46  C         -1.8250 -161.1000   32.2020 C.2    27  ALA27       0.2260
     47  O         -2.6770 -161.4570   31.3790 O.2    27  ALA27      -0.2867
     48  CB         0.5730 -161.0020   31.4960 C.3    27  ALA27       0.0290
     49  N         -3.9390 -165.2940   38.3310 N.3    31  CYS31      -0.1221
     50  CA        -2.8400 -166.2380   38.1620 C.3    31  CYS31       0.1808
     51  C         -2.6390 -167.0220   39.4620 C.2    31  CYS31       0.2602
     52  O         -2.5140 -166.4220   40.5210 O.2    31  CYS31      -0.2717
     53  CB        -1.5850 -165.4430   37.7860 C.3    31  CYS31       0.0970
     54  SG        -0.0060 -166.2490   38.0440 S.3    31  CYS31      -0.0800
     55  N         -2.6280 -168.3550   39.3930 N.am   32  SER32      -0.1938
     56  CA        -2.4420 -169.1810   40.6010 C.3    32  SER32       0.2055
     57  C         -0.9770 -169.2250   41.0150 C.2    32  SER32       0.2642
     58  O         -0.1110 -169.6070   40.2200 O.2    32  SER32      -0.2714
     59  CB        -2.9400 -170.6130   40.4110 C.3    32  SER32       0.2130
     60  OG        -3.0490 -171.2610   41.6740 O.3    32  SER32      -0.2179
     61  N         -0.7180 -168.8450   42.2650 N.am   33  LYS33      -0.1977
     62  CA         0.6410 -168.7820   42.8020 C.3    33  LYS33       0.1596
     63  C          0.9200 -169.7690   43.9400 C.2    33  LYS33       0.2287
     64  O          2.0610 -169.8500   44.4010 O.2    33  LYS33      -0.2864
     65  CB         0.9350 -167.3560   43.2570 C.3    33  LYS33       0.0298
     66  CG         0.6700 -166.3340   42.1660 C.3    33  LYS33       0.0038
     67  CD         1.1520 -164.9550   42.5550 C.3    33  LYS33       0.0206
     68  CE         0.7420 -163.9110   41.5270 C.3    33  LYS33       0.1093
     69  NZ         1.4060 -162.6000   41.7380 N.3    33  LYS33      -0.1314
     70  N          1.3820 -173.5070   44.7780 N.3    35  HIS35      -0.1241
     71  CA         1.7590 -174.7020   44.0110 C.3    35  HIS35       0.1621
     72  C          1.7310 -175.9760   44.8490 C.2    35  HIS35       0.2264
     73  O          2.0570 -175.9620   46.0380 O.2    35  HIS35      -0.2867
     74  CB         3.1760 -174.5520   43.4480 C.3    35  HIS35       0.0745
     75  CG         3.3170 -173.4660   42.4320 C.ar   35  HIS35       0.0817
     76  ND1        2.8420 -172.1910   42.6370 N.ar   35  HIS35      -0.2268
     77  CD2        3.9100 -173.4560   41.2140 C.ar   35  HIS35       0.1154
     78  CE1        3.1220 -171.4450   41.5850 C.ar   35  HIS35       0.1986
     79  NE2        3.7710 -172.1880   40.7070 N.ar   35  HIS35      -0.2212
     80  N          4.7540 -168.9670   45.5110 N.3    45  GLY45      -0.1210
     81  CA         5.8280 -168.6300   44.5950 C.3    45  GLY45       0.1956
     82  C          5.8700 -167.1670   44.2170 C.2    45  GLY45       0.2612
     83  O          4.8450 -166.5840   43.8680 O.2    45  GLY45      -0.2717
     84  N          7.0670 -166.5890   44.3020 N.am   46  ALA46      -0.1965
     85  CA         7.3460 -165.2190   43.8720 C.3    46  ALA46       0.1728
     86  C          8.6900 -165.2000   43.1470 C.2    46  ALA46       0.2617
     87  O          9.3440 -166.2310   43.0170 O.2    46  ALA46      -0.2715
     88  CB         7.3630 -164.2890   45.0740 C.3    46  ALA46       0.0334
     89  N          9.1010 -164.0320   42.6730 N.am   47  GLY47      -0.1940
     90  CA        10.3320 -163.9040   41.8940 C.3    47  GLY47       0.2014
     91  C         10.0720 -164.1920   40.4290 C.2    47  GLY47       0.2640
     92  O          8.9500 -164.0070   39.9470 O.2    47  GLY47      -0.2714
     93  N         11.1140 -164.6340   39.7240 N.am   48  THR48      -0.1936
     94  CA        11.0190 -164.9730   38.2990 C.3    48  THR48       0.2028
     95  C         10.0470 -166.1400   38.1280 C.2    48  THR48       0.2642
     96  O         10.2830 -167.2310   38.6390 O.2    48  THR48      -0.2714
     97  CB        12.3950 -165.3510   37.7050 C.3    48  THR48       0.1808
     98  OG1       13.3290 -164.2940   37.9390 O.3    48  THR48      -0.2208
     99  CG2       12.3040 -165.6040   36.1990 C.3    48  THR48       0.0379
    100  N          8.9620 -165.8940   37.4030 N.am   49  ALA49      -0.1963
    101  CA         7.8210 -166.8080   37.3760 C.3    49  ALA49       0.1728
    102  C          8.1380 -168.1720   36.7700 C.2    49  ALA49       0.2616
    103  O          7.6590 -169.1930   37.2690 O.2    49  ALA49      -0.2715
    104  CB         6.6550 -166.1650   36.6420 C.3    49  ALA49       0.0334
    105  N          8.9340 -168.1840   35.7030 N.am   50  ALA50      -0.1977
    106  CA         9.3650 -169.4390   35.0750 C.3    50  ALA50       0.1597
    107  C         10.2120 -170.2770   36.0200 C.2    50  ALA50       0.2287
    108  O          9.9750 -171.4730   36.1730 O.2    50  ALA50      -0.2864
    109  CB        10.1450 -169.1630   33.8020 C.3    50  ALA50       0.0319
    110  N         10.3030 -170.1790   39.2680 N.3    52  THR52      -0.1203
    111  CA         9.4850 -170.6290   40.3910 C.3    52  THR52       0.1994
    112  C          8.6460 -171.8580   40.0300 C.2    52  THR52       0.2617
    113  O          8.5930 -172.8080   40.8140 O.2    52  THR52      -0.2717
    114  CB         8.6010 -169.4770   40.9130 C.3    52  THR52       0.1784
    115  OG1        9.4330 -168.5220   41.5860 O.3    52  THR52      -0.2211
    116  CG2        7.5320 -169.9670   41.8780 C.3    52  THR52       0.0376
    117  N          7.9970 -171.8310   38.8620 N.am   53  ASP53      -0.1973
    118  CA         7.2060 -172.9770   38.3720 C.3    53  ASP53       0.1709
    119  C          8.0500 -174.2370   38.2470 C.2    53  ASP53       0.2293
    120  O          7.7020 -175.2790   38.8030 O.2    53  ASP53      -0.2864
    121  CB         6.5670 -172.6890   37.0020 C.3    53  ASP53       0.1436
    122  CG         5.3480 -171.7740   37.0880 C.2    53  ASP53       0.3671
    123  OD1        5.0410 -171.0900   36.0810 O.co2  53  ASP53      -0.2456
    124  OD2        4.6860 -171.7470   38.1470 O.co2  53  ASP53      -0.2456
    125  N          8.1260 -161.4150   48.2070 N.3   128  GLY128     -0.1210
    126  CA         7.7540 -160.7040   46.9830 C.3   128  GLY128      0.1956
    127  C          7.7130 -159.2080   47.2250 C.2   128  GLY128      0.2612
    128  O          7.8810 -158.7590   48.3560 O.2   128  GLY128     -0.2717
    129  N          7.4880 -158.4360   46.1630 N.am  129  SER129     -0.1952
    130  CA         7.4210 -156.9700   46.2540 C.3   129  SER129      0.1924
    131  C          6.4860 -156.4590   47.3580 C.2   129  SER129      0.2314
    132  O          6.7760 -155.4450   47.9970 O.2   129  SER129     -0.2863
    133  CB         7.0130 -156.3560   44.9110 C.3   129  SER129      0.2116
    134  OG         5.6620 -156.6490   44.6150 O.3   129  SER129     -0.2180
    135  N          2.9650 -154.0020   42.3770 N.3   168  GLY168     -0.1225
    136  CA         3.2960 -155.3380   41.8770 C.3   168  GLY168      0.1811
    137  C          2.2580 -156.4030   42.2040 C.2   168  GLY168      0.2280
    138  O          2.1410 -157.3960   41.4860 O.2   168  GLY168     -0.2866
@<TRIPOS>BOND
     1    39    37   ar
     2    38    37   ar
     3    37    36    1
     4    36    35    1
     5    35    32    1
     6    47    46    2
     7    48    45    1
     8    34    33    2
     9    45    46    1
    10    45    44    1
    11    33    32    1
    12    33    40   am
    13    32    31    1
    14    40    41    1
    15    41    42    1
    16    31    26   am
    17   109   106    1
    18    42    43    2
    19    26    27    2
    20    26    25    1
    21   106   105    1
    22   106   107    1
    23    22    21    2
    24    25    24    1
    25    25    28    1
    26   105   102   am
    27   107   108    2
    28    21    24   am
    29    21    20    1
    30   123   122   ar
    31    23    20    1
    32    99    97    1
    33    28    29    1
    34    28    30    1
    35   104   101    1
    36   102   103    2
    37   102   101    1
    38    20    19    1
    39   121   122    1
    40   121   118    1
    41   122   124   ar
    42   101   100    1
    43   100    95   am
    44    97    98    1
    45    97    94    1
    46    19    10   am
    47    53    54    1
    48    53    50    1
    49    95    94    1
    50    95    96    2
    51    50    49    1
    52    50    51    1
    53   119   118    1
    54   119   120    2
    55    94    93    1
    56   118   117    1
    57   117   112   am
    58    10     9    1
    59    10    11    2
    60    13    14    1
    61    13    12    1
    62   110   111    1
    63    55    51   am
    64    55    56    1
    65    51    52    2
    66    14    15    1
    67    15    16    2
    68     9    12    1
    69     9     8    1
    70    93    91   am
    71    92    91    2
    72    18    16    1
    73    16    17    1
    74   112   111    1
    75   112   113    2
    76    58    57    2
    77   111   114    1
    78    59    56    1
    79    59    60    1
    80    91    90    1
    81    56    57    1
    82    79    77   ar
    83    79    78   ar
    84   114   115    1
    85   114   116    1
    86    57    61   am
    87    77    75   ar
    88   138   137    2
    89    68    69    1
    90    68    67    1
    91    78    76   ar
    92   136   137    1
    93   136   135    1
    94    90    89    1
    95    66    67    1
    96    66    65    1
    97    61    62    1
    98    75    76   ar
    99    75    74    1
   100     6     5    1
   101    89    86   am
   102    62    65    1
   103    62    63    1
   104    87    86    2
   105    86    85    1
   106    74    71    1
   107    83    82    2
   108    85    84    1
   109    85    88    1
   110     5     2    1
   111     5     7    1
   112    63    64    2
   113     1     2    1
   114    71    70    1
   115    71    72    1
   116    82    84   am
   117    82    81    1
   118     2     3    1
   119    81    80    1
   120   134   133    1
   121    72    73    2
   122   133   130    1
   123     3     4    2
   124   129   130    1
   125   129   127   am
   126   130   131    1
   127   126   127    1
   128   126   125    1
   129   127   128    2
   130   131   132    2
