@<TRIPOS>MOLECULE
tmp/6huxA00.pdb
 209 206 0 0 0
SMALL
GASTEIGER

@<TRIPOS>ATOM
      1  N        -38.8060  103.0500  186.0830 N.3    15  TYR15      -0.1227
      2  CA       -39.3540  102.7130  187.3880 C.3    15  TYR15       0.1736
      3  C        -38.5280  101.6350  188.0090 C.2    15  TYR15       0.2596
      4  O        -38.5100  100.5140  187.4940 O.2    15  TYR15      -0.2718
      5  CB       -40.7890  102.2170  187.2270 C.3    15  TYR15       0.0548
      6  CG       -41.6860  103.2580  186.6100 C.ar   15  TYR15      -0.0200
      7  CD1      -41.6850  103.4860  185.2340 C.ar   15  TYR15      -0.0009
      8  CD2      -42.5370  104.0300  187.3980 C.ar   15  TYR15      -0.0009
      9  CE1      -42.5050  104.4540  184.6580 C.ar   15  TYR15       0.0417
     10  CE2      -43.3630  105.0000  186.8350 C.ar   15  TYR15       0.0417
     11  CZ       -43.3310  105.2170  185.4650 C.ar   15  TYR15       0.1957
     12  OH       -44.1700  106.1340  184.9040 O.3    15  TYR15      -0.2866
     13  N        -37.8590  101.9500  189.1090 N.am   16  GLY16      -0.1957
     14  CA       -37.0240  100.9760  189.8240 C.3    16  GLY16       0.1869
     15  C        -35.5460  101.2500  189.6310 C.2    16  GLY16       0.2309
     16  O        -35.0600  101.2590  188.4960 O.2    16  GLY16      -0.2863
     17  N        -33.0270   99.4950  190.8330 N.3    18  GLY18      -0.1210
     18  CA       -32.2740   98.2540  190.7540 C.3    18  GLY18       0.1956
     19  C        -31.7310   97.9290  192.1260 C.2    18  GLY18       0.2611
     20  O        -31.2930   98.8190  192.8600 O.2    18  GLY18      -0.2717
     21  N        -31.7920   96.6540  192.4920 N.am   19  ASN19      -0.1974
     22  CA       -31.2900   96.1830  193.7840 C.3    19  ASN19       0.1688
     23  C        -29.7620   96.1200  193.7050 C.2    19  ASN19       0.2292
     24  O        -29.1900   95.1400  193.2200 O.2    19  ASN19      -0.2864
     25  CB       -31.8850   94.8030  194.1250 C.3    19  ASN19       0.1181
     26  CG       -31.4480   94.3310  195.4850 C.2    19  ASN19       0.2629
     27  OD1      -30.9020   95.0870  196.2950 O.2    19  ASN19      -0.2716
     28  ND2      -31.6790   93.0690  195.7670 N.am   19  ASN19      -0.0877
     29  N        -27.8010   93.2320  195.3710 N.3    22  LEU22      -0.1231
     30  CA       -27.7940   92.0280  194.5490 C.3    22  LEU22       0.1693
     31  C        -26.6420   92.0960  193.5440 C.2    22  LEU22       0.2592
     32  O        -25.8360   91.1770  193.4830 O.2    22  LEU22      -0.2718
     33  CB       -29.1400   91.9000  193.7880 C.3    22  LEU22       0.0284
     34  CG       -29.1960   90.8480  192.6780 C.3    22  LEU22       0.0019
     35  CD1      -28.9210   89.4310  193.2150 C.3    22  LEU22       0.0001
     36  CD2      -30.5230   90.8950  191.9650 C.3    22  LEU22       0.0001
     37  N        -26.5750   93.1840  192.7620 N.am   23  TYR23      -0.1976
     38  CA       -25.5410   93.3710  191.7320 C.3    23  TYR23       0.1639
     39  C        -24.1280   93.4510  192.2640 C.2    23  TYR23       0.2290
     40  O        -23.2330   92.8180  191.7120 O.2    23  TYR23      -0.2864
     41  CB       -25.8340   94.6370  190.9030 C.3    23  TYR23       0.0560
     42  CG       -27.2190   94.6200  190.2880 C.ar   23  TYR23      -0.0198
     43  CD1      -27.6850   93.4980  189.6040 C.ar   23  TYR23      -0.0009
     44  CD2      -28.0910   95.6930  190.4510 C.ar   23  TYR23      -0.0009
     45  CE1      -28.9810   93.4500  189.1000 C.ar   23  TYR23       0.0417
     46  CE2      -29.3900   95.6570  189.9460 C.ar   23  TYR23       0.0417
     47  CZ       -29.8320   94.5310  189.2740 C.ar   23  TYR23       0.1957
     48  OH       -31.1150   94.4780  188.7830 O.3    23  TYR23      -0.2866
     49  N        -38.3290  106.7840  188.9980 N.3    58  ALA58      -0.1231
     50  CA       -39.2360  106.6610  190.1340 C.3    58  ALA58       0.1694
     51  C        -38.7700  105.4920  190.9880 C.2    58  ALA58       0.2592
     52  O        -38.7440  104.3450  190.5170 O.2    58  ALA58      -0.2718
     53  CB       -40.6640  106.4280  189.6560 C.3    58  ALA58       0.0304
     54  N        -38.3730  105.7950  192.2420 N.am   59  GLU59      -0.1966
     55  CA       -37.9190  104.8030  193.2070 C.3    59  GLU59       0.1718
     56  C        -38.4780  105.1970  194.5780 C.2    59  GLU59       0.2458
     57  O        -38.0850  106.2280  195.1050 O.2    59  GLU59      -0.2730
     58  CB       -36.3800  104.7590  193.2320 C.3    59  GLU59       0.0428
     59  CG       -35.8210  103.8490  194.3200 C.3    59  GLU59       0.1163
     60  CD       -36.3770  102.4370  194.2410 C.2    59  GLU59       0.3649
     61  OE1      -36.3010  101.8390  193.1460 O.co2  59  GLU59      -0.2457
     62  OE2      -36.9050  101.9350  195.2590 O.co2  59  GLU59      -0.2457
     63  N        -39.3880  104.4220  195.1880 N.am   60  PRO60      -0.2716
     64  CA       -39.9170  104.8260  196.5090 C.3    60  PRO60       0.1536
     65  C        -38.9630  104.5790  197.6730 C.2    60  PRO60       0.2598
     66  O        -39.0510  105.2420  198.7110 O.2    60  PRO60      -0.2715
     67  CB       -41.1610  103.9630  196.6640 C.3    60  PRO60       0.0310
     68  CG       -40.8260  102.7020  195.8930 C.3    60  PRO60       0.0237
     69  CD       -39.9830  103.1490  194.7230 C.3    60  PRO60       0.0939
     70  N        -38.0470  103.6230  197.5030 N.am   61  ASN61      -0.1973
     71  CA       -37.0980  103.2560  198.5560 C.3    61  ASN61       0.1688
     72  C        -35.7110  103.8770  198.3710 C.2    61  ASN61       0.2292
     73  O        -34.9050  103.3820  197.5710 O.2    61  ASN61      -0.2864
     74  CB       -37.0290  101.7480  198.5980 C.3    61  ASN61       0.1181
     75  CG       -36.0970  101.1760  199.6130 C.2    61  ASN61       0.2629
     76  OD1      -35.5730  101.8670  200.5120 O.2    61  ASN61      -0.2716
     77  ND2      -35.8770   99.8720  199.4400 N.am   61  ASN61      -0.0877
     78  N        -32.1910  101.7450  198.8820 N.3    64  ILE64      -0.1245
     79  CA       -31.7930  100.6660  197.9610 C.3    64  ILE64       0.1561
     80  C        -30.4240  100.9160  197.3280 C.2    64  ILE64       0.2260
     81  O        -29.8670  100.0550  196.6470 O.2    64  ILE64      -0.2867
     82  CB       -32.8940  100.5040  196.8840 C.3    64  ILE64       0.0252
     83  CG1      -32.8940   99.0740  196.3400 C.3    64  ILE64       0.0019
     84  CG2      -32.7430  101.5740  195.7620 C.3    64  ILE64       0.0019
     85  CD1      -33.8590   98.8400  195.4290 C.3    64  ILE64       0.0001
     86  N        -44.8610  107.3180  191.8200 N.3    84  ASP84      -0.1239
     87  CA       -45.0110  106.7520  190.4720 C.3    84  ASP84       0.1674
     88  C        -45.8750  107.6360  189.5770 C.2    84  ASP84       0.2266
     89  O        -45.6420  107.6950  188.3730 O.2    84  ASP84      -0.2867
     90  CB       -45.6810  105.3750  190.5460 C.3    84  ASP84       0.1410
     91  CG       -44.8460  104.3310  191.2040 C.2    84  ASP84       0.3668
     92  OD1      -43.6120  104.4900  191.2150 O.co2  84  ASP84      -0.2456
     93  OD2      -45.4310  103.3520  191.7170 O.co2  84  ASP84      -0.2456
     94  N        -38.5220   98.6070  185.5510 N.3    97  PHE97      -0.1227
     95  CA       -37.4160   97.8870  186.1580 C.3    97  PHE97       0.1736
     96  C        -37.8940   97.6150  187.5830 C.2    97  PHE97       0.2596
     97  O        -37.2370   97.9710  188.5520 O.2    97  PHE97      -0.2718
     98  CB       -36.1530   98.7480  186.1130 C.3    97  PHE97       0.0547
     99  CG       -34.9160   97.8980  186.1120 C.ar   97  PHE97      -0.0202
    100  CD1      -34.3890   97.4100  187.3000 C.ar   97  PHE97      -0.0042
    101  CD2      -34.3300   97.5050  184.9230 C.ar   97  PHE97      -0.0042
    102  CE1      -33.2850   96.5610  187.2980 C.ar   97  PHE97      -0.0003
    103  CE2      -33.2080   96.6880  184.9220 C.ar   97  PHE97      -0.0003
    104  CZ       -32.7050   96.2040  186.1110 C.ar   97  PHE97      -0.0000
    105  N        -39.0780   97.0080  187.6970 N.am   98  THR98      -0.1939
    106  CA       -39.7580   96.7750  188.9660 C.3    98  THR98       0.2013
    107  C        -39.6330   95.3530  189.4880 C.2    98  THR98       0.2484
    108  O        -39.2180   94.4510  188.7720 O.2    98  THR98      -0.2729
    109  CB       -41.2110   97.2230  188.8070 C.3    98  THR98       0.1807
    110  OG1      -41.7560   96.5920  187.6550 O.3    98  THR98      -0.2208
    111  CG2      -41.3190   98.7270  188.6320 C.3    98  THR98       0.0379
    112  N        -39.9820   95.1350  190.7670 N.am   99  PRO99      -0.2715
    113  CA       -39.8340   93.7880  191.3440 C.3    99  PRO99       0.1536
    114  C        -40.7240   92.7010  190.7710 C.2    99  PRO99       0.2598
    115  O        -41.7630   92.9790  190.2020 O.2    99  PRO99      -0.2715
    116  CB       -40.1440   94.0080  192.8280 C.3    99  PRO99       0.0310
    117  CG       -40.0090   95.4880  193.0440 C.3    99  PRO99       0.0237
    118  CD       -40.4650   96.0990  191.7760 C.3    99  PRO99       0.0939
    119  N        -40.3070   91.4530  190.9350 N.am  100  PHE100     -0.1974
    120  CA       -41.0940   90.2990  190.4880 C.3   100  PHE100      0.1639
    121  C        -42.3880   90.2690  191.3040 C.2   100  PHE100      0.2290
    122  O        -42.3880   90.6290  192.4900 O.2   100  PHE100     -0.2864
    123  CB       -40.3340   88.9790  190.7470 C.3   100  PHE100      0.0560
    124  CG       -39.1310   88.7190  189.8680 C.ar  100  PHE100     -0.0200
    125  CD1      -39.2850   88.2270  188.5850 C.ar  100  PHE100     -0.0042
    126  CD2      -37.8450   88.9230  190.3430 C.ar  100  PHE100     -0.0042
    127  CE1      -38.1790   87.9550  187.7910 C.ar  100  PHE100     -0.0003
    128  CE2      -36.7380   88.6470  189.5490 C.ar  100  PHE100     -0.0003
    129  CZ       -36.9110   88.1740  188.2720 C.ar  100  PHE100     -0.0000
    130  N        -45.9130   93.9140  192.6320 N.3   103  ALA103     -0.1245
    131  CA       -45.4020   95.2660  192.4650 C.3   103  ALA103      0.1562
    132  C        -45.3920   95.7230  190.9930 C.2   103  ALA103      0.2260
    133  O        -45.8580   96.8340  190.6970 O.2   103  ALA103     -0.2867
    134  CB       -44.0130   95.3720  193.0700 C.3   103  ALA103      0.0290
    135  N        -49.0350   96.3170  189.8920 N.3   106  ARG106     -0.1231
    136  CA       -49.6210   97.4240  190.6450 C.3   106  ARG106      0.1694
    137  C        -49.1350   98.7660  190.0630 C.2   106  ARG106      0.2591
    138  O        -49.9520   99.6350  189.7730 O.2   106  ARG106     -0.2718
    139  CB       -49.2830   97.2740  192.1420 C.3   106  ARG106      0.0321
    140  CG       -49.6270   98.4980  192.9820 C.3   106  ARG106      0.0489
    141  CD       -49.2590   98.3250  194.4500 C.3   106  ARG106      0.2205
    142  NE       -47.8570   97.9260  194.6440 N.pl3 106  ARG106     -0.0865
    143  CZ       -46.8050   98.7350  194.5110 C.cat 106  ARG106      0.5346
    144  NH1      -46.9710  100.0090  194.1840 N.pl3 106  ARG106      0.1354
    145  NH2      -45.5780   98.2750  194.7070 N.pl3 106  ARG106      0.1354
    146  N        -47.8180   98.9080  189.8420 N.am  107  ILE107     -0.1980
    147  CA       -47.2230  100.1280  189.2690 C.3   107  ILE107      0.1595
    148  C        -47.7390  100.3510  187.8340 C.2   107  ILE107      0.2287
    149  O        -48.0750  101.4750  187.4720 O.2   107  ILE107     -0.2864
    150  CB       -45.6950  100.0140  189.2860 C.3   107  ILE107      0.0276
    151  CG1      -45.1620   99.9740  190.7350 C.3   107  ILE107      0.0022
    152  CG2      -45.0490  101.1410  188.5110 C.3   107  ILE107      0.0022
    153  CD1      -43.8270   99.2540  190.8700 C.3   107  ILE107      0.0001
    154  N        -39.1970   94.6340  181.6040 N.3   124  THR124     -0.1203
    155  CA       -37.7920   94.1990  181.6040 C.3   124  THR124      0.1994
    156  C        -37.8530   92.7090  181.9010 C.2   124  THR124      0.2618
    157  O        -38.8220   92.0680  181.4700 O.2   124  THR124     -0.2717
    158  CB       -36.8950   95.0230  182.5480 C.3   124  THR124      0.1784
    159  OG1      -37.3470   94.9140  183.9120 O.3   124  THR124     -0.2211
    160  CG2      -36.7950   96.4590  182.1100 C.3   124  THR124      0.0376
    161  N        -36.8820   92.1350  182.6180 N.am  125  CYS125     -0.1955
    162  CA       -36.9130   90.6940  182.8670 C.3   125  CYS125      0.1843
    163  C        -37.8970   90.2430  183.9470 C.2   125  CYS125      0.2626
    164  O        -38.1130   89.0380  184.0440 O.2   125  CYS125     -0.2714
    165  CB       -35.5100   90.1870  183.1860 C.3   125  CYS125      0.0997
    166  SG       -35.1110   90.1990  184.9580 S.3   125  CYS125     -0.0797
    167  N        -38.4530   91.1420  184.7820 N.am  126  THR126     -0.1950
    168  CA       -39.3230   90.6950  185.8720 C.3   126  THR126      0.1897
    169  C        -40.7250   90.3420  185.4650 C.2   126  THR126      0.2313
    170  O        -41.4680   89.8030  186.2860 O.2   126  THR126     -0.2863
    171  CB       -39.3280   91.7080  187.0020 C.3   126  THR126      0.1794
    172  OG1      -39.7160   92.9690  186.4600 O.3   126  THR126     -0.2208
    173  CG2      -37.9670   91.7720  187.7050 C.3   126  THR126      0.0378
    174  N        -35.9910   95.3110  177.3760 N.3   153  HIS153     -0.1227
    175  CA       -35.3340   94.2650  178.1280 C.3   153  HIS153      0.1737
    176  C        -33.8400   94.2120  177.8110 C.2   153  HIS153      0.2438
    177  O        -33.4210   93.8960  176.6810 O.2   153  HIS153     -0.2733
    178  CB       -36.0550   92.9450  177.8590 C.3   153  HIS153      0.0758
    179  CG       -35.6640   91.8430  178.7840 C.ar  153  HIS153      0.0818
    180  ND1      -34.3680   91.7170  179.2420 N.ar  153  HIS153     -0.2268
    181  CD2      -36.3960   90.8120  179.2530 C.ar  153  HIS153      0.1154
    182  CE1      -34.3530   90.6410  180.0060 C.ar  153  HIS153      0.1986
    183  NE2      -35.5490   90.0570  180.0370 N.ar  153  HIS153     -0.2212
    184  N        -33.0140   94.5700  178.8150 N.am  154  PRO154     -0.2729
    185  CA       -31.5570   94.6160  178.5820 C.3   154  PRO154      0.1401
    186  C        -30.8990   93.2680  178.2640 C.2   154  PRO154      0.2269
    187  O        -29.8200   93.2690  177.6640 O.2   154  PRO154     -0.2865
    188  CB       -31.0130   95.2600  179.8560 C.3   154  PRO154      0.0296
    189  CG       -32.0340   94.9380  180.8910 C.3   154  PRO154      0.0237
    190  CD       -33.3560   94.9520  180.1970 C.3   154  PRO154      0.0939
    191  N        -29.3780   91.3670  179.9470 N.3   156  ALA156     -0.1231
    192  CA       -28.0640   91.5150  180.5630 C.3   156  ALA156      0.1694
    193  C        -28.2910   92.4790  181.7030 C.2   156  ALA156      0.2592
    194  O        -29.4000   93.0310  181.8430 O.2   156  ALA156     -0.2718
    195  CB       -27.0720   92.1740  179.5750 C.3   156  ALA156      0.0304
    196  N        -27.2360   92.7300  182.4890 N.am  157  VAL157     -0.1966
    197  CA       -27.3540   93.6750  183.5860 C.3   157  VAL157      0.1712
    198  C        -26.8110   95.0250  183.0970 C.2   157  VAL157      0.2458
    199  O        -25.6100   95.1630  182.8420 O.2   157  VAL157     -0.2730
    200  CB       -26.6530   93.1780  184.8780 C.3   157  VAL157      0.0289
    201  CG1      -26.8420   94.1880  186.0100 C.3   157  VAL157      0.0023
    202  CG2      -27.1760   91.8000  185.2910 C.3   157  VAL157      0.0023
    203  N        -27.6780   96.0350  182.9340 N.am  158  PRO158     -0.2727
    204  CA       -27.1800   97.3550  182.5100 C.3   158  PRO158      0.1402
    205  C        -26.0390   97.8290  183.4170 C.2   158  PRO158      0.2269
    206  O        -26.1790   97.7790  184.6390 O.2   158  PRO158     -0.2865
    207  CB       -28.4170   98.2610  182.6100 C.3   158  PRO158      0.0296
    208  CG       -29.5870   97.3210  182.5240 C.3   158  PRO158      0.0237
    209  CD       -29.1320   96.0500  183.1810 C.3   158  PRO158      0.0939
@<TRIPOS>BOND
     1   177   176    2
     2   174   175    1
     3   187   186    2
     4   176   175    1
     5   176   184   am
     6   178   175    1
     7   178   179    1
     8   186   185    1
     9   185   184    1
    10   185   188    1
    11   179   180   ar
    12   179   181   ar
    13   184   190    1
    14   180   182   ar
    15   181   183   ar
    16   195   192    1
    17   188   189    1
    18   191   192    1
    19   182   183   ar
    20   190   189    1
    21   192   193    1
    22   157   156    2
    23   154   155    1
    24   155   156    1
    25   155   158    1
    26   193   194    2
    27   193   196   am
    28   156   161   am
    29   160   158    1
    30   196   197    1
    31   204   207    1
    32   204   203    1
    33   204   205    1
    34   208   207    1
    35   208   209    1
    36   158   159    1
    37   161   162    1
    38   199   198    2
    39   162   165    1
    40   162   163    1
    41   203   198   am
    42   203   209    1
    43   198   197    1
    44   165   166    1
    45   205   206    2
    46   197   200    1
    47   163   164    2
    48   163   167   am
    49     9     7   ar
    50     9    11   ar
    51   167   168    1
    52   200   202    1
    53   200   201    1
    54    12    11    1
    55   103   101   ar
    56   103   104   ar
    57   101    99   ar
    58     7     6   ar
    59    11    10   ar
    60   169   168    1
    61   169   170    2
    62    94    95    1
    63   168   171    1
    64     1     2    1
    65   104   102   ar
    66    99    98    1
    67    99   100   ar
    68    98    95    1
    69    95    96    1
    70   172   171    1
    71     6     5    1
    72     6     8   ar
    73    10     8   ar
    74   171   173    1
    75     5     2    1
    76   102   100   ar
    77     2     3    1
    78   149   148    2
    79     4     3    2
    80    96   105   am
    81    96    97    2
    82   110   109    1
    83   105   106    1
    84   127   129   ar
    85   127   125   ar
    86   148   147    1
    87     3    13   am
    88   129   128   ar
    89    89    88    2
    90    16    15    2
    91   152   150    1
    92   125   124   ar
    93   111   109    1
    94   108   107    2
    95    48    47    1
    96   109   106    1
    97   106   107    1
    98    49    50    1
    99    45    47   ar
   100    45    43   ar
   101    13    14    1
   102   147   150    1
   103   147   146    1
   104    47    46   ar
   105   150   151    1
   106   107   112   am
   107   128   126   ar
   108    88    87    1
   109    43    42   ar
   110    15    14    1
   111    53    50    1
   112   138   137    2
   113   146   137   am
   114   124   126   ar
   115   124   123    1
   116   135   136    1
   117    46    44   ar
   118   137   136    1
   119    50    51    1
   120   115   114    2
   121    42    44   ar
   122    42    41    1
   123    87    90    1
   124    87    86    1
   125   120   123    1
   126   120   119    1
   127   120   121    1
   128    52    51    2
   129    90    91    1
   130   136   139    1
   131   133   132    2
   132   151   153    1
   133    18    17    1
   134    18    19    1
   135   112   113    1
   136   112   118    1
   137   114   119   am
   138   114   113    1
   139    41    38    1
   140    51    54   am
   141   132   131    1
   142    91    92   ar
   143    91    93   ar
   144   121   122    2
   145   113   116    1
   146    40    39    2
   147    38    39    1
   148    38    37    1
   149   118   117    1
   150    36    34    1
   151    19    21   am
   152    19    20    2
   153   139   140    1
   154    54    55    1
   155   131   130    1
   156   131   134    1
   157    21    22    1
   158    34    35    1
   159    34    33    1
   160    37    31   am
   161   116   117    1
   162   140   141    1
   163    61    60   ar
   164    55    58    1
   165    55    56    1
   166    24    23    2
   167    58    59    1
   168    32    31    2
   169    31    30    1
   170    23    22    1
   171    22    25    1
   172    33    30    1
   173    25    26    1
   174   144   143    1
   175    60    59    1
   176    60    62   ar
   177   141   142    1
   178   143   142    2
   179   143   145    1
   180    30    29    1
   181    56    57    2
   182    56    63   am
   183    69    63    1
   184    69    68    1
   185    63    64    1
   186    85    83    1
   187    26    28   am
   188    26    27    2
   189    84    82    1
   190    68    67    1
   191    83    82    1
   192    64    67    1
   193    64    65    1
   194    81    80    2
   195    82    79    1
   196    80    79    1
   197    70    65   am
   198    70    71    1
   199    73    72    2
   200    65    66    2
   201    79    78    1
   202    72    71    1
   203    71    74    1
   204    74    75    1
   205    77    75   am
   206    75    76    2
