@<TRIPOS>MOLECULE
tmp/6huxA01.pdb
 125 119 0 0 0
SMALL
GASTEIGER

@<TRIPOS>ATOM
      1  N        -27.8010   93.2320  195.3710 N.3    22  LEU22      -0.1231
      2  CA       -27.7940   92.0280  194.5490 C.3    22  LEU22       0.1693
      3  C        -26.6420   92.0960  193.5440 C.2    22  LEU22       0.2592
      4  O        -25.8360   91.1770  193.4830 O.2    22  LEU22      -0.2718
      5  CB       -29.1400   91.9000  193.7880 C.3    22  LEU22       0.0284
      6  CG       -29.1960   90.8480  192.6780 C.3    22  LEU22       0.0019
      7  CD1      -28.9210   89.4310  193.2150 C.3    22  LEU22       0.0001
      8  CD2      -30.5230   90.8950  191.9650 C.3    22  LEU22       0.0001
      9  N        -26.5750   93.1840  192.7620 N.am   23  TYR23      -0.1976
     10  CA       -25.5410   93.3710  191.7320 C.3    23  TYR23       0.1639
     11  C        -24.1280   93.4510  192.2640 C.2    23  TYR23       0.2290
     12  O        -23.2330   92.8180  191.7120 O.2    23  TYR23      -0.2864
     13  CB       -25.8340   94.6370  190.9030 C.3    23  TYR23       0.0560
     14  CG       -27.2190   94.6200  190.2880 C.ar   23  TYR23      -0.0198
     15  CD1      -27.6850   93.4980  189.6040 C.ar   23  TYR23      -0.0009
     16  CD2      -28.0910   95.6930  190.4510 C.ar   23  TYR23      -0.0009
     17  CE1      -28.9810   93.4500  189.1000 C.ar   23  TYR23       0.0417
     18  CE2      -29.3900   95.6570  189.9460 C.ar   23  TYR23       0.0417
     19  CZ       -29.8320   94.5310  189.2740 C.ar   23  TYR23       0.1957
     20  OH       -31.1150   94.4780  188.7830 O.3    23  TYR23      -0.2866
     21  N        -23.9970   89.0590  193.5740 N.3    27  LEU27      -0.1245
     22  CA       -23.4430   88.6690  192.2750 C.3    27  LEU27       0.1561
     23  C        -22.0180   89.1660  192.0700 C.2    27  LEU27       0.2260
     24  O        -21.3030   88.6020  191.2440 O.2    27  LEU27      -0.2867
     25  CB       -24.3500   89.1580  191.1240 C.3    27  LEU27       0.0270
     26  CG       -25.8150   88.7060  191.2140 C.3    27  LEU27       0.0019
     27  CD1      -26.6500   89.2610  190.0620 C.3    27  LEU27       0.0001
     28  CD2      -25.9310   87.1820  191.3060 C.3    27  LEU27       0.0001
     29  N        -20.8060   91.7590  190.5190 N.3    29  LEU29      -0.1245
     30  CA       -20.6100   92.0360  189.1000 C.3    29  LEU29       0.1561
     31  C        -19.3800   92.8760  188.7620 C.2    29  LEU29       0.2260
     32  O        -18.7610   92.6130  187.7320 O.2    29  LEU29      -0.2867
     33  CB       -21.8620   92.6600  188.5010 C.3    29  LEU29       0.0270
     34  CG       -23.1000   91.7780  188.5130 C.3    29  LEU29       0.0019
     35  CD1      -24.3170   92.5510  187.9930 C.3    29  LEU29       0.0001
     36  CD2      -22.8910   90.5200  187.6960 C.3    29  LEU29       0.0001
     37  N        -18.0400   90.4640  186.1590 N.3    33  PHE33      -0.1241
     38  CA       -18.3640   90.8380  184.7760 C.3    33  PHE33       0.1605
     39  C        -17.6680   92.1260  184.3200 C.2    33  PHE33       0.2264
     40  O        -17.1670   92.1860  183.1930 O.2    33  PHE33      -0.2867
     41  CB       -19.8920   90.9960  184.6230 C.3    33  PHE33       0.0534
     42  CG       -20.7170   89.7410  184.4010 C.ar   33  PHE33      -0.0203
     43  CD1      -20.1400   88.4810  184.4770 C.ar   33  PHE33      -0.0042
     44  CD2      -22.0740   89.8220  184.1140 C.ar   33  PHE33      -0.0042
     45  CE1      -20.9080   87.3340  184.2980 C.ar   33  PHE33      -0.0003
     46  CE2      -22.8330   88.6710  183.9130 C.ar   33  PHE33      -0.0003
     47  CZ       -22.2420   87.4360  184.0010 C.ar   33  PHE33      -0.0000
     48  N        -40.3070   91.4530  190.9350 N.3   100  PHE100     -0.1241
     49  CA       -41.0940   90.2990  190.4880 C.3   100  PHE100      0.1605
     50  C        -42.3880   90.2690  191.3040 C.2   100  PHE100      0.2264
     51  O        -42.3880   90.6290  192.4900 O.2   100  PHE100     -0.2867
     52  CB       -40.3340   88.9790  190.7470 C.3   100  PHE100      0.0534
     53  CG       -39.1310   88.7190  189.8680 C.ar  100  PHE100     -0.0203
     54  CD1      -39.2850   88.2270  188.5850 C.ar  100  PHE100     -0.0042
     55  CD2      -37.8450   88.9230  190.3430 C.ar  100  PHE100     -0.0042
     56  CE1      -38.1790   87.9550  187.7910 C.ar  100  PHE100     -0.0003
     57  CE2      -36.7380   88.6470  189.5490 C.ar  100  PHE100     -0.0003
     58  CZ       -36.9110   88.1740  188.2720 C.ar  100  PHE100     -0.0000
     59  N        -36.8820   92.1350  182.6180 N.3   125  CYS125     -0.1235
     60  CA       -36.9130   90.6940  182.8670 C.3   125  CYS125      0.1677
     61  C        -37.8970   90.2430  183.9470 C.2   125  CYS125      0.2270
     62  O        -38.1130   89.0380  184.0440 O.2   125  CYS125     -0.2867
     63  CB       -35.5100   90.1870  183.1860 C.3   125  CYS125      0.0956
     64  SG       -35.1110   90.1990  184.9580 S.3   125  CYS125     -0.0801
     65  N        -35.9910   95.3110  177.3760 N.3   153  HIS153     -0.1241
     66  CA       -35.3340   94.2650  178.1280 C.3   153  HIS153      0.1621
     67  C        -33.8400   94.2120  177.8110 C.2   153  HIS153      0.2264
     68  O        -33.4210   93.8960  176.6810 O.2   153  HIS153     -0.2867
     69  CB       -36.0550   92.9450  177.8590 C.3   153  HIS153      0.0745
     70  CG       -35.6640   91.8430  178.7840 C.ar  153  HIS153      0.0817
     71  ND1      -34.3680   91.7170  179.2420 N.ar  153  HIS153     -0.2268
     72  CD2      -36.3960   90.8120  179.2530 C.ar  153  HIS153      0.1154
     73  CE1      -34.3530   90.6410  180.0060 C.ar  153  HIS153      0.1986
     74  NE2      -35.5490   90.0570  180.0370 N.ar  153  HIS153     -0.2212
     75  N        -31.5530   92.1380  178.6260 N.3   155  ALA155     -0.1231
     76  CA       -31.0620   90.7900  178.3550 C.3   155  ALA155      0.1694
     77  C        -29.6190   90.7290  178.8060 C.2   155  ALA155      0.2592
     78  O        -28.7550   90.1380  178.1540 O.2   155  ALA155     -0.2718
     79  CB       -31.1960   90.4660  176.8650 C.3   155  ALA155      0.0304
     80  N        -29.3780   91.3670  179.9470 N.am  156  ALA156     -0.1966
     81  CA       -28.0640   91.5150  180.5630 C.3   156  ALA156      0.1728
     82  C        -28.2910   92.4790  181.7030 C.2   156  ALA156      0.2616
     83  O        -29.4000   93.0310  181.8430 O.2   156  ALA156     -0.2715
     84  CB       -27.0720   92.1740  179.5750 C.3   156  ALA156      0.0334
     85  N        -27.2360   92.7300  182.4890 N.am  157  VAL157     -0.1977
     86  CA       -27.3540   93.6750  183.5860 C.3   157  VAL157      0.1596
     87  C        -26.8110   95.0250  183.0970 C.2   157  VAL157      0.2287
     88  O        -25.6100   95.1630  182.8420 O.2   157  VAL157     -0.2864
     89  CB       -26.6530   93.1780  184.8780 C.3   157  VAL157      0.0276
     90  CG1      -26.8420   94.1880  186.0100 C.3   157  VAL157      0.0022
     91  CG2      -27.1760   91.8000  185.2910 C.3   157  VAL157      0.0022
     92  N        -35.6520   84.5620  175.0540 N.3   209  VAL209     -0.1231
     93  CA       -34.3290   84.9040  174.5410 C.3   209  VAL209      0.1692
     94  C        -33.6750   85.9770  175.3490 C.2   209  VAL209      0.2592
     95  O        -32.4830   86.1780  175.1900 O.2   209  VAL209     -0.2718
     96  CB       -34.3940   85.2670  173.0270 C.3   209  VAL209      0.0266
     97  CG1      -35.0700   84.1410  172.2330 C.3   209  VAL209      0.0020
     98  CG2      -35.0960   86.6190  172.7980 C.3   209  VAL209      0.0020
     99  N        -34.4180   86.6620  176.2150 N.am  210  ALA210     -0.1966
    100  CA       -33.8880   87.7620  177.0210 C.3   210  ALA210      0.1728
    101  C        -33.6080   87.4060  178.4970 C.2   210  ALA210      0.2616
    102  O        -32.6870   87.9580  179.0800 O.2   210  ALA210     -0.2715
    103  CB       -34.8810   88.9170  176.9800 C.3   210  ALA210      0.0334
    104  N        -34.4320   86.5530  179.1130 N.am  211  ASP211     -0.1957
    105  CA       -34.3160   86.2100  180.5180 C.3   211  ASP211      0.1840
    106  C        -33.1390   85.2810  180.7900 C.2   211  ASP211      0.2621
    107  O        -32.4330   84.8720  179.8660 O.2   211  ASP211     -0.2715
    108  CB       -35.6380   85.5570  180.9790 C.3   211  ASP211      0.1450
    109  CG       -36.8510   86.4850  181.0340 C.2   211  ASP211      0.3671
    110  OD1      -36.6870   87.6930  180.7900 O.co2 211  ASP211     -0.2456
    111  OD2      -37.9640   85.9890  181.3250 O.co2 211  ASP211     -0.2456
    112  N        -32.9010   84.9850  182.0770 N.am  212  MET212     -0.1977
    113  CA       -31.8490   84.0660  182.5270 C.3   212  MET212      0.1605
    114  C        -32.0010   82.6680  181.8910 C.2   212  MET212      0.2287
    115  O        -31.0030   81.9850  181.6800 O.2   212  MET212     -0.2864
    116  CB       -31.8140   84.0130  184.0630 C.3   212  MET212      0.0413
    117  CG       -33.0600   83.5080  184.6760 C.3   212  MET212      0.0598
    118  SD       -32.9080   83.3210  186.4790 S.3   212  MET212     -0.1393
    119  CE       -34.5000   83.8750  186.9690 C.3   212  MET212      0.0692
    120  N        -32.4970   82.0770  178.8880 N.3   214  SER214     -0.1217
    121  CA       -31.8080   82.1420  177.5840 C.3   214  SER214      0.1889
    122  C        -30.6230   81.1480  177.6000 C.2   214  SER214      0.2288
    123  O        -30.2040   80.6740  176.5460 O.2   214  SER214     -0.2866
    124  CB       -31.2990   83.5580  177.3210 C.3   214  SER214      0.2089
    125  OG       -30.2880   83.9340  178.2470 O.3   214  SER214     -0.2183
@<TRIPOS>BOND
     1    97    96    1
     2    98    96    1
     3    96    93    1
     4    93    92    1
     5    93    94    1
     6    95    94    2
     7    94    99   am
     8    99   100    1
     9   123   122    2
    10    68    67    2
    11    79    76    1
    12   103   100    1
    13   100   101    1
    14   124   121    1
    15   124   125    1
    16    65    66    1
    17   121   122    1
    18   121   120    1
    19    67    66    1
    20    69    66    1
    21    69    70    1
    22    78    77    2
    23    76    75    1
    24    76    77    1
    25   101   102    2
    26   101   104   am
    27    70    71   ar
    28    70    72   ar
    29    77    80   am
    30   104   105    1
    31    71    73   ar
    32    72    74   ar
    33    84    81    1
    34   107   106    2
    35    80    81    1
    36    73    74   ar
    37   105   106    1
    38   105   108    1
    39    81    82    1
    40   110   109   ar
    41   106   112   am
    42   108   109    1
    43   109   111   ar
    44   115   114    2
    45    82    83    2
    46    82    85   am
    47   114   113    1
    48   112   113    1
    49    85    86    1
    50   113   116    1
    51    59    60    1
    52    88    87    2
    53    60    63    1
    54    60    61    1
    55    87    86    1
    56    63    64    1
    57    40    39    2
    58    86    89    1
    59    46    47   ar
    60    46    44   ar
    61    61    62    2
    62    47    45   ar
    63   116   117    1
    64    44    42   ar
    65    45    43   ar
    66    39    38    1
    67    42    43   ar
    68    42    41    1
    69    41    38    1
    70   117   118    1
    71    38    37    1
    72    89    91    1
    73    89    90    1
    74   118   119    1
    75    36    34    1
    76    32    31    2
    77    56    58   ar
    78    56    54   ar
    79    35    34    1
    80    58    57   ar
    81    33    34    1
    82    33    30    1
    83    54    53   ar
    84    31    30    1
    85    20    19    1
    86    17    19   ar
    87    17    15   ar
    88    30    29    1
    89    19    18   ar
    90    57    55   ar
    91    15    14   ar
    92    53    55   ar
    93    53    52    1
    94    18    16   ar
    95    27    26    1
    96    14    16   ar
    97    14    13    1
    98    49    52    1
    99    49    48    1
   100    49    50    1
   101    13    10    1
   102    25    26    1
   103    25    22    1
   104    26    28    1
   105    24    23    2
   106    50    51    2
   107    12    11    2
   108    10    11    1
   109    10     9    1
   110     8     6    1
   111    23    22    1
   112    22    21    1
   113     6     7    1
   114     6     5    1
   115     9     3   am
   116     4     3    2
   117     3     2    1
   118     5     2    1
   119     2     1    1
