@<TRIPOS>MOLECULE
tmp/6huyC00.pdb
 215 216 0 0 0
SMALL
GASTEIGER

@<TRIPOS>ATOM
      1  N        -98.8940  -71.3310  108.8180 N.3     6  TYR6       -0.1227
      2  CA       -99.1360  -71.1550  107.3900 C.3     6  TYR6        0.1736
      3  C       -100.3940  -71.9290  107.0160 C.2     6  TYR6        0.2596
      4  O       -100.4210  -73.1630  107.0890 O.2     6  TYR6       -0.2718
      5  CB       -97.9240  -71.6030  106.5720 C.3     6  TYR6        0.0548
      6  CG       -96.7470  -70.6590  106.6920 C.ar    6  TYR6       -0.0200
      7  CD1      -96.6510  -69.5400  105.8740 C.ar    6  TYR6       -0.0009
      8  CD2      -95.7520  -70.8660  107.6410 C.ar    6  TYR6       -0.0009
      9  CE1      -95.5900  -68.6610  105.9850 C.ar    6  TYR6        0.0417
     10  CE2      -94.6800  -69.9880  107.7570 C.ar    6  TYR6        0.0417
     11  CZ       -94.6050  -68.8910  106.9210 C.ar    6  TYR6        0.1957
     12  OH       -93.5600  -67.9970  107.0100 O.3     6  TYR6       -0.2866
     13  N       -101.4470  -71.2000  106.6570 N.am    7  GLY7       -0.1942
     14  CA      -102.7000  -71.8180  106.2690 C.3     7  GLY7        0.2014
     15  C       -103.7850  -71.5790  107.2990 C.2     7  GLY7        0.2639
     16  O       -103.6410  -71.9740  108.4630 O.2     7  GLY7       -0.2714
     17  N       -104.8810  -70.9460  106.8730 N.am    8  PHE8       -0.1959
     18  CA      -106.0110  -70.6650  107.7560 C.3     8  PHE8        0.1771
     19  C       -106.8560  -71.9100  107.9750 C.2     8  PHE8        0.2620
     20  O       -107.3600  -72.1340  109.0780 O.2     8  PHE8       -0.2715
     21  CB      -106.8650  -69.5380  107.1550 C.3     8  PHE8        0.0574
     22  CG      -107.9290  -68.9810  108.0800 C.ar    8  PHE8       -0.0200
     23  CD1     -109.1590  -69.6140  108.2110 C.ar    8  PHE8       -0.0042
     24  CD2     -107.7190  -67.7830  108.7650 C.ar    8  PHE8       -0.0042
     25  CE1     -110.1390  -69.0940  109.0420 C.ar    8  PHE8       -0.0003
     26  CE2     -108.7020  -67.2510  109.5900 C.ar    8  PHE8       -0.0003
     27  CZ      -109.9110  -67.9050  109.7280 C.ar    8  PHE8       -0.0000
     28  N       -106.9960  -72.7350  106.9490 N.am    9  GLY9       -0.1940
     29  CA      -107.8950  -73.8820  106.9510 C.3     9  GLY9        0.2014
     30  C       -109.0660  -73.6080  106.0230 C.2     9  GLY9        0.2639
     31  O       -109.5970  -72.4880  105.9740 O.2     9  GLY9       -0.2714
     32  N       -109.4650  -74.6320  105.2680 N.am   10  SER10      -0.1949
     33  CA      -110.5540  -74.5000  104.2960 C.3    10  SER10       0.1924
     34  C       -111.8840  -74.3240  105.0180 C.2    10  SER10       0.2314
     35  O       -112.4480  -75.2790  105.5460 O.2    10  SER10      -0.2863
     36  CB      -110.5980  -75.7240  103.3880 C.3    10  SER10       0.2116
     37  OG      -111.7730  -75.7360  102.5930 O.3    10  SER10      -0.2180
     38  N       -114.4460  -76.7050  103.1470 N.3    13  TYR13      -0.1227
     39  CA      -114.4140  -78.1510  103.3340 C.3    13  TYR13       0.1736
     40  C       -115.0370  -78.5550  104.6620 C.2    13  TYR13       0.2595
     41  O       -115.7280  -79.5770  104.7360 O.2    13  TYR13      -0.2718
     42  CB      -112.9840  -78.6990  103.2560 C.3    13  TYR13       0.0548
     43  CG      -112.9830  -80.1790  103.5530 C.ar   13  TYR13      -0.0200
     44  CD1     -113.1870  -81.1080  102.5360 C.ar   13  TYR13      -0.0009
     45  CD2     -112.8480  -80.6510  104.8570 C.ar   13  TYR13      -0.0009
     46  CE1     -113.2360  -82.4580  102.8070 C.ar   13  TYR13       0.0417
     47  CE2     -112.8980  -81.9990  105.1330 C.ar   13  TYR13       0.0417
     48  CZ      -113.0900  -82.8990  104.1030 C.ar   13  TYR13       0.1957
     49  OH      -113.1430  -84.2500  104.3680 O.3    13  TYR13      -0.2866
     50  N       -114.7710  -77.7950  105.7250 N.am   14  TYR14      -0.1976
     51  CA      -115.2020  -78.1630  107.0690 C.3    14  TYR14       0.1639
     52  C       -116.6800  -77.8890  107.3340 C.2    14  TYR14       0.2290
     53  O       -117.1700  -78.2020  108.4230 O.2    14  TYR14      -0.2864
     54  CB      -114.3390  -77.4260  108.0930 C.3    14  TYR14       0.0560
     55  CG      -112.8640  -77.7850  108.0050 C.ar   14  TYR14      -0.0198
     56  CD1     -112.4340  -79.1110  108.0360 C.ar   14  TYR14      -0.0009
     57  CD2     -111.9040  -76.7880  107.8780 C.ar   14  TYR14      -0.0009
     58  CE1     -111.0840  -79.4290  107.9530 C.ar   14  TYR14       0.0417
     59  CE2     -110.5620  -77.0940  107.7900 C.ar   14  TYR14       0.0417
     60  CZ      -110.1550  -78.4100  107.8290 C.ar   14  TYR14       0.1957
     61  OH      -108.8140  -78.6750  107.7360 O.3    14  TYR14      -0.2866
     62  N       -100.3780  -66.6940  108.1720 N.3    49  SER49      -0.1202
     63  CA      -100.2040  -66.2440  106.7990 C.3    49  SER49       0.2020
     64  C       -101.0230  -67.1200  105.8640 C.2    49  SER49       0.2619
     65  O       -100.9350  -68.3540  105.9180 O.2    49  SER49      -0.2717
     66  CB       -98.7250  -66.2810  106.4100 C.3    49  SER49       0.2103
     67  OG       -98.4760  -65.5230  105.2460 O.3    49  SER49      -0.2182
     68  N       -101.8140  -66.4750  105.0050 N.am   50  ASP50      -0.1960
     69  CA      -102.6580  -67.1910  104.0660 C.3    50  ASP50       0.1825
     70  C       -102.9570  -66.2460  102.9140 C.2    50  ASP50       0.2464
     71  O       -103.2470  -65.0700  103.1730 O.2    50  ASP50      -0.2730
     72  CB      -103.9530  -67.6500  104.7490 C.3    50  ASP50       0.1450
     73  CG      -104.7320  -68.6360  103.9230 C.2    50  ASP50       0.3671
     74  OD1     -105.4220  -68.2130  102.9800 O.co2  50  ASP50      -0.2456
     75  OD2     -104.6850  -69.8350  104.2370 O.co2  50  ASP50      -0.2456
     76  N       -102.9210  -66.7000  101.6550 N.am   51  PRO51      -0.2715
     77  CA      -103.1560  -65.7620  100.5470 C.3    51  PRO51       0.1536
     78  C       -104.6020  -65.3310  100.4180 C.2    51  PRO51       0.2598
     79  O       -104.8720  -64.3440   99.7230 O.2    51  PRO51      -0.2715
     80  CB      -102.7120  -66.5470   99.3030 C.3    51  PRO51       0.0310
     81  CG      -102.2040  -67.8720   99.7990 C.3    51  PRO51       0.0237
     82  CD      -102.7550  -68.0760  101.1690 C.3    51  PRO51       0.0939
     83  N       -105.5370  -66.0480  101.0460 N.am   52  ASN52      -0.1973
     84  CA      -106.9640  -65.7930  100.9170 C.3    52  ASN52       0.1688
     85  C       -107.5690  -65.2770  102.2170 C.2    52  ASN52       0.2292
     86  O       -108.7330  -65.5510  102.5190 O.2    52  ASN52      -0.2864
     87  CB      -107.6850  -67.0640  100.4780 C.3    52  ASN52       0.1181
     88  CG      -107.1230  -67.6410   99.1870 C.2    52  ASN52       0.2629
     89  OD1     -107.4970  -67.2220   98.0930 O.2    52  ASN52      -0.2716
     90  ND2     -106.2260  -68.6140   99.3120 N.am   52  ASN52      -0.0877
     91  N        -96.0530  -64.5890  102.9370 N.3    75  ASP75      -0.1239
     92  CA       -95.4060  -65.7240  103.5960 C.3    75  ASP75       0.1674
     93  C        -93.9720  -65.3990  103.9980 C.2    75  ASP75       0.2266
     94  O        -93.4880  -65.8990  105.0240 O.2    75  ASP75      -0.2867
     95  CB       -95.4080  -66.9610  102.6900 C.3    75  ASP75       0.1410
     96  CG       -96.7940  -67.5510  102.4970 C.2    75  ASP75       0.3668
     97  OD1      -97.6800  -67.2970  103.3330 O.co2  75  ASP75      -0.2456
     98  OD2      -96.9910  -68.2900  101.5090 O.co2  75  ASP75      -0.2456
     99  N        -99.8940  -75.6230  107.8600 N.3    88  PHE88      -0.1227
    100  CA      -101.2670  -76.0920  107.6680 C.3    88  PHE88       0.1736
    101  C       -101.6590  -75.8900  106.2030 C.2    88  PHE88       0.2596
    102  O       -102.6050  -75.1960  105.8630 O.2    88  PHE88      -0.2718
    103  CB      -102.2180  -75.3510  108.6040 C.3    88  PHE88       0.0547
    104  CG      -103.4690  -76.1160  108.9350 C.ar   88  PHE88      -0.0202
    105  CD1     -103.5040  -76.9660  110.0210 C.ar   88  PHE88      -0.0042
    106  CD2     -104.6010  -75.9930  108.1460 C.ar   88  PHE88      -0.0042
    107  CE1     -104.6340  -77.6910  110.3170 C.ar   88  PHE88      -0.0003
    108  CE2     -105.7540  -76.7200  108.4390 C.ar   88  PHE88      -0.0003
    109  CZ      -105.7690  -77.5670  109.5240 C.ar   88  PHE88      -0.0000
    110  N       -100.8850  -76.5110  105.3280 N.am   89  THR89      -0.1939
    111  CA      -100.8850  -76.2370  103.9020 C.3    89  THR89       0.2013
    112  C       -101.5690  -77.3390  103.0940 C.2    89  THR89       0.2484
    113  O       -101.8160  -78.4390  103.5990 O.2    89  THR89      -0.2729
    114  CB       -99.4400  -76.0630  103.4410 C.3    89  THR89       0.1807
    115  OG1      -98.6650  -77.1340  103.9770 O.3    89  THR89      -0.2208
    116  CG2      -98.8900  -74.7590  103.9410 C.3    89  THR89       0.0379
    117  N       -101.8720  -77.0790  101.8190 N.am   90  PRO90      -0.2715
    118  CA      -102.7780  -77.9630  101.0740 C.3    90  PRO90       0.1536
    119  C       -102.2080  -79.3520  100.8080 C.2    90  PRO90       0.2598
    120  O       -100.9970  -79.5850  100.8280 O.2    90  PRO90      -0.2715
    121  CB      -103.0040  -77.2080   99.7570 C.3    90  PRO90       0.0310
    122  CG      -102.7090  -75.7990  100.0720 C.3    90  PRO90       0.0237
    123  CD      -101.6020  -75.8410  101.0700 C.3    90  PRO90       0.0939
    124  N       -103.1380  -80.2710  100.5080 N.am   91  PHE91      -0.1974
    125  CA      -102.8010  -81.6600  100.2010 C.3    91  PHE91       0.1639
    126  C       -102.0820  -81.7870   98.8630 C.2    91  PHE91       0.2290
    127  O       -101.1060  -82.5350   98.7440 O.2    91  PHE91      -0.2864
    128  CB      -104.0720  -82.5180  100.1740 C.3    91  PHE91       0.0560
    129  CG      -104.4500  -83.1120  101.4970 C.ar   91  PHE91      -0.0200
    130  CD1     -103.6450  -84.0600  102.0930 C.ar   91  PHE91      -0.0042
    131  CD2     -105.6440  -82.7580  102.1190 C.ar   91  PHE91      -0.0042
    132  CE1     -103.9960  -84.6350  103.3030 C.ar   91  PHE91      -0.0003
    133  CE2     -106.0020  -83.3240  103.3310 C.ar   91  PHE91      -0.0003
    134  CZ      -105.1760  -84.2710  103.9230 C.ar   91  PHE91      -0.0000
    135  N        -97.8590  -77.3450   97.0220 N.3    95  VAL95      -0.1245
    136  CA       -97.8930  -76.0340   97.6560 C.3    95  VAL95       0.1561
    137  C        -97.0200  -76.0230   98.8980 C.2    95  VAL95       0.2260
    138  O        -96.3130  -75.0420   99.1700 O.2    95  VAL95      -0.2867
    139  CB       -99.3500  -75.6510   97.9900 C.3    95  VAL95       0.0252
    140  CG1      -99.4200  -74.2430   98.5540 C.3    95  VAL95       0.0019
    141  CG2     -100.2410  -75.7850   96.7570 C.3    95  VAL95       0.0019
    142  N        -93.4700  -75.7600   97.9460 N.3    98  LYS98      -0.1231
    143  CA       -93.1790  -74.4080   97.4810 C.3    98  LYS98       0.1693
    144  C        -93.0540  -73.4440   98.6510 C.2    98  LYS98       0.2591
    145  O        -92.1130  -72.6450   98.7090 O.2    98  LYS98      -0.2718
    146  CB       -94.2660  -73.9310   96.5180 C.3    98  LYS98       0.0285
    147  CG       -94.0430  -72.5310   95.9350 C.3    98  LYS98       0.0035
    148  CD       -95.3510  -71.9550   95.3850 C.3    98  LYS98       0.0206
    149  CE       -96.1770  -71.2210   96.4690 C.3    98  LYS98       0.1093
    150  NZ       -95.7100  -69.8180   96.7150 N.3    98  LYS98      -0.1314
    151  N        -94.0050  -73.4920   99.5880 N.am   99  ILE99      -0.1980
    152  CA       -93.9710  -72.5690  100.7190 C.3    99  ILE99       0.1595
    153  C        -92.7170  -72.8000  101.5480 C.2    99  ILE99       0.2287
    154  O        -91.9710  -71.8630  101.8570 O.2    99  ILE99      -0.2864
    155  CB       -95.2390  -72.7110  101.5800 C.3    99  ILE99       0.0276
    156  CG1      -96.4780  -72.2850  100.7920 C.3    99  ILE99       0.0022
    157  CG2      -95.1100  -71.8830  102.8630 C.3    99  ILE99       0.0022
    158  CD1      -97.7570  -72.8400  101.3440 C.3    99  ILE99       0.0001
    159  N        -98.0610  -80.7800  108.9780 N.3   116  THR116     -0.1203
    160  CA       -99.2550  -81.3530  109.5840 C.3   116  THR116      0.1994
    161  C        -99.6490  -82.6110  108.8140 C.2   116  THR116      0.2618
    162  O        -98.7950  -83.2450  108.1860 O.2   116  THR116     -0.2717
    163  CB      -100.3870  -80.3300  109.5810 C.3   116  THR116      0.1784
    164  OG1     -100.5950  -79.8540  108.2480 O.3   116  THR116     -0.2211
    165  CG2     -100.0470  -79.1700  110.4780 C.3   116  THR116      0.0376
    166  N       -100.9320  -82.9830  108.8280 N.am  117  CYS117     -0.1955
    167  CA      -101.3420  -84.2080  108.1510 C.3   117  CYS117      0.1843
    168  C       -101.1410  -84.1380  106.6420 C.2   117  CYS117      0.2626
    169  O       -101.1270  -85.1810  105.9840 O.2   117  CYS117     -0.2714
    170  CB      -102.8070  -84.5160  108.4500 C.3   117  CYS117      0.0997
    171  SG      -103.9730  -83.6670  107.3680 S.3   117  CYS117     -0.0797
    172  N       -100.9950  -82.9520  106.0720 N.am  118  THR118     -0.1950
    173  CA      -100.9030  -82.8590  104.6250 C.3   118  THR118      0.1897
    174  C        -99.4950  -83.1330  104.1010 C.2   118  THR118      0.2313
    175  O        -99.2930  -83.1480  102.8810 O.2   118  THR118     -0.2863
    176  CB      -101.3800  -81.4830  104.1480 C.3   118  THR118      0.1794
    177  OG1     -100.5780  -80.4530  104.7340 O.3   118  THR118     -0.2208
    178  CG2     -102.8550  -81.2660  104.5200 C.3   118  THR118      0.0378
    179  N        -98.7000  -82.1740  114.3290 N.3   146  HIS146     -0.1227
    180  CA       -99.8040  -82.9100  113.7260 C.3   146  HIS146      0.1737
    181  C       -100.9650  -83.0100  114.7110 C.2   146  HIS146      0.2438
    182  O       -100.8290  -83.6980  115.7330 O.2   146  HIS146     -0.2733
    183  CB       -99.3190  -84.3080  113.3110 C.3   146  HIS146      0.0758
    184  CG      -100.2550  -85.0320  112.4020 C.ar  146  HIS146      0.0818
    185  ND1     -101.6220  -85.0460  112.5890 N.ar  146  HIS146     -0.2268
    186  CD2     -100.0220  -85.7520  111.2810 C.ar  146  HIS146      0.1154
    187  CE1     -102.1860  -85.7520  111.6260 C.ar  146  HIS146      0.1986
    188  NE2     -101.2370  -86.1890  110.8180 N.ar  146  HIS146     -0.2212
    189  N       -102.1120  -82.3730  114.4560 N.am  147  PRO147     -0.2729
    190  CA      -103.1960  -82.4040  115.4440 C.3   147  PRO147      0.1401
    191  C       -103.8930  -83.7470  115.5550 C.2   147  PRO147      0.2269
    192  O       -104.6580  -83.9370  116.5070 O.2   147  PRO147     -0.2865
    193  CB      -104.1670  -81.3360  114.9340 C.3   147  PRO147      0.0296
    194  CG      -103.9400  -81.3180  113.4380 C.3   147  PRO147      0.0237
    195  CD      -102.4610  -81.5680  113.2760 C.3   147  PRO147      0.0939
    196  N       -106.4430  -84.7970  114.4050 N.3   149  ALA149     -0.1231
    197  CA      -107.7990  -84.3410  114.6810 C.3   149  ALA149      0.1694
    198  C       -107.9440  -83.0150  113.9610 C.2   149  ALA149      0.2592
    199  O       -106.9510  -82.4460  113.5030 O.2   149  ALA149     -0.2718
    200  CB      -108.0600  -84.1720  116.1780 C.3   149  ALA149      0.0304
    201  N       -109.1590  -82.4900  113.8700 N.am  150  ILE150     -0.1966
    202  CA      -109.4020  -81.1900  113.2600 C.3   150  ILE150      0.1712
    203  C       -109.3050  -80.1370  114.3670 C.2   150  ILE150      0.2458
    204  O       -110.1650  -80.1290  115.2650 O.2   150  ILE150     -0.2730
    205  CB      -110.7650  -81.1460  112.5580 C.3   150  ILE150      0.0289
    206  CG1     -110.7780  -82.1570  111.4070 C.3   150  ILE150      0.0022
    207  CG2     -111.0390  -79.7570  112.0270 C.3   150  ILE150      0.0023
    208  CD1     -112.0970  -82.2920  110.6500 C.3   150  ILE150      0.0001
    209  N       -108.2820  -79.2810  114.3710 N.am  151  PRO151     -0.2727
    210  CA      -108.1980  -78.2370  115.4000 C.3   151  PRO151      0.1402
    211  C       -109.4510  -77.3750  115.4320 C.2   151  PRO151      0.2269
    212  O       -109.9310  -76.9020  114.3990 O.2   151  PRO151     -0.2865
    213  CB      -106.9660  -77.4290  114.9830 C.3   151  PRO151      0.0296
    214  CG      -106.1570  -78.3470  114.1870 C.3   151  PRO151      0.0237
    215  CD      -107.1100  -79.2590  113.4850 C.3   151  PRO151      0.0939
@<TRIPOS>BOND
     1   148   147    1
     2   148   149    1
     3   147   146    1
     4   149   150    1
     5   146   143    1
     6   141   139    1
     7   135   136    1
     8   143   142    1
     9   143   144    1
    10   136   139    1
    11   136   137    1
    12   139   140    1
    13    89    88    2
    14   144   145    2
    15   144   151   am
    16   127   126    2
    17   126   125    1
    18   137   138    2
    19    88    90   am
    20    88    87    1
    21    80    81    1
    22    80    77    1
    23   151   152    1
    24    79    78    2
    25   121   122    1
    26   121   118    1
    27    81    82    1
    28   122   123    1
    29   128   125    1
    30   128   129    1
    31   125   124    1
    32    78    77    1
    33    78    83   am
    34    87    84    1
    35   124   119   am
    36    77    76    1
    37   152   153    1
    38   152   155    1
    39   156   158    1
    40   156   155    1
    41   119   120    2
    42   119   118    1
    43    84    83    1
    44    84    85    1
    45   123   117    1
    46   118   117    1
    47    82    76    1
    48   129   130   ar
    49   129   131   ar
    50    98    96   ar
    51   153   154    2
    52   155   157    1
    53    76    70   am
    54   117   112   am
    55   130   132   ar
    56   131   133   ar
    57    85    86    2
    58    96    95    1
    59    96    97   ar
    60    44    46   ar
    61    44    43   ar
    62    37    36    1
    63    95    92    1
    64    46    48   ar
    65   175   174    2
    66    70    71    2
    67    70    69    1
    68    91    92    1
    69    74    73   ar
    70   112   113    2
    71   112   111    1
    72    38    39    1
    73    42    39    1
    74    42    43    1
    75   132   134   ar
    76   133   134   ar
    77    39    40    1
    78    36    33    1
    79   114   111    1
    80   114   116    1
    81   114   115    1
    82    43    45   ar
    83    92    93    1
    84   111   110    1
    85    73    75   ar
    86    73    72    1
    87    93    94    2
    88    69    72    1
    89    69    68    1
    90   174   173    1
    91    48    49    1
    92    48    47   ar
    93   176   178    1
    94   176   173    1
    95   176   177    1
    96    33    34    1
    97    33    32    1
    98   173   172    1
    99    40    41    2
   100    40    50   am
   101    45    47   ar
   102    68    64   am
   103    34    35    2
   104    67    66    1
   105    32    30   am
   106   110   101   am
   107    50    51    1
   108   102   101    2
   109    64    65    2
   110    64    63    1
   111     7     9   ar
   112     7     6   ar
   113    31    30    2
   114   169   168    2
   115     9    11   ar
   116    30    29    1
   117   172   168   am
   118   101   100    1
   119    14    13    1
   120    14    15    1
   121    66    63    1
   122     5     6    1
   123     5     2    1
   124   168   167    1
   125    13     3   am
   126     6     8   ar
   127    63    62    1
   128    17    15   am
   129    17    18    1
   130    11    12    1
   131    11    10   ar
   132    28    29    1
   133    28    19   am
   134     3     4    2
   135     3     2    1
   136    51    52    1
   137    51    54    1
   138    21    18    1
   139    21    22    1
   140    15    16    2
   141    52    53    2
   142   171   170    1
   143     2     1    1
   144     8    10   ar
   145   100    99    1
   146   100   103    1
   147    61    60    1
   148    18    19    1
   149    59    60   ar
   150    59    57   ar
   151    60    58   ar
   152    57    55   ar
   153    58    56   ar
   154    19    20    2
   155    55    56   ar
   156    55    54    1
   157    22    23   ar
   158    22    24   ar
   159   106   108   ar
   160   106   104   ar
   161   167   170    1
   162   167   166    1
   163   162   161    2
   164    23    25   ar
   165   164   163    1
   166   108   109   ar
   167   103   104    1
   168    24    26   ar
   169   161   166   am
   170   161   160    1
   171   104   105   ar
   172   159   160    1
   173    25    27   ar
   174   109   107   ar
   175   163   160    1
   176   163   165    1
   177    26    27   ar
   178   105   107   ar
   179   208   206    1
   180   188   186   ar
   181   188   187   ar
   182   186   184   ar
   183   206   205    1
   184   187   185   ar
   185   207   205    1
   186   184   185   ar
   187   184   183    1
   188   205   202    1
   189   202   201    1
   190   202   203    1
   191   195   194    1
   192   195   189    1
   193   183   180    1
   194   194   193    1
   195   215   214    1
   196   215   209    1
   197   199   198    2
   198   180   179    1
   199   180   181    1
   200   201   198   am
   201   198   197    1
   202   214   213    1
   203   203   209   am
   204   203   204    2
   205   209   210    1
   206   212   211    2
   207   196   197    1
   208   189   181   am
   209   189   190    1
   210   197   200    1
   211   181   182    2
   212   193   190    1
   213   213   210    1
   214   210   211    1
   215   190   191    1
   216   191   192    2
