@<TRIPOS>MOLECULE
tmp/6hv0A00.pdb
 167 155 0 0 0
SMALL
GASTEIGER

@<TRIPOS>ATOM
      1  N         -2.5510   38.8600   31.0080 N.3    16  LEU16      -0.1245
      2  CA        -3.2650   38.4290   29.8100 C.3    16  LEU16       0.1561
      3  C         -4.7660   38.6660   29.9330 C.2    16  LEU16       0.2260
      4  O         -5.4800   38.6840   28.9310 O.2    16  LEU16      -0.2867
      5  CB        -2.9940   36.9500   29.5160 C.3    16  LEU16       0.0270
      6  CG        -1.5610   36.5760   29.1280 C.3    16  LEU16       0.0019
      7  CD1       -1.5130   35.1660   28.5600 C.3    16  LEU16       0.0001
      8  CD2       -0.9790   37.5800   28.1400 C.3    16  LEU16       0.0001
      9  N         -4.7420   36.2020   34.8980 N.3    25  VAL25      -0.1245
     10  CA        -3.9590   35.2770   34.0930 C.3    25  VAL25       0.1561
     11  C         -2.7340   35.9960   33.5350 C.2    25  VAL25       0.2260
     12  O         -2.8330   37.1070   33.0090 O.2    25  VAL25      -0.2867
     13  CB        -4.7920   34.6710   32.9490 C.3    25  VAL25       0.0252
     14  CG1       -5.7930   33.6610   33.4970 C.3    25  VAL25       0.0019
     15  CG2       -5.5130   35.7630   32.1960 C.3    25  VAL25       0.0019
     16  N          1.0390   35.8000   31.2010 N.3    27  ARG27      -0.1245
     17  CA         1.9210   35.0800   30.2950 C.3    27  ARG27       0.1563
     18  C          3.0870   34.5650   31.1320 C.2    27  ARG27       0.2260
     19  O          3.7550   35.3400   31.8170 O.2    27  ARG27      -0.2867
     20  CB         2.4070   35.9780   29.1540 C.3    27  ARG27       0.0307
     21  CG         3.3190   35.2830   28.1500 C.3    27  ARG27       0.0489
     22  CD         3.8200   36.2450   27.0760 C.3    27  ARG27       0.2205
     23  NE         2.8090   36.5420   26.0600 N.pl3  27  ARG27      -0.0865
     24  CZ         1.9980   37.5970   26.0850 C.cat  27  ARG27       0.5346
     25  NH1        2.0650   38.4730   27.0830 N.pl3  27  ARG27       0.1354
     26  NH2        1.1140   37.7770   25.1100 N.pl3  27  ARG27       0.1354
     27  N         -0.0480   29.9660   29.8470 N.3    36  ALA36      -0.1245
     28  CA        -0.8190   30.9600   30.5760 C.3    36  ALA36       0.1562
     29  C         -0.8570   30.5590   32.0460 C.2    36  ALA36       0.2260
     30  O         -0.9580   29.3730   32.3620 O.2    36  ALA36      -0.2867
     31  CB        -2.2180   31.0800   30.0080 C.3    36  ALA36       0.0290
     32  N         -2.8440   31.0970   35.5600 N.3    38  LYS38      -0.1245
     33  CA        -3.9750   31.6250   36.3120 C.3    38  LYS38       0.1561
     34  C         -3.7340   31.4680   37.8080 C.2    38  LYS38       0.2260
     35  O         -3.6230   30.3520   38.3220 O.2    38  LYS38      -0.2867
     36  CB        -5.2830   30.9350   35.9080 C.3    38  LYS38       0.0271
     37  CG        -6.4940   31.4030   36.7110 C.3    38  LYS38       0.0035
     38  CD        -7.7990   30.7330   36.2660 C.3    38  LYS38       0.0206
     39  CE        -7.8500   29.2580   36.6480 C.3    38  LYS38       0.1093
     40  NZ        -9.1660   28.6310   36.3180 N.3    38  LYS38      -0.1314
     41  N         -7.6240   21.6240   25.5150 N.3    52  ILE52      -0.1245
     42  CA        -6.6070   22.4320   26.1750 C.3    52  ILE52       0.1561
     43  C         -6.0370   21.6930   27.3930 C.2    52  ILE52       0.2260
     44  O         -6.7630   21.0400   28.1470 O.2    52  ILE52      -0.2867
     45  CB        -7.1590   23.8210   26.5820 C.3    52  ILE52       0.0252
     46  CG1       -6.0100   24.7990   26.8380 C.3    52  ILE52       0.0019
     47  CG2       -8.0840   23.7260   27.7890 C.3    52  ILE52       0.0019
     48  CD1       -6.4630   26.2280   27.0270 C.3    52  ILE52       0.0001
     49  N         -4.1390   21.2500   31.0200 N.3    54  TYR54      -0.1241
     50  CA        -3.8440   21.8560   32.3140 C.3    54  TYR54       0.1605
     51  C         -2.5890   21.1990   32.8710 C.2    54  TYR54       0.2264
     52  O         -2.6420   20.1000   33.4220 O.2    54  TYR54      -0.2867
     53  CB        -5.0230   21.7080   33.2780 C.3    54  TYR54       0.0534
     54  CG        -6.1370   22.6860   32.9960 C.ar   54  TYR54      -0.0201
     55  CD1       -7.0260   22.4720   31.9510 C.ar   54  TYR54      -0.0009
     56  CD2       -6.2940   23.8300   33.7670 C.ar   54  TYR54      -0.0009
     57  CE1       -8.0410   23.3670   31.6850 C.ar   54  TYR54       0.0417
     58  CE2       -7.3110   24.7300   33.5070 C.ar   54  TYR54       0.0417
     59  CZ        -8.1770   24.4950   32.4640 C.ar   54  TYR54       0.1957
     60  OH        -9.1890   25.3900   32.2020 O.3    54  TYR54      -0.2866
     61  N         -1.6360   26.9260   32.2700 N.3    68  ILE68      -0.1231
     62  CA        -2.5230   26.5420   31.1770 C.3    68  ILE68       0.1692
     63  C         -1.8270   26.6340   29.8270 C.2    68  ILE68       0.2592
     64  O         -1.0820   27.5790   29.5710 O.2    68  ILE68      -0.2718
     65  CB        -3.7800   27.4300   31.1110 C.3    68  ILE68       0.0266
     66  CG1       -4.1460   27.9800   32.4930 C.3    68  ILE68       0.0019
     67  CG2       -4.9270   26.6650   30.4650 C.3    68  ILE68       0.0020
     68  CD1       -4.7550   26.9660   33.4160 C.3    68  ILE68       0.0001
     69  N         -2.0870   25.6560   28.9650 N.am   69  GLU69      -0.1966
     70  CA        -1.5910   25.6850   27.5960 C.3    69  GLU69       0.1733
     71  C         -1.9800   26.9870   26.9020 C.2    69  GLU69       0.2616
     72  O         -3.1590   27.3010   26.7680 O.2    69  GLU69      -0.2715
     73  CB        -2.1200   24.4880   26.8080 C.3    69  GLU69       0.0429
     74  CG        -1.7310   24.5080   25.3470 C.3    69  GLU69       0.1163
     75  CD        -1.6860   23.1210   24.7370 C.2    69  GLU69       0.3649
     76  OE1       -2.0270   22.1480   25.4410 O.co2  69  GLU69      -0.2457
     77  OE2       -1.3020   23.0040   23.5530 O.co2  69  GLU69      -0.2457
     78  N         -0.9750   27.7410   26.4730 N.am   70  LEU70      -0.1963
     79  CA        -1.1820   29.0810   25.9370 C.3    70  LEU70       0.1728
     80  C         -1.7650   29.0590   24.5300 C.2    70  LEU70       0.2616
     81  O         -1.3900   28.2240   23.7050 O.2    70  LEU70      -0.2715
     82  CB         0.1400   29.8550   25.9410 C.3    70  LEU70       0.0311
     83  CG         0.0990   31.3380   25.5700 C.3    70  LEU70       0.0022
     84  CD1       -0.8440   32.0910   26.4920 C.3    70  LEU70       0.0001
     85  CD2        1.4930   31.9360   25.6280 C.3    70  LEU70       0.0001
     86  N         -2.6790   29.9870   24.2610 N.am   71  CYS71      -0.1954
     87  CA        -3.2930   30.1050   22.9430 C.3    71  CYS71       0.1843
     88  C         -2.9070   31.4320   22.2920 C.2    71  CYS71       0.2625
     89  O         -2.5810   32.3990   22.9830 O.2    71  CYS71      -0.2714
     90  CB        -4.8160   29.9920   23.0420 C.3    71  CYS71       0.0997
     91  SG        -5.6560   31.5640   23.3710 S.3    71  CYS71      -0.0797
     92  N         -2.9480   31.4770   20.9630 N.am   72  ALA72      -0.1963
     93  CA        -2.6290   32.6960   20.2260 C.3    72  ALA72       0.1728
     94  C         -3.8570   33.5890   20.0950 C.2    72  ALA72       0.2616
     95  O         -3.7640   34.8160   20.1770 O.2    72  ALA72      -0.2715
     96  CB        -2.0680   32.3570   18.8460 C.3    72  ALA72       0.0334
     97  N         -5.0120   32.9660   19.8960 N.am   73  ALA73      -0.1977
     98  CA        -6.2400   33.7160   19.6840 C.3    73  ALA73       0.1597
     99  C         -7.4810   32.8700   19.9160 C.2    73  ALA73       0.2287
    100  O         -7.4030   31.7110   20.3280 O.2    73  ALA73      -0.2864
    101  CB        -6.2630   34.2960   18.2740 C.3    73  ALA73       0.0319
    102  N        -10.0260   27.4040   20.9630 N.3   118  LEU118     -0.1245
    103  CA        -8.8650   28.2830   20.9670 C.3   118  LEU118      0.1561
    104  C         -7.8560   27.9250   19.8800 C.2   118  LEU118      0.2260
    105  O         -7.7710   26.7750   19.4390 O.2   118  LEU118     -0.2867
    106  CB        -8.1940   28.2540   22.3390 C.3   118  LEU118      0.0270
    107  CG        -9.1140   28.6550   23.4980 C.3   118  LEU118      0.0019
    108  CD1       -8.3560   28.6760   24.8170 C.3   118  LEU118      0.0001
    109  CD2       -9.7700   30.0050   23.2340 C.3   118  LEU118      0.0001
    110  N         -0.6560   28.8040   20.1090 N.3   121  MET121     -0.1245
    111  CA         0.5850   29.3990   19.6520 C.3   121  MET121      0.1570
    112  C          1.2780   28.3560   18.7780 C.2   121  MET121      0.2261
    113  O          1.1630   27.1550   19.0370 O.2   121  MET121     -0.2867
    114  CB         1.4770   29.8090   20.8280 C.3   121  MET121      0.0387
    115  CG         0.9280   30.9300   21.7040 C.3   121  MET121      0.0595
    116  SD         0.9230   32.5570   20.9160 S.3   121  MET121     -0.1393
    117  CE         2.5470   32.5870   20.1650 C.3   121  MET121      0.0692
    118  N        -11.6030   24.2860   25.0110 N.3   133  SER133     -0.1217
    119  CA       -11.3090   24.7590   26.3630 C.3   133  SER133      0.1889
    120  C        -12.5810   24.9800   27.1780 C.2   133  SER133      0.2288
    121  O        -13.6430   25.2350   26.6060 O.2   133  SER133     -0.2866
    122  CB       -10.4940   26.0550   26.2980 C.3   133  SER133      0.2089
    123  OG       -10.8600   26.9550   27.3300 O.3   133  SER133     -0.2183
    124  N        -12.9570   27.4750   29.4370 N.3   135  PHE135     -0.1241
    125  CA       -13.1610   28.9100   29.4830 C.3   135  PHE135      0.1605
    126  C        -13.1440   29.5110   28.0850 C.2   135  PHE135      0.2264
    127  O        -12.3030   29.1640   27.2550 O.2   135  PHE135     -0.2867
    128  CB       -12.0960   29.5670   30.3640 C.3   135  PHE135      0.0534
    129  CG       -12.2120   29.2130   31.8210 C.ar  135  PHE135     -0.0203
    130  CD1      -12.6270   30.1570   32.7440 C.ar  135  PHE135     -0.0042
    131  CD2      -11.9220   27.9330   32.2680 C.ar  135  PHE135     -0.0042
    132  CE1      -12.7390   29.8360   34.0830 C.ar  135  PHE135     -0.0003
    133  CE2      -12.0310   27.6080   33.6070 C.ar  135  PHE135     -0.0003
    134  CZ       -12.4420   28.5610   34.5140 C.ar  135  PHE135     -0.0000
    135  N        -12.6320   32.9440   25.8250 N.3   137  LEU137     -0.1245
    136  CA       -11.9540   34.2320   25.9260 C.3   137  LEU137      0.1561
    137  C        -12.7370   35.3030   25.1670 C.2   137  LEU137      0.2260
    138  O        -13.4060   34.9910   24.1840 O.2   137  LEU137     -0.2867
    139  CB       -10.5250   34.1320   25.3980 C.3   137  LEU137      0.0270
    140  CG        -9.6590   33.0450   26.0360 C.3   137  LEU137      0.0019
    141  CD1       -8.1940   33.2190   25.6440 C.3   137  LEU137      0.0001
    142  CD2       -9.8230   33.0490   27.5380 C.3   137  LEU137      0.0001
    143  N         -2.3380   43.7470   25.8590 N.3   144  GLY144     -0.1225
    144  CA        -3.2510   42.7570   25.3050 C.3   144  GLY144      0.1811
    145  C         -4.0690   42.0560   26.3690 C.2   144  GLY144      0.2280
    146  O         -3.5390   41.3030   27.1780 O.2   144  GLY144     -0.2866
    147  N         -7.8300   39.9800   27.8000 N.3   146  HIS146     -0.1241
    148  CA        -8.9510   39.1000   27.4920 C.3   146  HIS146      0.1621
    149  C         -9.8090   38.8080   28.7150 C.2   146  HIS146      0.2264
    150  O         -9.3100   38.7130   29.8400 O.2   146  HIS146     -0.2867
    151  CB        -8.4540   37.7800   26.9050 C.3   146  HIS146      0.0745
    152  CG        -8.3740   37.7780   25.4150 C.ar  146  HIS146      0.0817
    153  ND1       -7.3130   38.3260   24.7270 N.ar  146  HIS146     -0.2268
    154  CD2       -9.2250   37.2980   24.4780 C.ar  146  HIS146      0.1154
    155  CE1       -7.5130   38.1800   23.4290 C.ar  146  HIS146      0.1986
    156  NE2       -8.6670   37.5620   23.2520 N.ar  146  HIS146     -0.2212
    157  N        -12.1660   35.9760   30.5370 N.3   148  PHE148     -0.1241
    158  CA       -12.3700   34.5330   30.4980 C.3   148  PHE148      0.1605
    159  C        -13.4560   34.1110   31.4700 C.2   148  PHE148      0.2264
    160  O        -13.5550   34.6390   32.5760 O.2   148  PHE148     -0.2867
    161  CB       -11.0690   33.7750   30.7840 C.3   148  PHE148      0.0534
    162  CG       -10.4120   34.1360   32.0860 C.ar  148  PHE148     -0.0203
    163  CD1      -10.6930   33.4240   33.2430 C.ar  148  PHE148     -0.0042
    164  CD2       -9.4820   35.1620   32.1450 C.ar  148  PHE148     -0.0042
    165  CE1      -10.0770   33.7440   34.4400 C.ar  148  PHE148     -0.0003
    166  CE2       -8.8620   35.4850   33.3380 C.ar  148  PHE148     -0.0003
    167  CZ        -9.1620   34.7760   34.4850 C.ar  148  PHE148     -0.0000
@<TRIPOS>BOND
     1   101    98    1
     2   112   113    2
     3   112   111    1
     4    96    93    1
     5   105   104    2
     6   111   110    1
     7   111   114    1
     8    98    97    1
     9    98    99    1
    10   104   103    1
    11    97    94   am
    12    99   100    2
    13    94    95    2
    14    94    93    1
    15   117   116    1
    16    93    92    1
    17   114   115    1
    18   116   115    1
    19   102   103    1
    20    92    88   am
    21   103   106    1
    22    88    87    1
    23    88    89    2
    24   106   107    1
    25    87    90    1
    26    87    86    1
    27    90    91    1
    28   109   107    1
    29   156   155   ar
    30   156   154   ar
    31   155   153   ar
    32   107   108    1
    33    77    75   ar
    34    81    80    2
    35   138   137    2
    36    86    80   am
    37   154   152   ar
    38    80    79    1
    39   153   152   ar
    40    75    74    1
    41    75    76   ar
    42   118   119    1
    43    26    24    1
    44   137   136    1
    45   144   143    1
    46   144   145    1
    47    74    73    1
    48   139   136    1
    49   139   140    1
    50   152   151    1
    51    41    42    1
    52    83    85    1
    53    83    82    1
    54    83    84    1
    55   141   140    1
    56   135   136    1
    57    79    82    1
    58    79    78    1
    59   140   142    1
    60    23    24    2
    61    23    22    1
    62    24    25    1
    63    42    45    1
    64    42    43    1
    65   122   119    1
    66   122   123    1
    67   119   120    1
    68   145   146    2
    69    78    71   am
    70    45    46    1
    71    45    47    1
    72   121   120    2
    73    72    71    2
    74    73    70    1
    75    46    48    1
    76    71    70    1
    77   151   148    1
    78    22    21    1
    79   127   126    2
    80    43    44    2
    81   148   147    1
    82   148   149    1
    83    70    69    1
    84   126   125    1
    85     8     6    1
    86    21    20    1
    87     7     6    1
    88   149   150    2
    89     4     3    2
    90    69    63   am
    91     6     5    1
    92    20    17    1
    93   124   125    1
    94   125   128    1
    95     5     2    1
    96    64    63    2
    97     2     3    1
    98     2     1    1
    99    63    62    1
   100    27    28    1
   101    31    28    1
   102    17    18    1
   103    17    16    1
   104   128   129    1
   105    67    65    1
   106   158   157    1
   107   158   161    1
   108   158   159    1
   109    28    29    1
   110   161   162    1
   111    49    50    1
   112    65    62    1
   113    65    66    1
   114    18    19    2
   115    62    61    1
   116   159   160    2
   117    57    55   ar
   118    57    59   ar
   119   129   131   ar
   120   129   130   ar
   121    55    54   ar
   122    29    30    2
   123   162   164   ar
   124   162   163   ar
   125   164   166   ar
   126    15    13    1
   127    60    59    1
   128   131   133   ar
   129    50    51    1
   130    50    53    1
   131    59    58   ar
   132    66    68    1
   133   130   132   ar
   134    51    52    2
   135    13    14    1
   136    13    10    1
   137    54    53    1
   138    54    56   ar
   139    12    11    2
   140   163   165   ar
   141   166   167   ar
   142    58    56   ar
   143    11    10    1
   144   133   134   ar
   145   132   134   ar
   146    10     9    1
   147   165   167   ar
   148    32    33    1
   149    36    33    1
   150    36    37    1
   151    38    39    1
   152    38    37    1
   153    33    34    1
   154    40    39    1
   155    34    35    2
