@<TRIPOS>MOLECULE
tmp/6hv9C01.pdb
 95 90 0 0 0
SMALL
GASTEIGER

@<TRIPOS>ATOM
      1  N        169.8780  194.5370  154.8310 N.3   296  LEU296     -0.1231
      2  CA       170.2170  193.1990  154.3870 C.3   296  LEU296      0.1693
      3  C        171.1110  192.4970  155.3930 C.2   296  LEU296      0.2591
      4  O        171.3620  192.9910  156.4920 O.2   296  LEU296     -0.2718
      5  CB       170.8120  193.2470  152.9880 C.3   296  LEU296      0.0284
      6  CG       169.6610  193.2470  151.9610 C.3   296  LEU296      0.0019
      7  CD1      169.0060  194.6010  151.7140 C.3   296  LEU296      0.0001
      8  CD2      170.0100  192.5970  150.6570 C.3   296  LEU296      0.0001
      9  N        171.6280  191.3440  155.0100 N.am  297  ARG297     -0.1980
     10  CA       172.4380  190.5310  155.9020 C.3   297  ARG297      0.1597
     11  C        173.8670  190.3690  155.4250 C.2   297  ARG297      0.2287
     12  O        174.1230  190.2450  154.2280 O.2   297  ARG297     -0.2864
     13  CB       171.6730  189.2020  156.0650 C.3   297  ARG297      0.0334
     14  CG       171.3370  188.4710  154.7280 C.3   297  ARG297      0.0492
     15  CD       170.3890  187.2360  154.9270 C.3   297  ARG297      0.2205
     16  NE       169.9330  186.6040  153.6810 N.pl3 297  ARG297     -0.0865
     17  CZ       170.5380  185.5920  153.0850 C.cat 297  ARG297      0.5346
     18  NH1      170.0490  185.0990  151.9670 N.pl3 297  ARG297      0.1354
     19  NH2      171.6510  185.0920  153.5920 N.pl3 297  ARG297      0.1354
     20  N        164.7420  179.0490  161.7210 N.3   382  HIS382     -0.1226
     21  CA       164.4030  179.1670  160.3040 C.3   382  HIS382      0.1752
     22  C        164.2400  180.6140  159.8870 C.2   382  HIS382      0.2595
     23  O        164.1070  180.8790  158.6920 O.2   382  HIS382     -0.2718
     24  CB       163.0610  178.5010  159.9510 C.3   382  HIS382      0.0759
     25  CG       163.0270  177.0020  160.0630 C.ar  382  HIS382      0.0818
     26  ND1      163.7570  176.1670  159.2490 N.ar  382  HIS382     -0.2268
     27  CD2      162.2060  176.1880  160.7750 C.ar  382  HIS382      0.1154
     28  CE1      163.4750  174.9070  159.5430 C.ar  382  HIS382      0.1986
     29  NE2      162.5300  174.8940  160.4640 N.ar  382  HIS382     -0.2212
     30  N        164.2210  181.5320  160.8480 N.am  383  GLU383     -0.1979
     31  CA       164.0860  182.9680  160.6170 C.3   383  GLU383      0.1602
     32  C        165.2810  183.8170  161.0550 C.2   383  GLU383      0.2287
     33  O        165.5500  184.8610  160.4160 O.2   383  GLU383     -0.2864
     34  CB       162.8310  183.4730  161.3420 C.3   383  GLU383      0.0415
     35  CG       162.3280  184.8500  160.9780 C.3   383  GLU383      0.1163
     36  CD       162.9840  185.9150  161.7890 C.2   383  GLU383      0.3649
     37  OE1      163.4180  185.5910  162.9060 O.co2 383  GLU383     -0.2457
     38  OE2      163.0980  187.0580  161.3150 O.co2 383  GLU383     -0.2457
     39  N        167.7150  184.9570  158.5460 N.3   386  GLU386     -0.1231
     40  CA       167.3700  185.5530  157.2630 C.3   386  GLU386      0.1699
     41  C        166.8370  186.9590  157.3740 C.2   386  GLU386      0.2592
     42  O        167.1340  187.7860  156.5230 O.2   386  GLU386     -0.2718
     43  CB       166.3540  184.6580  156.5290 C.3   386  GLU386      0.0402
     44  CG       166.9200  183.3170  156.0530 C.3   386  GLU386      0.1161
     45  CD       166.8920  182.2530  157.1310 C.2   386  GLU386      0.3649
     46  OE1      166.3810  182.5380  158.2290 O.co2 386  GLU386     -0.2457
     47  OE2      167.4560  181.1650  156.9150 O.co2 386  GLU386     -0.2457
     48  N        166.0850  187.2680  158.4040 N.am  387  GLN387     -0.1979
     49  CA       165.5870  188.6270  158.4810 C.3   387  GLN387      0.1601
     50  C        166.0300  189.3260  159.7430 C.2   387  GLN387      0.2287
     51  O        165.6610  190.4860  159.9340 O.2   387  GLN387     -0.2864
     52  CB       164.0790  188.7130  158.2650 C.3   387  GLN387      0.0394
     53  CG       163.7120  188.5680  156.7950 C.3   387  GLN387      0.0908
     54  CD       163.6400  187.1430  156.3270 C.2   387  GLN387      0.2608
     55  OE1      163.4880  186.2480  157.1370 O.2   387  GLN387     -0.2717
     56  NE2      163.7540  186.9150  155.0180 N.am  387  GLN387     -0.0878
     57  N        167.9660  178.5270  152.0910 N.3   437  ARG437     -0.1245
     58  CA       168.2440  179.6400  152.9740 C.3   437  ARG437      0.1563
     59  C        169.6380  179.5800  153.6050 C.2   437  ARG437      0.2260
     60  O        169.9350  180.3760  154.4970 O.2   437  ARG437     -0.2867
     61  CB       167.0940  179.9380  153.9550 C.3   437  ARG437      0.0307
     62  CG       165.9160  180.5660  153.1190 C.3   437  ARG437      0.0489
     63  CD       164.7350  181.3180  153.8060 C.3   437  ARG437      0.2205
     64  NE       163.8200  180.6330  154.6920 N.pl3 437  ARG437     -0.0865
     65  CZ       162.7400  180.0040  154.2610 C.cat 437  ARG437      0.5346
     66  NH1      162.4650  180.0030  152.9720 N.pl3 437  ARG437      0.1354
     67  NH2      161.9120  179.4400  155.1230 N.pl3 437  ARG437      0.1354
     68  N        167.9420  183.8770  144.3330 N.3   531  ILE531     -0.1231
     69  CA       168.8280  185.0090  144.2710 C.3   531  ILE531      0.1692
     70  C        169.6480  185.0910  145.5560 C.2   531  ILE531      0.2591
     71  O        170.6450  185.8270  145.6110 O.2   531  ILE531     -0.2718
     72  CB       168.0500  186.2540  143.8930 C.3   531  ILE531      0.0266
     73  CG1      167.0640  186.6030  144.9530 C.3   531  ILE531      0.0019
     74  CG2      167.2170  185.9180  142.6640 C.3   531  ILE531      0.0020
     75  CD1      166.5290  187.9600  144.6530 C.3   531  ILE531      0.0001
     76  N        169.2610  184.3420  146.5970 N.am  532  ARG532     -0.1980
     77  CA       170.0400  184.3250  147.8320 C.3   532  ARG532      0.1597
     78  C        171.3750  183.6480  147.5910 C.2   532  ARG532      0.2287
     79  O        172.3440  183.9080  148.3080 O.2   532  ARG532     -0.2864
     80  CB       169.3030  183.5320  148.9120 C.3   532  ARG532      0.0334
     81  CG       168.0630  184.1670  149.4260 C.3   532  ARG532      0.0492
     82  CD       167.5270  183.4940  150.6500 C.3   532  ARG532      0.2205
     83  NE       167.1180  182.1310  150.3770 N.pl3 532  ARG532     -0.0865
     84  CZ       165.9150  181.8100  149.9260 C.cat 532  ARG532      0.5346
     85  NH1      165.6190  180.5470  149.6970 N.pl3 532  ARG532      0.1354
     86  NH2      164.9960  182.7440  149.7350 N.pl3 532  ARG532      0.1354
     87  N        173.4580  186.3030  146.5480 N.3   535  GLU535     -0.1245
     88  CA       173.7500  187.0350  147.7560 C.3   535  GLU535      0.1567
     89  C        174.8650  186.3760  148.5300 C.2   535  GLU535      0.2260
     90  O        175.6100  187.0440  149.2500 O.2   535  GLU535     -0.2867
     91  CB       172.4900  187.0800  148.5950 C.3   535  GLU535      0.0388
     92  CG       172.4810  188.0440  149.7140 C.3   535  GLU535      0.1160
     93  CD       173.0540  187.4330  150.9760 C.2   535  GLU535      0.3649
     94  OE1      173.0930  186.1860  151.0780 O.co2 535  GLU535     -0.2457
     95  OE2      173.4130  188.2070  151.8780 O.co2 535  GLU535     -0.2457
@<TRIPOS>BOND
     1    74    72    1
     2    72    69    1
     3    72    73    1
     4    69    68    1
     5    69    70    1
     6    75    73    1
     7    70    71    2
     8    70    76   am
     9    87    88    1
    10    76    77    1
    11    78    77    1
    12    78    79    2
    13    88    89    1
    14    88    91    1
    15    77    80    1
    16    89    90    2
    17    91    92    1
    18    80    81    1
    19    81    82    1
    20    85    84    1
    21    92    93    1
    22    86    84    1
    23    84    83    2
    24    83    82    1
    25     8     6    1
    26    93    94   ar
    27    93    95   ar
    28     7     6    1
    29     6     5    1
    30    18    17    1
    31    57    58    1
    32    66    65    1
    33    58    59    1
    34    58    61    1
    35     5     2    1
    36    17    19    1
    37    17    16    2
    38    62    63    1
    39    62    61    1
    40    59    60    2
    41    16    15    1
    42    63    64    1
    43    12    11    2
    44    65    64    2
    45    65    67    1
    46     2     1    1
    47     2     3    1
    48    14    15    1
    49    14    13    1
    50     9     3   am
    51     9    10    1
    52    56    54   am
    53     3     4    2
    54    11    10    1
    55    10    13    1
    56    44    43    1
    57    44    45    1
    58    54    53    1
    59    54    55    2
    60    42    41    2
    61    43    40    1
    62    53    52    1
    63    47    45   ar
    64    45    46   ar
    65    40    41    1
    66    40    39    1
    67    41    48   am
    68    52    49    1
    69    48    49    1
    70    49    50    1
    71    23    22    2
    72    26    28   ar
    73    26    25   ar
    74    28    29   ar
    75    50    51    2
    76    22    21    1
    77    22    30   am
    78    24    25    1
    79    24    21    1
    80    25    27   ar
    81    21    20    1
    82    33    32    2
    83    29    27   ar
    84    31    30    1
    85    31    32    1
    86    31    34    1
    87    35    34    1
    88    35    36    1
    89    38    36   ar
    90    36    37   ar
