@<TRIPOS>MOLECULE
tmp/6hv9A00.pdb
 142 138 0 0 0
SMALL
GASTEIGER

@<TRIPOS>ATOM
      1  N        162.6410  198.4050  146.5320 N.3   274  SER274     -0.1202
      2  CA       163.6890  197.4300  146.2520 C.3   274  SER274      0.2020
      3  C        163.1930  196.0980  145.7050 C.2   274  SER274      0.2619
      4  O        163.9520  195.1360  145.7400 O.2   274  SER274     -0.2717
      5  CB       164.4850  197.0800  147.5010 C.3   274  SER274      0.2103
      6  OG       163.6810  196.4180  148.4580 O.3   274  SER274     -0.2182
      7  N        161.9570  195.9710  145.2360 N.am  275  ILE275     -0.1965
      8  CA       161.4590  194.6850  144.7570 C.3   275  ILE275      0.1727
      9  C        160.9700  194.7980  143.3320 C.2   275  ILE275      0.2616
     10  O        160.1400  195.6580  143.0240 O.2   275  ILE275     -0.2715
     11  CB       160.3390  194.1510  145.6560 C.3   275  ILE275      0.0290
     12  CG1      160.8700  193.9540  147.0740 C.3   275  ILE275      0.0022
     13  CG2      159.7830  192.8640  145.1020 C.3   275  ILE275      0.0023
     14  CD1      159.8040  193.7160  148.1150 C.3   275  ILE275      0.0001
     15  N        161.4500  193.9090  142.4740 N.am  276  TYR276     -0.1974
     16  CA       161.0260  193.9250  141.0900 C.3   276  TYR276      0.1639
     17  C        159.7260  193.1720  140.8940 C.2   276  TYR276      0.2290
     18  O        159.5110  192.1040  141.4660 O.2   276  TYR276     -0.2864
     19  CB       162.0840  193.3040  140.1860 C.3   276  TYR276      0.0560
     20  CG       161.6640  193.2950  138.7380 C.ar  276  TYR276     -0.0198
     21  CD1      161.6460  194.4620  137.9980 C.ar  276  TYR276     -0.0009
     22  CD2      161.2490  192.1240  138.1250 C.ar  276  TYR276     -0.0009
     23  CE1      161.2500  194.4610  136.6860 C.ar  276  TYR276      0.0417
     24  CE2      160.8480  192.1130  136.8240 C.ar  276  TYR276      0.0417
     25  CZ       160.8500  193.2790  136.1070 C.ar  276  TYR276      0.1957
     26  OH       160.4510  193.2520  134.7960 O.3   276  TYR276     -0.2866
     27  N        155.6250  192.3900  140.8140 N.3   278  HIS278     -0.1241
     28  CA       154.5500  192.2740  141.7970 C.3   278  HIS278      0.1621
     29  C        153.7800  193.5850  141.9350 C.2   278  HIS278      0.2264
     30  O        153.6330  194.1710  143.0080 O.2   278  HIS278     -0.2867
     31  CB       155.1580  191.7600  143.0880 C.3   278  HIS278      0.0745
     32  CG       155.8920  190.4870  142.8590 C.ar  278  HIS278      0.0817
     33  ND1      155.2460  189.2940  142.6300 N.ar  278  HIS278     -0.2268
     34  CD2      157.2080  190.2430  142.6830 C.ar  278  HIS278      0.1154
     35  CE1      156.1370  188.3530  142.3910 C.ar  278  HIS278      0.1986
     36  NE2      157.3360  188.9040  142.4150 N.ar  278  HIS278     -0.2212
     37  N        159.9330  179.8610  147.9160 N.3   315  PRO315     -0.2102
     38  CA       160.6940  180.5510  148.9600 C.3   315  PRO315      0.1504
     39  C        161.7940  181.5160  148.5850 C.2   315  PRO315      0.2576
     40  O        162.8910  181.4270  149.1390 O.2   315  PRO315     -0.2718
     41  CB       161.3140  179.3800  149.7160 C.3   315  PRO315      0.0282
     42  CG       161.4130  178.3160  148.7190 C.3   315  PRO315      0.0208
     43  CD       160.2400  178.4350  147.8450 C.3   315  PRO315      0.0893
     44  N        161.5150  182.4520  147.6870 N.am  316  SER316     -0.1938
     45  CA       162.4890  183.4480  147.2720 C.3   316  SER316      0.2055
     46  C        161.8100  184.6240  146.6060 C.2   316  SER316      0.2644
     47  O        162.3650  185.2160  145.6820 O.2   316  SER316     -0.2714
     48  CB       163.4620  182.8000  146.3170 C.3   316  SER316      0.2130
     49  OG       162.7210  182.1120  145.3330 O.3   316  SER316     -0.2179
     50  N        160.6300  184.9850  147.0330 N.am  317  THR317     -0.1936
     51  CA       159.9550  186.0630  146.3460 C.3   317  THR317      0.2028
     52  C        159.5120  187.1320  147.2980 C.2   317  THR317      0.2642
     53  O        158.3480  187.5380  147.3400 O.2   317  THR317     -0.2714
     54  CB       158.8380  185.5380  145.4990 C.3   317  THR317      0.1808
     55  OG1      159.2320  184.2770  144.9430 O.3   317  THR317     -0.2208
     56  CG2      158.6740  186.4930  144.3310 C.3   317  THR317      0.0379
     57  N        160.4550  187.5460  148.1280 N.am  318  ALA318     -0.1963
     58  CA       160.2860  188.5630  149.1520 C.3   318  ALA318      0.1728
     59  C        159.1740  188.3380  150.1470 C.2   318  ALA318      0.2616
     60  O        158.7540  189.3220  150.7630 O.2   318  ALA318     -0.2715
     61  CB       160.0580  189.9410  148.5120 C.3   318  ALA318      0.0334
     62  N        158.6410  187.1000  150.2040 N.am  319  LYS319     -0.1963
     63  CA       157.6040  186.6720  151.1430 C.3   319  LYS319      0.1728
     64  C        157.8130  187.2950  152.5120 C.2   319  LYS319      0.2617
     65  O        156.8810  187.8330  153.1030 O.2   319  LYS319     -0.2715
     66  CB       157.5080  185.1450  151.1720 C.3   319  LYS319      0.0311
     67  CG       158.7660  184.3410  151.3960 C.3   319  LYS319      0.0038
     68  CD       158.3770  182.8770  151.5240 C.3   319  LYS319      0.0206
     69  CE       157.8080  182.3990  150.2070 C.3   319  LYS319      0.1093
     70  NZ       157.5550  180.9530  150.1420 N.3   319  LYS319     -0.1314
     71  N        159.0420  187.2530  153.0160 N.am  320  SER320     -0.1936
     72  CA       159.3420  187.9120  154.2680 C.3   320  SER320      0.2055
     73  C        159.8770  189.3310  154.0690 C.2   320  SER320      0.2642
     74  O        159.8840  190.1180  155.0190 O.2   320  SER320     -0.2714
     75  CB       160.3740  187.1010  155.0520 C.3   320  SER320      0.2130
     76  OG       159.8810  185.8160  155.3490 O.3   320  SER320     -0.2179
     77  N        160.2820  189.6950  152.8610 N.am  321  GLN321     -0.1976
     78  CA       160.8180  191.0210  152.5790 C.3   321  GLN321      0.1601
     79  C        159.7430  192.0090  152.1570 C.2   321  GLN321      0.2287
     80  O        160.0280  193.1810  151.9160 O.2   321  GLN321     -0.2864
     81  CB       161.9240  190.8670  151.5470 C.3   321  GLN321      0.0394
     82  CG       162.8080  192.0350  151.2530 C.3   321  GLN321      0.0908
     83  CD       163.6470  192.4270  152.3900 C.2   321  GLN321      0.2608
     84  OE1      164.1880  191.5970  153.0890 O.2   321  GLN321     -0.2717
     85  NE2      163.8480  193.7100  152.5280 N.am  321  GLN321     -0.0878
     86  N        154.2520  185.9870  160.7230 N.3   373  ASP373     -0.1225
     87  CA       155.2270  185.2270  159.9670 C.3   373  ASP373      0.1805
     88  C        155.1580  183.7480  160.3100 C.2   373  ASP373      0.2597
     89  O        154.9700  183.3890  161.4800 O.2   373  ASP373     -0.2718
     90  CB       156.6280  185.7310  160.2020 C.3   373  ASP373      0.1424
     91  CG       156.7880  187.0900  159.6980 C.2   373  ASP373      0.3668
     92  OD1      155.9760  187.4160  158.8260 O.co2 373  ASP373     -0.2456
     93  OD2      157.7460  187.7870  160.0830 O.co2 373  ASP373     -0.2456
     94  N        155.2980  182.9100  159.2730 N.am  374  GLU374     -0.1979
     95  CA       155.3050  181.4490  159.3700 C.3   374  GLU374      0.1602
     96  C        154.0010  180.9220  159.9810 C.2   374  GLU374      0.2287
     97  O        153.9660  180.4400  161.1160 O.2   374  GLU374     -0.2864
     98  CB       156.5100  180.9550  160.1800 C.3   374  GLU374      0.0415
     99  CG       157.8710  181.2660  159.6120 C.3   374  GLU374      0.1163
    100  CD       158.1790  180.5220  158.3410 C.2   374  GLU374      0.3649
    101  OE1      157.7030  179.3860  158.1710 O.co2 374  GLU374     -0.2457
    102  OE2      158.9560  181.0480  157.5240 O.co2 374  GLU374     -0.2457
    103  N        154.7210  178.9320  153.6930 N.3   417  ASN417     -0.1240
    104  CA       155.3930  178.0920  152.7270 C.3   417  ASN417      0.1653
    105  C        154.4410  177.0150  152.2560 C.2   417  ASN417      0.2266
    106  O        153.4740  176.6980  152.9440 O.2   417  ASN417     -0.2867
    107  CB       156.5280  177.3280  153.4100 C.3   417  ASN417      0.1155
    108  CG       157.5200  178.2000  154.0600 C.2   417  ASN417      0.2627
    109  OD1      157.6700  178.1610  155.2770 O.2   417  ASN417     -0.2716
    110  ND2      158.2150  178.9950  153.2800 N.am  417  ASN417     -0.0877
    111  N        166.3540  191.0010  137.1140 N.3   461  ILE461     -0.1245
    112  CA       166.5770  190.7540  138.5300 C.3   461  ILE461      0.1561
    113  C        168.0160  191.0170  138.8510 C.2   461  ILE461      0.2260
    114  O        168.3450  191.5650  139.9170 O.2   461  ILE461     -0.2867
    115  CB       166.1450  189.3300  138.9110 C.3   461  ILE461      0.0252
    116  CG1      164.6430  189.1970  138.7430 C.3   461  ILE461      0.0019
    117  CG2      166.5700  188.9550  140.3040 C.3   461  ILE461      0.0019
    118  CD1      163.8910  190.1740  139.5790 C.3   461  ILE461      0.0001
    119  N        168.6330  194.8000  138.9630 N.3   464  HIS464     -0.1226
    120  CA       167.9500  195.4510  140.0680 C.3   464  HIS464      0.1752
    121  C        168.6910  195.2090  141.3680 C.2   464  HIS464      0.2595
    122  O        169.0180  196.1550  142.0820 O.2   464  HIS464     -0.2718
    123  CB       166.5060  194.9720  140.1560 C.3   464  HIS464      0.0759
    124  CG       165.6270  195.8190  141.0310 C.ar  464  HIS464      0.0818
    125  ND1      165.3910  195.5350  142.3610 N.ar  464  HIS464     -0.2268
    126  CD2      164.9060  196.9330  140.7520 C.ar  464  HIS464      0.1154
    127  CE1      164.5680  196.4360  142.8650 C.ar  464  HIS464      0.1986
    128  NE2      164.2580  197.2930  141.9110 N.ar  464  HIS464     -0.2212
    129  N        169.0310  193.9520  141.6520 N.am  465  VAL465     -0.1980
    130  CA       169.7170  193.6690  142.9030 C.3   465  VAL465      0.1595
    131  C        171.1530  194.1400  142.8540 C.2   465  VAL465      0.2287
    132  O        171.7200  194.5480  143.8730 O.2   465  VAL465     -0.2864
    133  CB       169.6270  192.1600  143.1760 C.3   465  VAL465      0.0276
    134  CG1      170.1800  191.8080  144.4950 C.3   465  VAL465      0.0022
    135  CG2      168.2160  191.7340  143.1410 C.3   465  VAL465      0.0022
    136  N        171.2190  197.7210  143.2870 N.3   468  THR468     -0.1218
    137  CA       170.7000  197.9140  144.6240 C.3   468  THR468      0.1862
    138  C        171.8600  197.9810  145.5870 C.2   468  THR468      0.2287
    139  O        171.8590  198.7830  146.5230 O.2   468  THR468     -0.2866
    140  CB       169.7200  196.8040  145.0030 C.3   468  THR468      0.1770
    141  OG1      168.6270  196.7930  144.0840 O.3   468  THR468     -0.2211
    142  CG2      169.1540  197.0300  146.3890 C.3   468  THR468      0.0375
@<TRIPOS>BOND
     1    26    25    1
     2    25    23   ar
     3    25    24   ar
     4    23    21   ar
     5    24    22   ar
     6   111   112    1
     7    21    20   ar
     8    22    20   ar
     9   112   113    1
    10   112   115    1
    11    20    19    1
    12   116   115    1
    13   116   118    1
    14   113   114    2
    15   115   117    1
    16   119   120    1
    17   120   123    1
    18   120   121    1
    19   123   124    1
    20    19    16    1
    21   126   124   ar
    22   126   128   ar
    23    27    28    1
    24    17    16    1
    25    17    18    2
    26   124   125   ar
    27    16    15    1
    28   121   129   am
    29   121   122    2
    30   129   130    1
    31    28    29    1
    32    28    31    1
    33   128   127   ar
    34    29    30    2
    35   125   127   ar
    36    35    36   ar
    37    35    33   ar
    38    36    34   ar
    39    15     9   am
    40    33    32   ar
    41    34    32   ar
    42   131   130    1
    43   131   132    2
    44    32    31    1
    45   130   133    1
    46    10     9    2
    47   135   133    1
    48   133   134    1
    49   136   137    1
    50     9     8    1
    51   141   140    1
    52    56    54    1
    53   137   140    1
    54   137   138    1
    55     8     7    1
    56     8    11    1
    57    55    54    1
    58   140   142    1
    59    13    11    1
    60     7     3   am
    61    49    48    1
    62    54    51    1
    63   138   139    2
    64    11    12    1
    65    47    46    2
    66     3     4    2
    67     3     2    1
    68     2     1    1
    69     2     5    1
    70    48    45    1
    71    51    50    1
    72    51    52    1
    73    46    50   am
    74    46    45    1
    75    12    14    1
    76    45    44    1
    77    52    53    2
    78    52    57   am
    79     5     6    1
    80    44    39   am
    81    43    37    1
    82    43    42    1
    83    37    38    1
    84    57    58    1
    85    61    58    1
    86    39    38    1
    87    39    40    2
    88    42    41    1
    89    38    41    1
    90    58    59    1
    91    70    69    1
    92    59    62   am
    93    59    60    2
    94    62    63    1
    95    69    68    1
    96    63    66    1
    97    63    64    1
    98    66    67    1
    99    82    81    1
   100    82    83    1
   101    67    68    1
   102    81    78    1
   103    80    79    2
   104    79    78    1
   105   105   104    1
   106   105   106    2
   107    83    85   am
   108    83    84    2
   109    64    71   am
   110    64    65    2
   111    78    77    1
   112   104   107    1
   113   104   103    1
   114    77    73   am
   115    71    72    1
   116   110   108   am
   117   107   108    1
   118   108   109    2
   119    73    72    1
   120    73    74    2
   121    72    75    1
   122    75    76    1
   123   102   100   ar
   124   101   100   ar
   125   100    99    1
   126    92    91   ar
   127    94    95    1
   128    94    88   am
   129    95    96    1
   130    95    98    1
   131    99    98    1
   132    91    93   ar
   133    91    90    1
   134    87    90    1
   135    87    88    1
   136    87    86    1
   137    96    97    2
   138    88    89    2
