@<TRIPOS>MOLECULE
tmp/6hv9E00.pdb
 104 99 0 0 0
SMALL
GASTEIGER

@<TRIPOS>ATOM
      1  N        195.0460  171.0910  170.1800 N.3   281  HIS281     -0.1241
      2  CA       193.7910  170.3340  170.1200 C.3   281  HIS281      0.1621
      3  C        193.9230  168.9910  170.8240 C.2   281  HIS281      0.2264
      4  O        195.0270  168.4600  170.9650 O.2   281  HIS281     -0.2867
      5  CB       193.4150  170.0730  168.6760 C.3   281  HIS281      0.0745
      6  CG       194.4130  169.2160  167.9840 C.ar  281  HIS281      0.0817
      7  ND1      194.2800  167.8500  167.8910 N.ar  281  HIS281     -0.2268
      8  CD2      195.6350  169.5060  167.4870 C.ar  281  HIS281      0.1154
      9  CE1      195.3360  167.3470  167.2800 C.ar  281  HIS281      0.1986
     10  NE2      196.1740  168.3330  167.0240 N.ar  281  HIS281     -0.2212
     11  N        192.3920  164.9530  170.8060 N.3   283  ILE283     -0.1231
     12  CA       191.8240  164.0080  169.8580 C.3   283  ILE283      0.1692
     13  C        190.6600  163.1300  170.3090 C.2   283  ILE283      0.2591
     14  O        189.5430  163.3200  169.8260 O.2   283  ILE283     -0.2718
     15  CB       192.9830  163.1340  169.4100 C.3   283  ILE283      0.0266
     16  CG1      194.0310  164.0540  168.8460 C.3   283  ILE283      0.0019
     17  CG2      192.5460  162.2960  168.2590 C.3   283  ILE283      0.0020
     18  CD1      195.3120  163.3830  168.6540 C.3   283  ILE283      0.0001
     19  N        190.9150  162.1580  171.2050 N.am  284  ARG284     -0.1980
     20  CA       189.9640  161.1970  171.7860 C.3   284  ARG284      0.1597
     21  C        190.6590  160.3520  172.8440 C.2   284  ARG284      0.2287
     22  O        191.7910  159.9350  172.6330 O.2   284  ARG284     -0.2864
     23  CB       189.3290  160.2820  170.7250 C.3   284  ARG284      0.0334
     24  CG       188.2170  159.3930  171.2480 C.3   284  ARG284      0.0492
     25  CD       187.4900  158.6850  170.1370 C.3   284  ARG284      0.2205
     26  NE       186.7800  159.7020  169.3610 N.pl3 284  ARG284     -0.0865
     27  CZ       187.0450  160.0100  168.0980 C.cat 284  ARG284      0.5346
     28  NH1      186.3530  160.9530  167.4830 N.pl3 284  ARG284      0.1354
     29  NH2      187.9750  159.3460  167.4410 N.pl3 284  ARG284      0.1354
     30  N        176.2750  158.6990  170.7370 N.3   361  HIS361     -0.1226
     31  CA       176.9160  159.2080  169.5380 C.3   361  HIS361      0.1752
     32  C        177.9600  160.2590  169.8830 C.2   361  HIS361      0.2595
     33  O        179.1680  160.1140  169.6050 O.2   361  HIS361     -0.2718
     34  CB       175.7330  159.8310  168.7970 C.3   361  HIS361      0.0759
     35  CG       175.9780  160.3780  167.4430 C.ar  361  HIS361      0.0818
     36  ND1      175.9960  159.5840  166.3210 N.ar  361  HIS361     -0.2268
     37  CD2      176.1280  161.6490  167.0120 C.ar  361  HIS361      0.1154
     38  CE1      176.1380  160.3430  165.2530 C.ar  361  HIS361      0.1986
     39  NE2      176.2440  161.5990  165.6470 N.ar  361  HIS361     -0.2212
     40  N        177.5280  161.2530  170.6190 N.am  362  GLU362     -0.1979
     41  CA       178.4250  162.3270  170.9450 C.3   362  GLU362      0.1602
     42  C        179.4380  161.9940  172.0230 C.2   362  GLU362      0.2287
     43  O        180.5930  162.4600  171.9650 O.2   362  GLU362     -0.2864
     44  CB       177.5810  163.4780  171.3870 C.3   362  GLU362      0.0415
     45  CG       178.3330  164.6460  171.4460 C.3   362  GLU362      0.1163
     46  CD       178.6480  165.1450  170.0880 C.2   362  GLU362      0.3649
     47  OE1      177.8430  164.9290  169.1520 O.co2 362  GLU362     -0.2457
     48  OE2      179.7350  165.7200  169.9430 O.co2 362  GLU362     -0.2457
     49  N        182.2920  160.0070  170.6270 N.3   365  GLU365     -0.1231
     50  CA       183.1370  160.6450  169.6300 C.3   365  GLU365      0.1699
     51  C        184.0500  161.7130  170.2120 C.2   365  GLU365      0.2592
     52  O        185.2730  161.5990  170.1290 O.2   365  GLU365     -0.2718
     53  CB       182.2980  161.2300  168.5100 C.3   365  GLU365      0.0402
     54  CG       183.1310  161.9100  167.4570 C.3   365  GLU365      0.1161
     55  CD       182.3070  162.3480  166.2840 C.2   365  GLU365      0.3649
     56  OE1      181.7480  161.4650  165.6040 O.co2 365  GLU365     -0.2457
     57  OE2      182.2210  163.5640  166.0380 O.co2 365  GLU365     -0.2457
     58  N        183.4790  162.7890  170.7580 N.am  366  GLN366     -0.1979
     59  CA       184.3090  163.8970  171.2190 C.3   366  GLN366      0.1601
     60  C        183.9750  164.4910  172.5770 C.2   366  GLN366      0.2287
     61  O        184.5150  165.5530  172.9000 O.2   366  GLN366     -0.2864
     62  CB       184.3080  164.9300  170.1190 C.3   366  GLN366      0.0394
     63  CG       182.9390  165.3330  169.8000 C.3   366  GLN366      0.0908
     64  CD       182.9110  166.3410  168.7310 C.2   366  GLN366      0.2608
     65  OE1      183.9490  166.8040  168.3120 O.2   366  GLN366     -0.2717
     66  NE2      181.7400  166.6150  168.1960 N.am  366  GLN366     -0.0878
     67  N        181.6030  154.5680  165.3330 N.3   415  ARG415     -0.1245
     68  CA       182.0580  155.0250  166.6360 C.3   415  ARG415      0.1563
     69  C        182.7750  153.9090  167.3920 C.2   415  ARG415      0.2260
     70  O        183.6450  154.1660  168.2260 O.2   415  ARG415     -0.2867
     71  CB       180.8710  155.4410  167.4920 C.3   415  ARG415      0.0307
     72  CG       180.0410  156.6350  167.1210 C.3   415  ARG415      0.0489
     73  CD       180.8270  157.8900  167.3070 C.3   415  ARG415      0.2205
     74  NE       180.0090  159.0590  167.0730 N.pl3 415  ARG415     -0.0865
     75  CZ       179.8760  159.6270  165.8920 C.cat 415  ARG415      0.5346
     76  NH1      180.4950  159.1110  164.8540 N.pl3 415  ARG415      0.1354
     77  NH2      179.1460  160.7080  165.7550 N.pl3 415  ARG415      0.1354
     78  N        189.1570  155.1850  159.7930 N.3   492  VAL492     -0.1231
     79  CA       190.2550  156.1030  160.0360 C.3   492  VAL492      0.1692
     80  C        190.4310  156.3190  161.5100 C.2   492  VAL492      0.2591
     81  O        191.5050  156.6970  161.9720 O.2   492  VAL492     -0.2718
     82  CB       190.0450  157.4110  159.2750 C.3   492  VAL492      0.0266
     83  CG1      190.0240  157.1260  157.8230 C.3   492  VAL492      0.0020
     84  CG2      188.7390  157.9670  159.6260 C.3   492  VAL492      0.0020
     85  N        189.3700  156.0960  162.2670 N.am  493  ARG493     -0.1980
     86  CA       189.4570  156.2360  163.6960 C.3   493  ARG493      0.1597
     87  C        190.2210  155.0790  164.2460 C.2   493  ARG493      0.2287
     88  O        190.8580  155.2040  165.2940 O.2   493  ARG493     -0.2864
     89  CB       188.0560  156.3200  164.2820 C.3   493  ARG493      0.0334
     90  CG       187.3810  157.5490  163.7430 C.3   493  ARG493      0.0492
     91  CD       185.9460  157.8020  164.1210 C.3   493  ARG493      0.2205
     92  NE       185.7360  158.0810  165.5290 N.pl3 493  ARG493     -0.0865
     93  CZ       184.5260  158.2140  166.0520 C.cat 493  ARG493      0.5346
     94  NH1      184.3650  158.4740  167.3400 N.pl3 493  ARG493      0.1354
     95  NH2      183.4680  158.0820  165.2660 N.pl3 493  ARG493      0.1354
     96  N        193.6930  155.9320  164.8930 N.3   496  GLU496     -0.1245
     97  CA       194.0150  156.5210  166.1850 C.3   496  GLU496      0.1567
     98  C        193.9010  155.4680  167.2800 C.2   496  GLU496      0.2260
     99  O        194.5940  155.5390  168.3100 O.2   496  GLU496     -0.2867
    100  CB       193.1040  157.7130  166.4590 C.3   496  GLU496      0.0388
    101  CG       193.1520  158.6900  165.2910 C.3   496  GLU496      0.1160
    102  CD       194.3880  159.5470  165.2350 C.2   496  GLU496      0.3649
    103  OE1      195.2290  159.3990  166.1250 O.co2 496  GLU496     -0.2457
    104  OE2      194.5220  160.3820  164.2880 O.co2 496  GLU496     -0.2457
@<TRIPOS>BOND
     1    83    82    1
     2    82    84    1
     3    82    79    1
     4    78    79    1
     5    79    80    1
     6    80    81    2
     7    80    85   am
     8    85    86    1
     9    86    87    1
    10    86    89    1
    11    90    91    1
    12    90    89    1
    13    91    92    1
    14    87    88    2
    15   104   102   ar
    16    76    75    1
    17    96    97    1
    18   102   101    1
    19   102   103   ar
    20    38    39   ar
    21    38    36   ar
    22    95    93    1
    23   101   100    1
    24    67    68    1
    25    92    93    2
    26    56    55   ar
    27    39    37   ar
    28    77    75    1
    29    75    74    2
    30    57    55   ar
    31    93    94    1
    32    97   100    1
    33    97    98    1
    34    55    54    1
    35    36    35   ar
    36    68    69    1
    37    68    71    1
    38    37    35   ar
    39    10     9   ar
    40    10     8   ar
    41    74    73    1
    42    72    73    1
    43    72    71    1
    44    98    99    2
    45     9     7   ar
    46    69    70    2
    47    29    27    1
    48    35    34    1
    49    54    53    1
    50    28    27    1
    51     8     6   ar
    52     7     6   ar
    53     6     5    1
    54    27    26    2
    55    66    64   am
    56    17    15    1
    57    65    64    2
    58    53    50    1
    59    18    16    1
    60     5     2    1
    61    64    63    1
    62    34    31    1
    63    16    15    1
    64    47    46   ar
    65    26    25    1
    66    15    12    1
    67    31    32    1
    68    31    30    1
    69    33    32    2
    70    50    51    1
    71    50    49    1
    72    63    62    1
    73    14    13    2
    74    12    13    1
    75    12    11    1
    76    32    40   am
    77    48    46   ar
    78    46    45    1
    79    62    59    1
    80     2     1    1
    81     2     3    1
    82    52    51    2
    83    25    24    1
    84    51    58   am
    85    13    19   am
    86    40    41    1
    87    23    24    1
    88    23    20    1
    89    58    59    1
    90     3     4    2
    91    41    44    1
    92    41    42    1
    93    19    20    1
    94    59    60    1
    95    44    45    1
    96    20    21    1
    97    43    42    2
    98    60    61    2
    99    22    21    2
