@<TRIPOS>MOLECULE
tmp/6hv9C00.pdb
 159 155 0 0 0
SMALL
GASTEIGER

@<TRIPOS>ATOM
      1  N        195.9900  170.9700  162.4300 N.3   267  SER267     -0.1202
      2  CA       195.8330  169.5830  162.7590 C.3   267  SER267      0.2020
      3  C        195.1570  168.8220  161.6460 C.2   267  SER267      0.2619
      4  O        195.1950  167.5960  161.6620 O.2   267  SER267     -0.2717
      5  CB       195.0280  169.4260  164.0370 C.3   267  SER267      0.2103
      6  OG       194.8050  168.0620  164.3200 O.3   267  SER267     -0.2182
      7  N        194.5400  169.4990  160.6800 N.am  268  ILE268     -0.1965
      8  CA       193.7900  168.8030  159.6440 C.3   268  ILE268      0.1727
      9  C        194.3420  169.0370  158.2590 C.2   268  ILE268      0.2616
     10  O        194.4060  170.1720  157.7750 O.2   268  ILE268     -0.2715
     11  CB       192.3060  169.1890  159.6330 C.3   268  ILE268      0.0290
     12  CG1      191.5980  168.7570  160.9050 C.3   268  ILE268      0.0022
     13  CG2      191.6020  168.4780  158.4960 C.3   268  ILE268      0.0023
     14  CD1      191.4990  169.8150  161.9840 C.3   268  ILE268      0.0001
     15  N        194.7090  167.9400  157.6270 N.am  269  PHE269     -0.1974
     16  CA       195.2090  167.8730  156.2790 C.3   269  PHE269      0.1639
     17  C        194.0430  167.7370  155.3350 C.2   269  PHE269      0.2290
     18  O        193.0600  167.0640  155.6370 O.2   269  PHE269     -0.2864
     19  CB       196.0970  166.6520  156.1080 C.3   269  PHE269      0.0560
     20  CG       196.6010  166.4650  154.7280 C.ar  269  PHE269     -0.0200
     21  CD1      197.6210  167.2200  154.2320 C.ar  269  PHE269     -0.0042
     22  CD2      195.9910  165.5320  153.9010 C.ar  269  PHE269     -0.0042
     23  CE1      198.0510  167.0310  152.9380 C.ar  269  PHE269     -0.0003
     24  CE2      196.3940  165.3470  152.6280 C.ar  269  PHE269     -0.0003
     25  CZ       197.4320  166.0890  152.1370 C.ar  269  PHE269     -0.0000
     26  N        180.1580  162.0520  154.9480 N.3   307  ASP307     -0.1225
     27  CA       180.4600  160.7850  155.5590 C.3   307  ASP307      0.1790
     28  C        181.1910  160.9330  156.8840 C.2   307  ASP307      0.2440
     29  O        181.9980  161.8410  157.0750 O.2   307  ASP307     -0.2733
     30  CB       181.2510  159.9900  154.5610 C.3   307  ASP307      0.1423
     31  CG       180.4260  159.7320  153.3760 C.2   307  ASP307      0.3668
     32  OD1      179.2180  159.6400  153.6130 O.co2 307  ASP307     -0.2456
     33  OD2      180.9360  159.6890  152.2420 O.co2 307  ASP307     -0.2456
     34  N        180.9310  160.0320  157.8070 N.am  308  PRO308     -0.2718
     35  CA       181.5680  160.1110  159.1120 C.3   308  PRO308      0.1535
     36  C        183.0320  159.7660  159.1000 C.2   308  PRO308      0.2599
     37  O        183.5540  159.1460  158.1770 O.2   308  PRO308     -0.2715
     38  CB       180.7970  159.0820  159.9250 C.3   308  PRO308      0.0310
     39  CG       180.3190  158.1360  158.9230 C.3   308  PRO308      0.0237
     40  CD       180.0120  158.8940  157.7150 C.3   308  PRO308      0.0939
     41  N        183.6890  160.2180  160.1570 N.am  309  GLY309     -0.1941
     42  CA       185.1040  160.0340  160.3570 C.3   309  GLY309      0.2014
     43  C        185.9340  161.1590  159.7960 C.2   309  GLY309      0.2640
     44  O        187.1530  161.1790  159.9860 O.2   309  GLY309     -0.2714
     45  N        185.3030  162.1190  159.1580 N.am  310  THR310     -0.1936
     46  CA       185.9960  163.2310  158.5430 C.3   310  THR310      0.2028
     47  C        186.6630  164.1870  159.5290 C.2   310  THR310      0.2642
     48  O        187.5550  164.9350  159.1130 O.2   310  THR310     -0.2714
     49  CB       184.9540  163.9300  157.6660 C.3   310  THR310      0.1808
     50  OG1      184.2980  162.9340  156.8730 O.3   310  THR310     -0.2208
     51  CG2      185.5660  164.9200  156.7170 C.3   310  THR310      0.0379
     52  N        186.2890  164.1470  160.8160 N.am  311  ALA311     -0.1963
     53  CA       186.7360  165.1040  161.8450 C.3   311  ALA311      0.1728
     54  C        186.3140  166.5160  161.5190 C.2   311  ALA311      0.2616
     55  O        187.0070  167.4670  161.8910 O.2   311  ALA311     -0.2715
     56  CB       188.2290  165.1750  162.1200 C.3   311  ALA311      0.0334
     57  N        185.1440  166.6740  160.8910 N.am  312  LYS312     -0.1963
     58  CA       184.6190  168.0040  160.6610 C.3   312  LYS312      0.1728
     59  C        184.2380  168.6040  162.0060 C.2   312  LYS312      0.2617
     60  O        184.1330  169.8280  162.1430 O.2   312  LYS312     -0.2715
     61  CB       183.4400  167.9000  159.7170 C.3   312  LYS312      0.0311
     62  CG       182.3500  167.0520  160.2490 C.3   312  LYS312      0.0038
     63  CD       181.2560  166.8610  159.2830 C.3   312  LYS312      0.0206
     64  CE       180.1230  166.0210  159.9020 C.3   312  LYS312      0.1093
     65  NZ       180.2590  164.6000  160.2870 N.3   312  LYS312     -0.1314
     66  N        184.0530  167.7200  162.9930 N.am  313  SER313     -0.1936
     67  CA       183.8020  168.0620  164.3770 C.3   313  SER313      0.2055
     68  C        184.9570  168.8540  164.9710 C.2   313  SER313      0.2642
     69  O        184.7470  169.8990  165.6060 O.2   313  SER313     -0.2714
     70  CB       183.6190  166.7700  165.1870 C.3   313  SER313      0.2130
     71  OG       182.5300  165.9460  164.7930 O.3   313  SER313     -0.2179
     72  N        186.1940  168.3910  164.7450 N.am  314  GLN314     -0.1976
     73  CA       187.3400  169.1260  165.2630 C.3   314  GLN314      0.1601
     74  C        187.4340  170.5030  164.6120 C.2   314  GLN314      0.2287
     75  O        187.7670  171.5050  165.2730 O.2   314  GLN314     -0.2864
     76  CB       188.6140  168.3310  165.0610 C.3   314  GLN314      0.0394
     77  CG       189.7640  169.0550  165.6390 C.3   314  GLN314      0.0908
     78  CD       191.0130  168.3410  165.4440 C.2   314  GLN314      0.2608
     79  OE1      191.0210  167.2770  164.8610 O.2   314  GLN314     -0.2717
     80  NE2      192.1110  168.9490  165.8340 N.am  314  GLN314     -0.0878
     81  N        174.8060  167.9790  164.2260 N.3   369  GLU369     -0.1245
     82  CA       173.6990  167.0610  164.0980 C.3   369  GLU369      0.1567
     83  C        172.4810  167.7640  163.5250 C.2   369  GLU369      0.2260
     84  O        171.4710  167.9390  164.1860 O.2   369  GLU369     -0.2867
     85  CB       173.4000  166.3920  165.4420 C.3   369  GLU369      0.0388
     86  CG       174.6120  165.6480  166.0590 C.3   369  GLU369      0.1160
     87  CD       174.4290  165.0210  167.4080 C.2   369  GLU369      0.3649
     88  OE1      173.4760  165.1800  168.1200 O.co2 369  GLU369     -0.2457
     89  OE2      175.3670  164.2910  167.7720 O.co2 369  GLU369     -0.2457
     90  N        169.6260  165.3180  163.4110 N.3   372  LYS372     -0.1245
     91  CA       169.1670  164.7770  164.6810 C.3   372  LYS372      0.1561
     92  C        168.3560  165.7920  165.4520 C.2   372  LYS372      0.2260
     93  O        168.3220  165.7330  166.6850 O.2   372  LYS372     -0.2867
     94  CB       170.3560  164.4220  165.5720 C.3   372  LYS372      0.0271
     95  CG       171.1010  163.1200  165.4160 C.3   372  LYS372      0.0035
     96  CD       172.1230  163.2060  164.2730 C.3   372  LYS372      0.0206
     97  CE       173.0180  161.9770  164.2200 C.3   372  LYS372      0.1093
     98  NZ       173.9420  162.0260  163.0720 N.3   372  LYS372     -0.1314
     99  N        176.8840  170.9830  160.4120 N.3   410  ALA410     -0.1231
    100  CA       177.6790  169.7450  160.2840 C.3   410  ALA410      0.1694
    101  C        176.7220  168.5500  160.3730 C.2   410  ALA410      0.2592
    102  O        176.4960  168.0120  161.4570 O.2   410  ALA410     -0.2718
    103  CB       178.7400  169.6670  161.3680 C.3   410  ALA410      0.0304
    104  N        176.1860  168.1400  159.2200 N.am  411  ALA411     -0.1966
    105  CA       175.2360  167.0370  159.0890 C.3   411  ALA411      0.1728
    106  C        175.8620  165.6920  158.7230 C.2   411  ALA411      0.2616
    107  O        177.0650  165.5540  158.4840 O.2   411  ALA411     -0.2715
    108  CB       174.1600  167.3690  158.0550 C.3   411  ALA411      0.0334
    109  N        174.9880  164.6850  158.6810 N.am  412  ASN412     -0.1972
    110  CA       175.1900  163.2990  158.2960 C.3   412  ASN412      0.1688
    111  C        173.9710  162.7990  157.5430 C.2   412  ASN412      0.2292
    112  O        172.8710  162.7730  158.0910 O.2   412  ASN412     -0.2864
    113  CB       175.4760  162.4320  159.5040 C.3   412  ASN412      0.1181
    114  CG       176.8190  162.7020  160.0640 C.2   412  ASN412      0.2629
    115  OD1      177.7750  162.8630  159.3240 O.2   412  ASN412     -0.2716
    116  ND2      176.9090  162.8000  161.3690 N.am  412  ASN412     -0.0877
    117  N        198.1930  160.7720  154.7050 N.3   456  ILE456     -0.1245
    118  CA       197.2700  161.1000  155.7730 C.3   456  ILE456      0.1561
    119  C        197.5300  160.2120  156.9560 C.2   456  ILE456      0.2260
    120  O        197.1950  160.5520  158.0960 O.2   456  ILE456     -0.2867
    121  CB       195.8260  161.0570  155.2450 C.3   456  ILE456      0.0252
    122  CG1      194.8940  161.7310  156.2270 C.3   456  ILE456      0.0019
    123  CG2      195.3380  159.6990  155.0660 C.3   456  ILE456      0.0019
    124  CD1      195.1580  163.1550  156.3920 C.3   456  ILE456      0.0001
    125  N        201.0340  161.5860  158.3840 N.3   459  HIS459     -0.1226
    126  CA       200.7910  162.9320  158.8350 C.3   459  HIS459      0.1752
    127  C        200.1170  162.8970  160.1870 C.2   459  HIS459      0.2595
    128  O        200.4490  163.6910  161.0640 O.2   459  HIS459     -0.2718
    129  CB       199.9790  163.6930  157.7940 C.3   459  HIS459      0.0759
    130  CG       199.6940  165.1130  158.1630 C.ar  459  HIS459      0.0818
    131  ND1      198.5740  165.4990  158.8620 N.ar  459  HIS459     -0.2268
    132  CD2      200.4170  166.2360  157.9640 C.ar  459  HIS459      0.1154
    133  CE1      198.5990  166.8060  159.0400 C.ar  459  HIS459      0.1986
    134  NE2      199.7160  167.2730  158.5210 N.ar  459  HIS459     -0.2212
    135  N        199.2890  161.8920  160.4340 N.am  460  VAL460     -0.1980
    136  CA       198.5460  161.9130  161.6750 C.3   460  VAL460      0.1595
    137  C        199.3410  161.2360  162.7620 C.2   460  VAL460      0.2287
    138  O        199.2080  161.5950  163.9380 O.2   460  VAL460     -0.2864
    139  CB       197.1860  161.2390  161.4690 C.3   460  VAL460      0.0276
    140  CG1      196.5100  160.9620  162.8240 C.3   460  VAL460      0.0022
    141  CG2      196.2960  162.1050  160.5870 C.3   460  VAL460      0.0022
    142  N        201.3350  163.8250  163.9590 N.3   463  ILE463     -0.1231
    143  CA       200.5790  164.7080  164.8350 C.3   463  ILE463      0.1692
    144  C        200.5500  164.1390  166.2390 C.2   463  ILE463      0.2592
    145  O        200.7920  164.8630  167.2100 O.2   463  ILE463     -0.2718
    146  CB       199.1660  164.9590  164.2940 C.3   463  ILE463      0.0266
    147  CG1      199.2280  165.7750  163.0130 C.3   463  ILE463      0.0019
    148  CG2      198.2860  165.6300  165.3290 C.3   463  ILE463      0.0020
    149  CD1      197.9110  165.8890  162.3070 C.3   463  ILE463      0.0001
    150  N        200.2530  162.8480  166.3770 N.am  464  HIS464     -0.1976
    151  CA       200.2330  162.2690  167.7160 C.3   464  HIS464      0.1656
    152  C        201.6350  162.2690  168.3180 C.2   464  HIS464      0.2291
    153  O        201.8990  162.9150  169.3330 O.2   464  HIS464     -0.2864
    154  CB       199.6810  160.8320  167.7260 C.3   464  HIS464      0.0771
    155  CG       198.1850  160.6760  167.5680 C.ar  464  HIS464      0.0820
    156  ND1      197.5660  160.5550  166.3420 N.ar  464  HIS464     -0.2267
    157  CD2      197.2160  160.4360  168.4870 C.ar  464  HIS464      0.1154
    158  CE1      196.2710  160.3400  166.5160 C.ar  464  HIS464      0.1986
    159  NE2      196.0340  160.2580  167.8110 N.ar  464  HIS464     -0.2212
@<TRIPOS>BOND
     1    25    24   ar
     2    25    23   ar
     3    33    31   ar
     4    24    22   ar
     5    23    21   ar
     6    31    32   ar
     7    31    30    1
     8    22    20   ar
     9    21    20   ar
    10    30    27    1
    11   117   118    1
    12    20    19    1
    13    26    27    1
    14   123   121    1
    15   121   118    1
    16   121   122    1
    17    17    18    2
    18    17    16    1
    19    27    28    1
    20   118   119    1
    21    19    16    1
    22   122   124    1
    23    16    15    1
    24    51    49    1
    25    50    49    1
    26    28    29    2
    27    28    34   am
    28   119   120    2
    29   111   112    2
    30   111   110    1
    31    15     9   am
    32    49    46    1
    33    40    34    1
    34    40    39    1
    35    10     9    2
    36   129   130    1
    37   129   126    1
    38    34    35    1
    39   132   130   ar
    40   132   134   ar
    41   108   105    1
    42   130   131   ar
    43    37    36    2
    44     9     8    1
    45   110   109    1
    46   110   113    1
    47   125   126    1
    48   107   106    2
    49    13    11    1
    50   134   133   ar
    51    46    45    1
    52    46    47    1
    53   109   106   am
    54   106   105    1
    55   126   127    1
    56   131   133   ar
    57    39    38    1
    58   105   104    1
    59    36    35    1
    60    36    41   am
    61    35    38    1
    62    48    47    2
    63    45    43   am
    64   104   101   am
    65    63    64    1
    66    63    62    1
    67   115   114    2
    68   113   114    1
    69    47    52   am
    70    11     8    1
    71    11    12    1
    72     8     7    1
    73    61    62    1
    74    61    58    1
    75    43    44    2
    76    43    42    1
    77    64    65    1
    78   114   116   am
    79    41    42    1
    80   127   135   am
    81   127   128    2
    82   100   101    1
    83   100    99    1
    84   100   103    1
    85   101   102    2
    86   135   136    1
    87   141   139    1
    88    58    57    1
    89    58    59    1
    90     7     3   am
    91    52    53    1
    92    57    54   am
    93    12    14    1
    94   139   136    1
    95   139   140    1
    96    54    53    1
    97    54    55    2
    98     3     4    2
    99     3     2    1
   100   136   137    1
   101    53    56    1
   102    59    60    2
   103    59    66   am
   104   149   147    1
   105     1     2    1
   106     2     5    1
   107   137   138    2
   108    66    67    1
   109   147   146    1
   110    98    97    1
   111    90    91    1
   112    83    82    1
   113    83    84    2
   114   142   143    1
   115     5     6    1
   116    82    81    1
   117    82    85    1
   118    97    96    1
   119    96    95    1
   120   146   143    1
   121   146   148    1
   122    67    68    1
   123    67    70    1
   124    74    73    1
   125    74    75    2
   126    91    92    1
   127    91    94    1
   128    72    68   am
   129    72    73    1
   130    71    70    1
   131   143   144    1
   132    79    78    2
   133    68    69    2
   134    76    73    1
   135    76    77    1
   136    95    94    1
   137    85    86    1
   138    78    77    1
   139    78    80   am
   140    92    93    2
   141    86    87    1
   142   144   150   am
   143   144   145    2
   144   156   158   ar
   145   156   155   ar
   146   150   151    1
   147   158   159   ar
   148    87    89   ar
   149    87    88   ar
   150   155   154    1
   151   155   157   ar
   152   151   154    1
   153   151   152    1
   154   159   157   ar
   155   152   153    2
