@<TRIPOS>MOLECULE
tmp/6hvdA00.pdb
 128 119 0 0 0
SMALL
GASTEIGER

@<TRIPOS>ATOM
      1  N         10.0920   97.5130    1.5500 N.3    23  LEU23      -0.1231
      2  CA        11.0480   96.4240    1.6170 C.3    23  LEU23       0.1693
      3  C         10.6080   95.1980    0.8290 C.2    23  LEU23       0.2593
      4  O         11.4620   94.4060    0.4260 O.2    23  LEU23      -0.2718
      5  CB        11.2970   96.0160    3.0790 C.3    23  LEU23       0.0284
      6  CG        11.9920   97.0640    3.9340 C.3    23  LEU23       0.0019
      7  CD1       12.2340   96.5470    5.3640 C.3    23  LEU23       0.0001
      8  CD2       13.2900   97.5580    3.3090 C.3    23  LEU23       0.0001
      9  N          9.3150   95.0360    0.5980 N.am   24  GLY24      -0.1942
     10  CA         8.8210   93.9380   -0.2020 C.3    24  GLY24       0.2014
     11  C          7.3830   93.6360    0.1650 C.2    24  GLY24       0.2639
     12  O          6.7460   94.3770    0.9000 O.2    24  GLY24      -0.2714
     13  N          6.8870   92.5350   -0.3840 N.am   25  ASP25      -0.1957
     14  CA         5.5270   92.0710   -0.1680 C.3    25  ASP25       0.1840
     15  C          5.5700   90.6580    0.4080 C.2    25  ASP25       0.2622
     16  O          6.6180   90.0080    0.4540 O.2    25  ASP25      -0.2715
     17  CB         4.7120   92.1090   -1.4660 C.3    25  ASP25       0.1450
     18  CG         3.2390   92.4350   -1.2250 C.2    25  ASP25       0.3671
     19  OD1        2.6030   91.7800   -0.3660 O.co2  25  ASP25      -0.2456
     20  OD2        2.7160   93.3530   -1.8910 O.co2  25  ASP25      -0.2456
     21  N          4.4160   90.1870    0.8620 N.am   26  GLY26      -0.1954
     22  CA         4.3410   88.8600    1.4380 C.3    26  GLY26       0.1869
     23  C          2.9270   88.5260    1.8610 C.2    26  GLY26       0.2309
     24  O          1.9670   89.2360    1.5380 O.2    26  GLY26      -0.2863
     25  N          5.5580   95.3430    3.3200 N.3    31  VAL31      -0.1245
     26  CA         6.4290   95.6420    4.4560 C.3    31  VAL31       0.1561
     27  C          7.2290   96.8850    4.1080 C.2    31  VAL31       0.2260
     28  O          7.8890   96.9320    3.0540 O.2    31  VAL31      -0.2867
     29  CB         7.3820   94.4800    4.7730 C.3    31  VAL31       0.0252
     30  CG1        8.3140   94.8710    5.9140 C.3    31  VAL31       0.0019
     31  CG2        6.6140   93.2140    5.0850 C.3    31  VAL31       0.0019
     32  N         11.8930   97.6910    9.8460 N.3    44  ALA44      -0.1245
     33  CA        10.9190   97.0930    8.9580 C.3    44  ALA44       0.1562
     34  C          9.5650   97.2100    9.6200 C.2    44  ALA44       0.2260
     35  O          9.4290   97.0110   10.8380 O.2    44  ALA44      -0.2867
     36  CB        11.2470   95.6230    8.7030 C.3    44  ALA44       0.0290
     37  N          5.7720   95.8970    9.3800 N.3    46  LYS46      -0.1245
     38  CA         4.6250   95.1440    8.9060 C.3    46  LYS46       0.1561
     39  C          3.3740   95.9220    9.2340 C.2    46  LYS46       0.2260
     40  O          3.2530   96.4940   10.3290 O.2    46  LYS46      -0.2867
     41  CB         4.5150   93.7770    9.5790 C.3    46  LYS46       0.0271
     42  CG         5.4890   92.7400    9.1340 C.3    46  LYS46       0.0035
     43  CD         5.0560   91.3570    9.6910 C.3    46  LYS46       0.0206
     44  CE         6.0200   90.2820    9.1910 C.3    46  LYS46       0.1093
     45  NZ         5.5740   88.9110    9.5940 N.3    46  LYS46      -0.1314
     46  N         16.0030   89.0750   15.0270 N.3    75  VAL75      -0.1245
     47  CA        15.5580   90.4630   14.9790 C.3    75  VAL75       0.1561
     48  C         14.7340   90.7770   16.2170 C.2    75  VAL75       0.2260
     49  O         13.9100   89.9640   16.6850 O.2    75  VAL75      -0.2867
     50  CB        14.7360   90.7420   13.7080 C.3    75  VAL75       0.0252
     51  CG1       15.5640   90.6840   12.4400 C.3    75  VAL75       0.0019
     52  CG2       13.5220   89.8090   13.5770 C.3    75  VAL75       0.0019
     53  N         10.0700   96.2890   13.4640 N.3    91  ILE91      -0.1231
     54  CA        11.0520   95.2600   13.7040 C.3    91  ILE91       0.1692
     55  C         12.4210   95.7680   13.3030 C.2    91  ILE91       0.2592
     56  O         12.5660   96.5290   12.3480 O.2    91  ILE91      -0.2718
     57  CB        10.6950   93.9650   12.9180 C.3    91  ILE91       0.0266
     58  CG1        9.2560   93.5870   13.1700 C.3    91  ILE91       0.0019
     59  CG2       11.6350   92.8310   13.2980 C.3    91  ILE91       0.0020
     60  CD1        8.7080   92.4630   12.2940 C.3    91  ILE91       0.0001
     61  N         13.4300   95.3170   14.0380 N.am   92  GLU92      -0.1966
     62  CA        14.8220   95.7010   13.7920 C.3    92  GLU92       0.1733
     63  C         15.1950   95.5620   12.3220 C.2    92  GLU92       0.2616
     64  O         14.9710   94.5180   11.7000 O.2    92  GLU92      -0.2715
     65  CB        15.7290   94.8100   14.6560 C.3    92  GLU92       0.0429
     66  CG        17.1920   95.0980   14.5860 C.3    92  GLU92       0.1163
     67  CD        17.9660   94.3000   15.6100 C.2    92  GLU92       0.3649
     68  OE1       17.4630   93.2160   16.0510 O.co2  92  GLU92      -0.2457
     69  OE2       19.0630   94.7550   16.0030 O.co2  92  GLU92      -0.2457
     70  N         15.7980   96.6190   11.7700 N.am   93  PHE93      -0.1960
     71  CA        16.1660   96.6400   10.3620 C.3    93  PHE93       0.1771
     72  C         17.5860   96.1000   10.1600 C.2    93  PHE93       0.2619
     73  O         18.5170   96.4620   10.8960 O.2    93  PHE93      -0.2715
     74  CB        16.0900   98.0730    9.8320 C.3    93  PHE93       0.0574
     75  CG        16.4250   98.2150    8.3650 C.ar   93  PHE93      -0.0200
     76  CD1       15.6130   97.7070    7.4050 C.ar   93  PHE93      -0.0042
     77  CD2       17.5710   98.8910    7.9740 C.ar   93  PHE93      -0.0042
     78  CE1       15.9380   97.8380    6.0500 C.ar   93  PHE93      -0.0003
     79  CE2       17.8720   99.0650    6.6430 C.ar   93  PHE93      -0.0003
     80  CZ        17.0630   98.4950    5.6890 C.ar   93  PHE93      -0.0000
     81  N         17.7530   95.2770    9.1260 N.am   94  CYS94      -0.1968
     82  CA        19.0450   94.7320    8.7360 C.3    94  CYS94       0.1712
     83  C         19.3660   95.2220    7.3330 C.2    94  CYS94       0.2296
     84  O         18.7320   94.7880    6.3620 O.2    94  CYS94      -0.2864
     85  CB        18.9950   93.1980    8.7810 C.3    94  CYS94       0.0983
     86  SG        18.7810   92.5890   10.4250 S.3    94  CYS94      -0.0798
     87  N         20.0420   93.1700    3.7840 N.3    97  GLY97      -0.1210
     88  CA        18.9970   92.5370    3.0100 C.3    97  GLY97       0.1956
     89  C         18.9880   91.0310    3.1860 C.2    97  GLY97       0.2611
     90  O         19.8050   90.4340    3.8770 O.2    97  GLY97      -0.2717
     91  N         18.0410   90.4170    2.5250 N.am   98  ALA98      -0.1979
     92  CA        17.8460   88.9850    2.6760 C.3    98  ALA98       0.1597
     93  C         18.8380   88.2260    1.8170 C.2    98  ALA98       0.2287
     94  O         19.3000   88.7040    0.7780 O.2    98  ALA98      -0.2864
     95  CB        16.4210   88.5740    2.2750 C.3    98  ALA98       0.0319
     96  N         15.3330   83.4670    2.2920 N.3   142  GLY142     -0.1210
     97  CA        14.5660   84.7090    2.2890 C.3   142  GLY142      0.1956
     98  C         14.2700   85.3000    3.6580 C.2   142  GLY142      0.2611
     99  O         13.9010   86.4820    3.7370 O.2   142  GLY142     -0.2717
    100  N         14.3830   84.5100    4.7090 N.am  143  ASN143     -0.1974
    101  CA        14.1360   84.8980    6.0930 C.3   143  ASN143      0.1688
    102  C         15.4000   85.0180    6.9040 C.2   143  ASN143      0.2292
    103  O         15.3490   85.1370    8.1380 O.2   143  ASN143     -0.2864
    104  CB        13.1130   83.9660    6.7390 C.3   143  ASN143      0.1181
    105  CG        11.7180   84.2580    6.2240 C.2   143  ASN143      0.2629
    106  OD1       11.4700   85.3620    5.7380 O.2   143  ASN143     -0.2716
    107  ND2       10.8220   83.2720    6.2750 N.am  143  ASN143     -0.0877
    108  N         18.6700   87.5310    7.1940 N.3   145  LEU145     -0.1245
    109  CA        19.0750   88.8950    6.8490 C.3   145  LEU145      0.1561
    110  C         20.5310   89.1340    7.1930 C.2   145  LEU145      0.2260
    111  O         20.9880   88.7180    8.2600 O.2   145  LEU145     -0.2867
    112  CB        18.2300   89.9000    7.6460 C.3   145  LEU145      0.0270
    113  CG        16.7240   89.8800    7.4390 C.3   145  LEU145      0.0019
    114  CD1       16.0320   90.8550    8.3820 C.3   145  LEU145      0.0001
    115  CD2       16.4230   90.2270    5.9950 C.3   145  LEU145      0.0001
    116  N         14.6600   86.2930   10.6600 N.3   155  ALA155     -0.1231
    117  CA        13.5000   87.1590   10.5900 C.3   155  ALA155      0.1694
    118  C         12.2570   86.4090   10.2070 C.2   155  ALA155      0.2592
    119  O         12.2550   85.1980    9.9970 O.2   155  ALA155     -0.2718
    120  CB        13.7550   88.2860    9.5740 C.3   155  ALA155      0.0304
    121  N         11.1730   87.1870   10.1010 N.am  156  ASP156     -0.1974
    122  CA         9.8070   86.7800    9.8090 C.3   156  ASP156      0.1709
    123  C          9.3040   85.6150   10.6420 C.2   156  ASP156      0.2293
    124  O          9.2230   84.4490   10.1680 O.2   156  ASP156     -0.2864
    125  CB         9.6110   86.4420    8.3410 C.3   156  ASP156      0.1436
    126  CG         8.1080   86.5060    7.9500 C.2   156  ASP156      0.3671
    127  OD1        7.3080   86.6300    8.8940 O.co2 156  ASP156     -0.2456
    128  OD2        7.7700   86.4060    6.7620 O.co2 156  ASP156     -0.2456
@<TRIPOS>BOND
     1    20    18   ar
     2    17    18    1
     3    17    14    1
     4    18    19   ar
     5    13    14    1
     6    13    11   am
     7    10    11    1
     8    10     9    1
     9    14    15    1
    10    11    12    2
    11    15    16    2
    12    15    21   am
    13     4     3    2
    14     9     3   am
    15    94    93    2
    16     3     2    1
    17    21    22    1
    18    22    23    1
    19    24    23    2
    20     1     2    1
    21     2     5    1
    22    93    92    1
    23    95    92    1
    24    97    96    1
    25    97    98    1
    26    91    92    1
    27    91    89   am
    28    88    89    1
    29    88    87    1
    30    28    27    2
    31     5     6    1
    32    89    90    2
    33     8     6    1
    34    25    26    1
    35    98    99    2
    36    98   100   am
    37     6     7    1
    38    27    26    1
    39    26    29    1
    40   100   101    1
    41    29    31    1
    42    29    30    1
    43    80    78   ar
    44    80    79   ar
    45   106   105    2
    46   115   113    1
    47    78    76   ar
    48   101   104    1
    49   101   102    1
    50   105   107   am
    51   105   104    1
    52    84    83    2
    53    79    77   ar
    54   128   126   ar
    55   109   110    1
    56   109   108    1
    57   109   112    1
    58   102   103    2
    59   110   111    2
    60    83    82    1
    61    76    75   ar
    62   113   112    1
    63   113   114    1
    64   126   125    1
    65   126   127   ar
    66    77    75   ar
    67   125   122    1
    68    75    74    1
    69    36    33    1
    70    82    85    1
    71    82    81    1
    72    85    86    1
    73    38    39    1
    74    38    37    1
    75    38    41    1
    76    33    34    1
    77    33    32    1
    78    81    72   am
    79    42    41    1
    80    42    43    1
    81    44    45    1
    82    44    43    1
    83    39    40    2
    84   120   117    1
    85    34    35    2
    86   122   121    1
    87   122   123    1
    88    74    71    1
    89   119   118    2
    90   121   118   am
    91    72    71    1
    92    72    73    2
    93   124   123    2
    94   118   117    1
    95    71    70    1
    96   117   116    1
    97    64    63    2
    98    70    63   am
    99    60    58    1
   100    63    62    1
   101    56    55    2
   102    51    50    1
   103    57    58    1
   104    57    59    1
   105    57    54    1
   106    55    54    1
   107    55    61   am
   108    53    54    1
   109    52    50    1
   110    50    47    1
   111    62    61    1
   112    62    65    1
   113    66    65    1
   114    66    67    1
   115    47    46    1
   116    47    48    1
   117    67    69   ar
   118    67    68   ar
   119    48    49    2
