@<TRIPOS>MOLECULE
tmp/6hvhA00.pdb
 206 198 0 0 0
SMALL
GASTEIGER

@<TRIPOS>ATOM
      1  N         97.1010   45.5200  259.8340 N.3    29  ALA29      -0.1231
      2  CA        96.2470   44.9830  260.8980 C.3    29  ALA29       0.1694
      3  C         96.5990   45.5160  262.2840 C.2    29  ALA29       0.2592
      4  O         96.6220   44.7700  263.2650 O.2    29  ALA29      -0.2718
      5  CB        96.2880   43.4670  260.8940 C.3    29  ALA29       0.0304
      6  N         96.8590   46.8140  262.3720 N.am   30  ARG30      -0.1966
      7  CA        97.0960   47.4580  263.6670 C.3    30  ARG30       0.1729
      8  C         96.0160   48.4930  264.0150 C.2    30  ARG30       0.2616
      9  O         96.1860   49.3040  264.9240 O.2    30  ARG30      -0.2715
     10  CB        98.4830   48.1010  263.6890 C.3    30  ARG30       0.0348
     11  CG        99.5230   47.2210  264.3500 C.3    30  ARG30       0.0492
     12  CD        99.7300   45.8910  263.6380 C.3    30  ARG30       0.2205
     13  NE       100.7720   45.1010  264.2930 N.pl3  30  ARG30      -0.0865
     14  CZ       101.1510   43.8740  263.9210 C.cat  30  ARG30       0.5346
     15  NH1      100.6000   43.2810  262.8570 N.pl3  30  ARG30       0.1354
     16  NH2      102.0930   43.2390  264.6140 N.pl3  30  ARG30       0.1354
     17  N         94.9270   48.4740  263.2630 N.am   31  GLY31      -0.1955
     18  CA        93.8160   49.3600  263.4970 C.3    31  GLY31       0.1869
     19  C         93.9750   50.7100  262.8660 C.2    31  GLY31       0.2309
     20  O         93.2210   51.6380  263.1890 O.2    31  GLY31      -0.2863
     21  N         90.7130   51.5610  261.1310 N.3    34  TYR34      -0.1227
     22  CA        89.6790   51.6780  262.1370 C.3    34  TYR34       0.1736
     23  C         89.7340   53.0740  262.7880 C.2    34  TYR34       0.2595
     24  O         88.7370   53.8000  262.8580 O.2    34  TYR34      -0.2718
     25  CB        89.8760   50.6050  263.2080 C.3    34  TYR34       0.0548
     26  CG        88.9450   50.7290  264.4030 C.ar   34  TYR34      -0.0200
     27  CD1       87.6540   50.1990  264.3720 C.ar   34  TYR34      -0.0009
     28  CD2       89.3610   51.3840  265.5630 C.ar   34  TYR34      -0.0009
     29  CE1       86.8070   50.3210  265.4590 C.ar   34  TYR34       0.0417
     30  CE2       88.5290   51.5110  266.6460 C.ar   34  TYR34       0.0417
     31  CZ        87.2490   50.9790  266.5850 C.ar   34  TYR34       0.1957
     32  OH        86.4290   51.1380  267.6670 O.3    34  TYR34      -0.2866
     33  N         90.9140   53.4300  263.2670 N.am   35  ILE35      -0.1980
     34  CA        91.1500   54.7400  263.8170 C.3    35  ILE35       0.1595
     35  C         90.9800   55.8490  262.7760 C.2    35  ILE35       0.2287
     36  O         90.3720   56.8700  263.0780 O.2    35  ILE35      -0.2864
     37  CB        92.5590   54.8220  264.4080 C.3    35  ILE35       0.0276
     38  CG1       92.6410   53.9150  265.6190 C.3    35  ILE35       0.0022
     39  CG2       92.9200   56.2560  264.7560 C.3    35  ILE35       0.0022
     40  CD1       91.6470   54.2450  266.6910 C.3    35  ILE35       0.0001
     41  N        100.3500   59.4460  263.6610 N.3   135  ILE135     -0.1245
     42  CA        99.7570   58.5270  264.6170 C.3   135  ILE135      0.1561
     43  C        100.1850   57.1070  264.3160 C.2   135  ILE135      0.2260
     44  O         99.8950   56.5990  263.2500 O.2   135  ILE135     -0.2867
     45  CB        98.2330   58.5640  264.5820 C.3   135  ILE135      0.0252
     46  CG1       97.7230   59.9800  264.8710 C.3   135  ILE135      0.0019
     47  CG2       97.6540   57.5790  265.5880 C.3   135  ILE135      0.0019
     48  CD1       96.2320   60.1350  264.6010 C.3   135  ILE135      0.0001
     49  N        100.3260   53.0530  265.4610 N.3   137  SER137     -0.1202
     50  CA        99.7430   52.0300  266.2740 C.3   137  SER137      0.2020
     51  C        100.6960   50.8380  266.2910 C.2   137  SER137      0.2619
     52  O        101.0710   50.3200  265.2290 O.2   137  SER137     -0.2717
     53  CB        98.3870   51.6540  265.7250 C.3   137  SER137      0.2103
     54  OG        97.8610   50.6220  266.5180 O.3   137  SER137     -0.2182
     55  N        101.1250   50.4630  267.4990 N.am  138  VAL138     -0.1965
     56  CA       102.0780   49.3920  267.7250 C.3   138  VAL138      0.1727
     57  C        101.3550   48.3420  268.5250 C.2   138  VAL138      0.2616
     58  O        100.6960   48.6680  269.5100 O.2   138  VAL138     -0.2715
     59  CB       103.3100   49.8670  268.5380 C.3   138  VAL138      0.0290
     60  CG1      104.2910   48.7110  268.7860 C.3   138  VAL138      0.0023
     61  CG2      104.0300   50.9920  267.8320 C.3   138  VAL138      0.0023
     62  N        101.4360   47.0920  268.0690 N.am  139  CYS139     -0.1968
     63  CA       100.8840   45.9340  268.7860 C.3   139  CYS139      0.1712
     64  C        101.5220   44.6180  268.3690 C.2   139  CYS139      0.2296
     65  O        101.4900   44.2470  267.1900 O.2   139  CYS139     -0.2864
     66  CB        99.3980   45.7800  268.5300 C.3   139  CYS139      0.0983
     67  SG        98.6870   44.4820  269.5790 S.3   139  CYS139     -0.0798
     68  N         95.3650   39.8240  269.0280 N.3   144  VAL144     -0.1245
     69  CA        94.7540   41.0540  268.5920 C.3   144  VAL144      0.1561
     70  C         94.8700   41.1150  267.0810 C.2   144  VAL144      0.2260
     71  O         93.8760   41.3440  266.3690 O.2   144  VAL144     -0.2867
     72  CB        95.4310   42.2710  269.2560 C.3   144  VAL144      0.0252
     73  CG1       94.9570   43.5610  268.6190 C.3   144  VAL144      0.0019
     74  CG2       95.1850   42.2560  270.7670 C.3   144  VAL144      0.0019
     75  N         92.4390   38.5960  265.4720 N.3   147  SER147     -0.1202
     76  CA        91.1160   39.1540  265.5690 C.3   147  SER147      0.2020
     77  C         90.8780   40.2420  264.5130 C.2   147  SER147      0.2618
     78  O         89.8510   40.2570  263.8240 O.2   147  SER147     -0.2717
     79  CB        90.9540   39.7250  266.9680 C.3   147  SER147      0.2103
     80  OG        89.7160   40.3730  267.0580 O.3   147  SER147     -0.2182
     81  N         91.8300   41.1510  264.3600 N.am  148  ASN148     -0.1974
     82  CA        91.6390   42.1990  263.3850 C.3   148  ASN148      0.1688
     83  C         91.4500   41.5830  262.0190 C.2   148  ASN148      0.2292
     84  O         90.5880   42.0060  261.2510 O.2   148  ASN148     -0.2864
     85  CB        92.8250   43.1780  263.3480 C.3   148  ASN148      0.1181
     86  CG        92.9610   43.9700  264.6260 C.2   148  ASN148      0.2629
     87  OD1       91.9800   44.1950  265.3240 O.2   148  ASN148     -0.2716
     88  ND2       94.1970   44.3410  264.9750 N.am  148  ASN148     -0.0877
     89  N         88.1450   40.0570  261.5050 N.3   151  GLU151     -0.1231
     90  CA        87.0290   40.9510  261.6120 C.3   151  GLU151      0.1699
     91  C         86.8890   41.8540  260.4270 C.2   151  GLU151      0.2592
     92  O         85.7730   42.2020  260.0460 O.2   151  GLU151     -0.2718
     93  CB        87.1540   41.7600  262.8920 C.3   151  GLU151      0.0402
     94  CG        86.0660   42.7900  263.0430 C.3   151  GLU151      0.1161
     95  CD        85.8670   43.1790  264.4830 C.2   151  GLU151      0.3649
     96  OE1       86.4930   42.5170  265.3420 O.co2 151  GLU151     -0.2457
     97  OE2       85.0980   44.1420  264.7340 O.co2 151  GLU151     -0.2457
     98  N         88.0000   42.2770  259.8380 N.am  152  VAL152     -0.1980
     99  CA        87.8840   43.1940  258.6960 C.3   152  VAL152      0.1595
    100  C         88.7590   42.8510  257.4880 C.2   152  VAL152      0.2287
    101  O         88.5550   43.4290  256.4080 O.2   152  VAL152     -0.2864
    102  CB        88.1880   44.6620  259.0900 C.3   152  VAL152      0.0276
    103  CG1       87.1150   45.2040  260.0210 C.3   152  VAL152      0.0022
    104  CG2       89.5770   44.7870  259.7190 C.3   152  VAL152      0.0022
    105  N        100.7980   54.9950  269.8340 N.3   199  VAL199     -0.1245
    106  CA        99.8540   54.2380  270.6480 C.3   199  VAL199      0.1561
    107  C        100.2810   52.7930  270.7320 C.2   199  VAL199      0.2260
    108  O        100.6410   52.1900  269.7330 O.2   199  VAL199     -0.2867
    109  CB        98.4480   54.2730  270.0680 C.3   199  VAL199      0.0252
    110  CG1       97.4810   53.6350  271.0450 C.3   199  VAL199      0.0019
    111  CG2       98.0090   55.7040  269.7680 C.3   199  VAL199      0.0019
    112  N         96.7770   48.7810  271.8990 N.3   202  VAL202     -0.1231
    113  CA        95.3370   49.0730  271.7720 C.3   202  VAL202      0.1692
    114  C         94.8490   50.1460  272.7390 C.2   202  VAL202      0.2592
    115  O         93.8270   50.0020  273.3860 O.2   202  VAL202     -0.2718
    116  CB        94.4590   47.8020  271.9270 C.3   202  VAL202      0.0266
    117  CG1       93.0840   48.0280  271.3060 C.3   202  VAL202      0.0020
    118  CG2       95.1230   46.6030  271.2600 C.3   202  VAL202      0.0020
    119  N         95.5840   51.2400  272.8080 N.am  203  GLY203     -0.1957
    120  CA        95.2130   52.3430  273.6650 C.3   203  GLY203      0.1869
    121  C         95.7070   52.1950  275.0910 C.2   203  GLY203      0.2309
    122  O         95.4060   53.0330  275.9150 O.2   203  GLY203     -0.2863
    123  N        100.4070   55.6500  275.6170 N.3   206  PHE206     -0.1241
    124  CA       100.6320   56.6160  274.5820 C.3   206  PHE206      0.1605
    125  C        101.9180   57.3270  274.8160 C.2   206  PHE206      0.2264
    126  O        102.2980   57.5840  275.9450 O.2   206  PHE206     -0.2867
    127  CB        99.5540   57.6810  274.6190 C.3   206  PHE206      0.0534
    128  CG        98.1600   57.1370  274.5070 C.ar  206  PHE206     -0.0203
    129  CD1       97.5350   56.5970  275.5980 C.ar  206  PHE206     -0.0042
    130  CD2       97.4750   57.1780  273.2990 C.ar  206  PHE206     -0.0042
    131  CE1       96.2430   56.1060  275.5030 C.ar  206  PHE206     -0.0003
    132  CE2       96.2000   56.6740  273.1910 C.ar  206  PHE206     -0.0003
    133  CZ        95.5790   56.1430  274.2970 C.ar  206  PHE206     -0.0000
    134  N         91.3990   60.0910  271.5330 N.3   223  LEU223     -0.1245
    135  CA        92.0130   58.7680  271.5430 C.3   223  LEU223      0.1561
    136  C         92.1820   58.2080  272.9380 C.2   223  LEU223      0.2260
    137  O         92.2160   56.9990  273.1010 O.2   223  LEU223     -0.2867
    138  CB        93.3460   58.7740  270.8150 C.3   223  LEU223      0.0270
    139  CG        93.2790   59.0670  269.3110 C.3   223  LEU223      0.0019
    140  CD1       94.6900   59.1110  268.7500 C.3   223  LEU223      0.0001
    141  CD2       92.4250   58.0470  268.5660 C.3   223  LEU223      0.0001
    142  N         88.3070   56.7390  273.8230 N.3   226  ILE226     -0.1231
    143  CA        87.7200   55.6150  273.1260 C.3   226  ILE226      0.1692
    144  C         88.2970   54.2980  273.6020 C.2   226  ILE226      0.2592
    145  O         89.3660   54.2490  274.2220 O.2   226  ILE226     -0.2718
    146  CB        87.8790   55.7210  271.6030 C.3   226  ILE226      0.0266
    147  CG1       89.3260   55.5290  271.1750 C.3   226  ILE226      0.0019
    148  CG2       87.3230   57.0440  271.1210 C.3   226  ILE226      0.0020
    149  CD1       89.4740   55.4680  269.6660 C.3   226  ILE226      0.0001
    150  N         87.5460   53.2440  273.3360 N.am  227  HIS227     -0.1962
    151  CA        87.9410   51.8920  273.6850 C.3   227  HIS227      0.1787
    152  C         87.3430   50.9240  272.6530 C.2   227  HIS227      0.2620
    153  O         86.4610   51.2950  271.8930 O.2   227  HIS227     -0.2715
    154  CB        87.4490   51.5410  275.0960 C.3   227  HIS227      0.0785
    155  CG        85.9580   51.4550  275.2070 C.ar  227  HIS227      0.0821
    156  ND1       85.2410   50.3410  274.8200 N.ar  227  HIS227     -0.2267
    157  CD2       85.0450   52.3530  275.6400 C.ar  227  HIS227      0.1154
    158  CE1       83.9570   50.5500  275.0210 C.ar  227  HIS227      0.1986
    159  NE2       83.8090   51.7670  275.5150 N.ar  227  HIS227     -0.2212
    160  N         87.8060   49.6770  272.6540 N.am  228  VAL228     -0.1963
    161  CA        87.3760   48.7020  271.6570 C.3   228  VAL228      0.1727
    162  C         86.5400   47.5510  272.2430 C.2   228  VAL228      0.2616
    163  O         86.3270   46.5440  271.5750 O.2   228  VAL228     -0.2715
    164  CB        88.5920   48.1520  270.8930 C.3   228  VAL228      0.0290
    165  CG1       89.3130   49.3020  270.2110 C.3   228  VAL228      0.0023
    166  CG2       89.5550   47.4030  271.8170 C.3   228  VAL228      0.0023
    167  N         86.0730   47.6950  273.4790 N.am  229  GLN229     -0.1964
    168  CA        85.2170   46.6850  274.0860 C.3   229  GLN229      0.1718
    169  C         83.8520   46.6670  273.4170 C.2   229  GLN229      0.2458
    170  O         83.3190   47.7130  273.0370 O.2   229  GLN229     -0.2730
    171  CB        85.0310   46.9400  275.5740 C.3   229  GLN229      0.0407
    172  CG        86.3220   46.8770  276.3570 C.3   229  GLN229      0.0908
    173  CD        87.1600   45.7190  275.8870 C.2   229  GLN229      0.2608
    174  OE1       86.6420   44.6180  275.7200 O.2   229  GLN229     -0.2717
    175  NE2       88.4510   45.9620  275.6310 N.am  229  GLN229     -0.0878
    176  N         83.2770   45.4650  273.2530 N.am  230  PRO230     -0.2727
    177  CA        81.9300   45.4260  272.6830 C.3   230  PRO230      0.1402
    178  C         80.9070   46.0310  273.6500 C.2   230  PRO230      0.2269
    179  O         81.0620   45.9200  274.8760 O.2   230  PRO230     -0.2865
    180  CB        81.6790   43.9280  272.4540 C.3   230  PRO230      0.0296
    181  CG        82.5980   43.2310  273.3970 C.3   230  PRO230      0.0237
    182  CD        83.8010   44.1210  273.5590 C.3   230  PRO230      0.0939
    183  N         78.5070   48.7030  267.6420 N.3   406  PRO406     -0.2116
    184  CA        79.7440   48.7500  266.8740 C.3   406  PRO406      0.1372
    185  C         80.0440   47.4350  266.1700 C.2   406  PRO406      0.2244
    186  O         80.0620   46.3990  266.8060 O.2   406  PRO406     -0.2868
    187  CB        80.7820   49.0670  267.9470 C.3   406  PRO406      0.0268
    188  CG        80.0430   50.0050  268.8660 C.3   406  PRO406      0.0207
    189  CD        78.6340   49.4500  268.9130 C.3   406  PRO406      0.0892
    190  N         82.6260   45.8810  262.8720 N.3   408  ALA408     -0.1231
    191  CA        83.6780   46.1650  261.8970 C.3   408  ALA408      0.1694
    192  C         84.2100   47.5930  262.1140 C.2   408  ALA408      0.2592
    193  O         84.6310   47.9440  263.2140 O.2   408  ALA408     -0.2718
    194  CB        83.1670   45.9700  260.4650 C.3   408  ALA408      0.0304
    195  N         84.1620   48.4080  261.0680 N.am  409  TYR409     -0.1976
    196  CA        84.7120   49.7420  261.0890 C.3   409  TYR409      0.1639
    197  C         83.6590   50.7960  261.4380 C.2   409  TYR409      0.2290
    198  O         83.9770   51.9840  261.5220 O.2   409  TYR409     -0.2864
    199  CB        85.2320   50.0830  259.7020 C.3   409  TYR409      0.0560
    200  CG        86.5060   49.3980  259.2110 C.ar  409  TYR409     -0.0198
    201  CD1       87.6430   49.2770  260.0100 C.ar  409  TYR409     -0.0009
    202  CD2       86.5960   48.9670  257.9020 C.ar  409  TYR409     -0.0009
    203  CE1       88.8160   48.7170  259.5160 C.ar  409  TYR409      0.0417
    204  CE2       87.7610   48.4140  257.4000 C.ar  409  TYR409      0.0417
    205  CZ        88.8730   48.2970  258.1960 C.ar  409  TYR409      0.1957
    206  OH        90.0240   47.7430  257.6470 O.3   409  TYR409     -0.2866
@<TRIPOS>BOND
     1   101   100    2
     2   204   202   ar
     3   204   205   ar
     4   100    99    1
     5   206   205    1
     6   202   200   ar
     7   205   203   ar
     8    99   102    1
     9    99    98    1
    10   102   104    1
    11   102   103    1
    12   200   199    1
    13   200   201   ar
    14   203   201   ar
    15   199   196    1
    16     1     2    1
    17    98    91   am
    18    92    91    2
    19    91    90    1
    20   194   191    1
    21     5     2    1
    22     2     3    1
    23   195   196    1
    24   195   192   am
    25   196   197    1
    26    21    22    1
    27    84    83    2
    28   197   198    2
    29    89    90    1
    30    90    93    1
    31   191   192    1
    32   191   190    1
    33    83    82    1
    34   192   193    2
    35    22    23    1
    36    22    25    1
    37     3     6   am
    38     3     4    2
    39     6     7    1
    40    35    36    2
    41    35    34    1
    42    23    24    2
    43    23    33   am
    44    15    14    1
    45    19    20    2
    46    19    18    1
    47    93    94    1
    48    94    95    1
    49    25    26    1
    50    44    43    2
    51    17    18    1
    52    17     8   am
    53    33    34    1
    54    85    82    1
    55    85    86    1
    56    82    81    1
    57    12    13    1
    58    12    11    1
    59    41    42    1
    60     7    10    1
    61     7     8    1
    62    10    11    1
    63    34    37    1
    64    78    77    2
    65    14    13    2
    66    14    16    1
    67     8     9    2
    68    43    42    1
    69    81    77   am
    70    27    26   ar
    71    27    29   ar
    72    26    28   ar
    73    37    39    1
    74    37    38    1
    75    95    97   ar
    76    95    96   ar
    77    77    76    1
    78    45    42    1
    79    45    46    1
    80    45    47    1
    81    48    46    1
    82    86    88   am
    83    86    87    2
    84    52    51    2
    85    29    31   ar
    86    49    50    1
    87    75    76    1
    88    28    30   ar
    89    76    79    1
    90    38    40    1
    91    53    50    1
    92    53    54    1
    93   185   186    2
    94   185   184    1
    95    50    51    1
    96    51    55   am
    97    71    70    2
    98    31    30   ar
    99    31    32    1
   100   184   183    1
   101   184   187    1
   102    79    80    1
   103    70    69    1
   104    65    64    2
   105    55    56    1
   106   183   189    1
   107    56    57    1
   108    56    59    1
   109    61    59    1
   110   187   188    1
   111    62    57   am
   112    62    63    1
   113    64    63    1
   114    57    58    2
   115    66    63    1
   116    66    67    1
   117    59    60    1
   118   141   139    1
   119    69    68    1
   120    69    72    1
   121    73    72    1
   122   140   139    1
   123   188   189    1
   124    72    74    1
   125   139   138    1
   126   149   147    1
   127   108   107    2
   128   111   109    1
   129   105   106    1
   130   109   106    1
   131   109   110    1
   132   165   164    1
   133   106   107    1
   134   138   135    1
   135   164   161    1
   136   164   166    1
   137   148   146    1
   138   147   146    1
   139   118   116    1
   140   117   116    1
   141   134   135    1
   142   135   136    1
   143   163   162    2
   144   146   143    1
   145   161   162    1
   146   161   160    1
   147   113   112    1
   148   113   116    1
   149   113   114    1
   150   153   152    2
   151   162   167   am
   152   180   177    1
   153   180   181    1
   154   152   160   am
   155   152   151    1
   156   177   176    1
   157   177   178    1
   158   114   119   am
   159   114   115    2
   160   119   120    1
   161   136   137    2
   162   170   169    2
   163   143   144    1
   164   143   142    1
   165   132   130   ar
   166   132   133   ar
   167   176   169   am
   168   176   182    1
   169   130   128   ar
   170   150   144   am
   171   150   151    1
   172   181   182    1
   173   169   168    1
   174   167   168    1
   175   144   145    2
   176   178   179    2
   177   120   121    1
   178   151   154    1
   179   168   171    1
   180   133   131   ar
   181   128   127    1
   182   128   129   ar
   183   124   127    1
   184   124   125    1
   185   124   123    1
   186   125   126    2
   187   156   158   ar
   188   156   155   ar
   189   158   159   ar
   190   121   122    2
   191   154   155    1
   192   155   157   ar
   193   131   129   ar
   194   159   157   ar
   195   171   172    1
   196   175   173   am
   197   174   173    2
   198   173   172    1
