@<TRIPOS>MOLECULE
tmp/6hviA00.pdb
 197 188 0 0 0
SMALL
GASTEIGER

@<TRIPOS>ATOM
      1  N         97.0430   45.4980  259.9230 N.3    31  ALA31      -0.1231
      2  CA        96.1180   45.0000  260.9700 C.3    31  ALA31       0.1694
      3  C         96.4300   45.4940  262.4000 C.2    31  ALA31       0.2592
      4  O         96.3070   44.7550  263.3980 O.2    31  ALA31      -0.2718
      5  CB        96.0360   43.4960  260.9220 C.3    31  ALA31       0.0304
      6  N         96.8020   46.7610  262.4960 N.am   32  ARG32      -0.1966
      7  CA        97.0360   47.4300  263.7870 C.3    32  ARG32       0.1729
      8  C         95.9510   48.5130  264.0750 C.2    32  ARG32       0.2616
      9  O         96.1750   49.4160  264.8780 O.2    32  ARG32      -0.2715
     10  CB        98.4230   48.0690  263.7910 C.3    32  ARG32       0.0348
     11  CG        99.5130   47.1730  264.3930 C.3    32  ARG32       0.0492
     12  CD        99.6260   45.8010  263.6800 C.3    32  ARG32       0.2205
     13  NE       100.7240   45.0360  264.2680 N.pl3  32  ARG32      -0.0865
     14  CZ       101.0390   43.7760  263.9620 C.cat  32  ARG32       0.5346
     15  NH1      100.4450   43.1480  262.9760 N.pl3  32  ARG32       0.1354
     16  NH2      102.0180   43.1910  264.6170 N.pl3  32  ARG32       0.1354
     17  N         94.8680   48.4620  263.3250 N.am   33  GLY33      -0.1955
     18  CA        93.7430   49.3710  263.5070 C.3    33  GLY33       0.1869
     19  C         93.8840   50.7530  262.8850 C.2    33  GLY33       0.2309
     20  O         93.1190   51.6540  263.2470 O.2    33  GLY33      -0.2863
     21  N         90.6270   51.6250  261.0220 N.3    36  TYR36      -0.1227
     22  CA        89.6100   51.7660  262.0400 C.3    36  TYR36       0.1736
     23  C         89.7130   53.1660  262.7140 C.2    36  TYR36       0.2595
     24  O         88.7290   53.9040  262.8090 O.2    36  TYR36      -0.2718
     25  CB        89.8190   50.7120  263.0850 C.3    36  TYR36       0.0548
     26  CG        88.9040   50.8280  264.2670 C.ar   36  TYR36      -0.0200
     27  CD1       87.6480   50.2280  264.2710 C.ar   36  TYR36      -0.0009
     28  CD2       89.2920   51.5880  265.4140 C.ar   36  TYR36      -0.0009
     29  CE1       86.8010   50.3410  265.3700 C.ar   36  TYR36       0.0417
     30  CE2       88.4610   51.7010  266.5060 C.ar   36  TYR36       0.0417
     31  CZ        87.2170   51.0890  266.4890 C.ar   36  TYR36       0.1957
     32  OH        86.4240   51.1870  267.6140 O.3    36  TYR36      -0.2866
     33  N         90.9220   53.5140  263.1430 N.am   37  ILE37      -0.1980
     34  CA        91.1690   54.8430  263.7120 C.3    37  ILE37       0.1595
     35  C         90.9550   55.9630  262.7010 C.2    37  ILE37       0.2287
     36  O         90.2980   56.9900  263.0130 O.2    37  ILE37      -0.2864
     37  CB        92.5510   54.9260  264.3660 C.3    37  ILE37       0.0276
     38  CG1       92.6270   53.9580  265.5110 C.3    37  ILE37       0.0022
     39  CG2       92.8830   56.3780  264.7820 C.3    37  ILE37       0.0022
     40  CD1       91.6570   54.2540  266.6500 C.3    37  ILE37       0.0001
     41  N        100.2860   59.4610  263.8030 N.3   137  ILE137     -0.1245
     42  CA        99.6840   58.5160  264.7520 C.3   137  ILE137      0.1561
     43  C        100.1460   57.1130  264.4500 C.2   137  ILE137      0.2260
     44  O         99.7940   56.5740  263.3890 O.2   137  ILE137     -0.2867
     45  CB        98.1680   58.5430  264.6310 C.3   137  ILE137      0.0252
     46  CG1       97.6380   59.9550  264.9310 C.3   137  ILE137      0.0019
     47  CG2       97.5450   57.5210  265.5840 C.3   137  ILE137      0.0019
     48  CD1       96.1550   60.0440  264.7120 C.3   137  ILE137      0.0001
     49  N        100.2850   53.0720  265.5600 N.3   139  SER139     -0.1202
     50  CA        99.7040   52.0140  266.3860 C.3   139  SER139      0.2020
     51  C        100.6290   50.8110  266.4280 C.2   139  SER139      0.2619
     52  O        101.0480   50.3110  265.3570 O.2   139  SER139     -0.2717
     53  CB        98.3480   51.6250  265.8580 C.3   139  SER139      0.2103
     54  OG        97.8570   50.5650  266.6430 O.3   139  SER139     -0.2182
     55  N        101.0220   50.4320  267.6520 N.am  140  VAL140     -0.1965
     56  CA       101.9600   49.3420  267.8990 C.3   140  VAL140      0.1727
     57  C        101.2620   48.2600  268.6810 C.2   140  VAL140      0.2616
     58  O        100.6480   48.5170  269.7290 O.2   140  VAL140     -0.2715
     59  CB       103.2180   49.7960  268.6820 C.3   140  VAL140      0.0290
     60  CG1      104.2020   48.6380  268.8180 C.3   140  VAL140      0.0023
     61  CG2      103.8920   51.0070  267.9980 C.3   140  VAL140      0.0023
     62  N        101.2840   47.0500  268.1470 N.am  141  CYS141     -0.1968
     63  CA       100.7000   45.9000  268.8560 C.3   141  CYS141      0.1712
     64  C        101.3340   44.5800  268.4320 C.2   141  CYS141      0.2296
     65  O        101.3790   44.2710  267.2310 O.2   141  CYS141     -0.2864
     66  CB        99.2220   45.8080  268.5620 C.3   141  CYS141      0.0983
     67  SG        98.4170   44.4900  269.5150 S.3   141  CYS141     -0.0798
     68  N         95.0030   39.8810  269.0720 N.3   146  VAL146     -0.1231
     69  CA        94.4170   41.1390  268.5750 C.3   146  VAL146      0.1692
     70  C         94.5240   41.1930  267.0510 C.2   146  VAL146      0.2591
     71  O         93.5150   41.3670  266.3270 O.2   146  VAL146     -0.2718
     72  CB        95.1040   42.3490  269.2380 C.3   146  VAL146      0.0266
     73  CG1       94.6770   43.6530  268.5750 C.3   146  VAL146      0.0020
     74  CG2       94.7730   42.3390  270.7260 C.3   146  VAL146      0.0020
     75  N         95.7350   40.9750  266.5540 N.am  147  VAL147     -0.1980
     76  CA        95.9730   40.9390  265.1030 C.3   147  VAL147      0.1595
     77  C         95.0350   39.9490  264.3920 C.2   147  VAL147      0.2287
     78  O         94.3600   40.2970  263.4260 O.2   147  VAL147     -0.2864
     79  CB        97.4510   40.6050  264.8120 C.3   147  VAL147      0.0276
     80  CG1       97.6800   40.4020  263.3130 C.3   147  VAL147      0.0022
     81  CG2       98.3710   41.7050  265.3480 C.3   147  VAL147      0.0022
     82  N         92.1690   38.7980  265.3940 N.3   149  SER149     -0.1202
     83  CA        90.8080   39.3000  265.4690 C.3   149  SER149      0.2020
     84  C         90.5570   40.3870  264.4190 C.2   149  SER149      0.2618
     85  O         89.5300   40.3680  263.6940 O.2   149  SER149     -0.2717
     86  CB        90.5240   39.8390  266.8690 C.3   149  SER149      0.2103
     87  OG        89.2730   40.4920  266.8730 O.3   149  SER149     -0.2182
     88  N         91.5170   41.2990  264.2730 N.am  150  ASN150     -0.1974
     89  CA        91.3840   42.3010  263.2330 C.3   150  ASN150      0.1688
     90  C         91.2680   41.6560  261.8540 C.2   150  ASN150      0.2292
     91  O         90.4350   42.0160  261.0400 O.2   150  ASN150     -0.2864
     92  CB        92.5720   43.2520  263.2670 C.3   150  ASN150      0.1181
     93  CG        92.6110   44.0850  264.5290 C.2   150  ASN150      0.2629
     94  OD1       91.6090   44.2150  265.2570 O.2   150  ASN150     -0.2716
     95  ND2       93.7970   44.5640  264.8580 N.am  150  ASN150     -0.0877
     96  N         87.8930   40.1240  261.2660 N.3   153  GLU153     -0.1231
     97  CA        86.7580   41.0190  261.2940 C.3   153  GLU153      0.1699
     98  C         86.6980   41.9230  260.0800 C.2   153  GLU153      0.2592
     99  O         85.6180   42.2410  259.6110 O.2   153  GLU153     -0.2718
    100  CB        86.7430   41.8330  262.6020 C.3   153  GLU153      0.0402
    101  CG        85.5170   42.7230  262.7300 C.3   153  GLU153      0.1161
    102  CD        85.3490   43.3790  264.1030 C.2   153  GLU153      0.3649
    103  OE1       86.2690   43.2750  264.9470 O.co2 153  GLU153     -0.2457
    104  OE2       84.2500   43.9460  264.3300 O.co2 153  GLU153     -0.2457
    105  N         87.8300   42.4120  259.5790 N.am  154  VAL154     -0.1980
    106  CA        87.7260   43.3800  258.5030 C.3   154  VAL154      0.1595
    107  C         88.6360   43.0700  257.3090 C.2   154  VAL154      0.2287
    108  O         88.5140   43.7290  256.2880 O.2   154  VAL154     -0.2864
    109  CB        88.0110   44.8270  259.0050 C.3   154  VAL154      0.0276
    110  CG1       86.9360   45.2370  260.0130 C.3   154  VAL154      0.0022
    111  CG2       89.3770   44.9110  259.6740 C.3   154  VAL154      0.0022
    112  N        100.6910   54.9390  270.0750 N.3   201  VAL201     -0.1245
    113  CA        99.7380   54.2340  270.8620 C.3   201  VAL201      0.1561
    114  C        100.1810   52.8010  270.9250 C.2   201  VAL201      0.2260
    115  O        100.4580   52.1760  269.8900 O.2   201  VAL201     -0.2867
    116  CB        98.3350   54.2850  270.2620 C.3   201  VAL201      0.0252
    117  CG1       97.3580   53.5760  271.1900 C.3   201  VAL201      0.0019
    118  CG2       97.9140   55.6920  269.9690 C.3   201  VAL201      0.0019
    119  N         96.7140   48.8580  271.9390 N.3   204  VAL204     -0.1231
    120  CA        95.3000   49.1320  271.8180 C.3   204  VAL204      0.1692
    121  C         94.8380   50.1730  272.8730 C.2   204  VAL204      0.2592
    122  O         93.7660   50.0550  273.4400 O.2   204  VAL204     -0.2718
    123  CB        94.4680   47.8260  271.9400 C.3   204  VAL204      0.0266
    124  CG1       93.0730   48.0260  271.3700 C.3   204  VAL204      0.0020
    125  CG2       95.1670   46.6910  271.2010 C.3   204  VAL204      0.0020
    126  N         95.6320   51.2140  273.0640 N.am  205  GLY205     -0.1957
    127  CA        95.2680   52.3450  273.9270 C.3   205  GLY205      0.1869
    128  C         95.7100   52.1120  275.3630 C.2   205  GLY205      0.2309
    129  O         95.2420   52.7780  276.2790 O.2   205  GLY205     -0.2863
    130  N        100.4360   55.6110  275.8870 N.3   208  PHE208     -0.1241
    131  CA       100.6380   56.5990  274.8420 C.3   208  PHE208      0.1605
    132  C        101.9690   57.3040  275.0660 C.2   208  PHE208      0.2264
    133  O        102.3330   57.6370  276.2080 O.2   208  PHE208     -0.2867
    134  CB        99.5180   57.6230  274.8860 C.3   208  PHE208      0.0534
    135  CG        98.1270   57.0280  274.7960 C.ar  208  PHE208     -0.0203
    136  CD1       97.4850   56.5300  275.9100 C.ar  208  PHE208     -0.0042
    137  CD2       97.4470   57.0360  273.5950 C.ar  208  PHE208     -0.0042
    138  CE1       96.1910   56.0280  275.8210 C.ar  208  PHE208     -0.0003
    139  CE2       96.1730   56.5250  273.4970 C.ar  208  PHE208     -0.0003
    140  CZ        95.5480   56.0130  274.6040 C.ar  208  PHE208     -0.0000
    141  N         91.4680   60.0300  271.5160 N.3   225  LEU225     -0.1245
    142  CA        92.1360   58.7090  271.5780 C.3   225  LEU225      0.1561
    143  C         92.3070   58.1740  272.9510 C.2   225  LEU225      0.2260
    144  O         92.2080   56.9670  273.1770 O.2   225  LEU225     -0.2867
    145  CB        93.4850   58.7430  270.8460 C.3   225  LEU225      0.0270
    146  CG        93.3750   59.1350  269.3670 C.3   225  LEU225      0.0019
    147  CD1       94.7410   59.4540  268.7480 C.3   225  LEU225      0.0001
    148  CD2       92.6650   58.0710  268.5310 C.3   225  LEU225      0.0001
    149  N         88.5320   56.6760  273.8750 N.3   228  ILE228     -0.1231
    150  CA        87.8580   55.5710  273.1430 C.3   228  ILE228      0.1692
    151  C         88.3980   54.2110  273.5340 C.2   228  ILE228      0.2592
    152  O         89.5050   54.0900  274.0680 O.2   228  ILE228     -0.2718
    153  CB        87.9290   55.7590  271.6080 C.3   228  ILE228      0.0266
    154  CG1       89.3450   55.5790  271.0700 C.3   228  ILE228      0.0019
    155  CG2       87.3560   57.1160  271.2260 C.3   228  ILE228      0.0020
    156  CD1       89.3910   55.5740  269.5460 C.3   228  ILE228      0.0001
    157  N         87.6000   53.1660  273.3190 N.am  229  HIS229     -0.1962
    158  CA        88.0570   51.8170  273.6090 C.3   229  HIS229      0.1787
    159  C         87.3520   50.8570  272.6380 C.2   229  HIS229      0.2620
    160  O         86.4510   51.2540  271.8920 O.2   229  HIS229     -0.2715
    161  CB        87.7090   51.4480  275.0590 C.3   229  HIS229      0.0785
    162  CG        86.2280   51.3950  275.3160 C.ar  229  HIS229      0.0821
    163  ND1       85.4490   50.3120  274.9580 N.ar  229  HIS229     -0.2267
    164  CD2       85.3710   52.3210  275.8040 C.ar  229  HIS229      0.1154
    165  CE1       84.1900   50.5490  275.2670 C.ar  229  HIS229      0.1986
    166  NE2       84.1170   51.7590  275.7840 N.ar  229  HIS229     -0.2212
    167  N         87.8200   49.6210  272.5910 N.am  230  VAL230     -0.1977
    168  CA        87.2740   48.6760  271.6260 C.3   230  VAL230      0.1596
    169  C         86.5510   47.5170  272.3130 C.2   230  VAL230      0.2287
    170  O         86.4200   46.4970  271.7270 O.2   230  VAL230     -0.2864
    171  CB        88.3990   48.1380  270.7240 C.3   230  VAL230      0.0276
    172  CG1       89.1090   49.2820  270.0230 C.3   230  VAL230      0.0022
    173  CG2       89.3920   47.3240  271.5330 C.3   230  VAL230      0.0022
    174  N         78.6260   48.3730  267.8370 N.3   408  PRO408     -0.2116
    175  CA        79.8800   48.4940  267.0580 C.3   408  PRO408      0.1372
    176  C         80.1340   47.2680  266.2310 C.2   408  PRO408      0.2244
    177  O         80.0760   46.1880  266.7600 O.2   408  PRO408     -0.2868
    178  CB        80.9510   48.5300  268.1540 C.3   408  PRO408      0.0268
    179  CG        80.3600   47.6490  269.2400 C.3   408  PRO408      0.0207
    180  CD        78.9040   48.0850  269.2600 C.3   408  PRO408      0.0892
    181  N         82.8090   46.0500  262.9470 N.3   410  ALA410     -0.1231
    182  CA        83.8260   46.3200  261.9280 C.3   410  ALA410      0.1694
    183  C         84.2640   47.7640  262.0850 C.2   410  ALA410      0.2592
    184  O         84.6880   48.1510  263.1760 O.2   410  ALA410     -0.2718
    185  CB        83.2800   46.0520  260.5470 C.3   410  ALA410      0.0304
    186  N         84.1050   48.5830  261.0470 N.am  411  TYR411     -0.1976
    187  CA        84.6250   49.9370  261.1130 C.3   411  TYR411      0.1639
    188  C         83.5370   50.9410  261.5350 C.2   411  TYR411      0.2290
    189  O         83.7870   52.1490  261.5350 O.2   411  TYR411     -0.2864
    190  CB        85.1910   50.3720  259.7760 C.3   411  TYR411      0.0560
    191  CG        86.4340   49.6260  259.2820 C.ar  411  TYR411     -0.0198
    192  CD1       87.5510   49.4850  260.0930 C.ar  411  TYR411     -0.0009
    193  CD2       86.5270   49.2040  257.9630 C.ar  411  TYR411     -0.0009
    194  CE1       88.6960   48.8320  259.6330 C.ar  411  TYR411      0.0417
    195  CE2       87.6670   48.5710  257.4840 C.ar  411  TYR411      0.0417
    196  CZ        88.7370   48.3730  258.3240 C.ar  411  TYR411      0.1957
    197  OH        89.8970   47.8110  257.8470 O.3   411  TYR411     -0.2866
@<TRIPOS>BOND
     1   108   107    2
     2   107   106    1
     3   195   193   ar
     4   195   196   ar
     5   197   196    1
     6   193   191   ar
     7   196   194   ar
     8   106   109    1
     9   106   105    1
    10   109   111    1
    11   109   110    1
    12   191   190    1
    13   191   192   ar
    14   105    98   am
    15    99    98    2
    16   194   192   ar
    17   190   187    1
    18     1     2    1
    19    98    97    1
    20   185   182    1
    21     5     2    1
    22     2     3    1
    23    21    22    1
    24    91    90    2
    25   186   187    1
    26   186   183   am
    27   187   188    1
    28    96    97    1
    29    97   100    1
    30   189   188    2
    31    90    89    1
    32   182   183    1
    33   182   181    1
    34    22    23    1
    35    22    25    1
    36   183   184    2
    37     3     6   am
    38     3     4    2
    39     6     7    1
    40   100   101    1
    41    35    36    2
    42    35    34    1
    43    23    24    2
    44    23    33   am
    45   101   102    1
    46    19    20    2
    47    19    18    1
    48    15    14    1
    49    25    26    1
    50    33    34    1
    51    89    92    1
    52    89    88    1
    53    92    93    1
    54    80    79    1
    55    17    18    1
    56    17     8   am
    57    44    43    2
    58    78    77    2
    59    12    13    1
    60    12    11    1
    61    85    84    2
    62    34    37    1
    63     7    10    1
    64     7     8    1
    65    10    11    1
    66    41    42    1
    67    14    13    2
    68    14    16    1
    69     8     9    2
    70   102   104   ar
    71   102   103   ar
    72    26    27   ar
    73    26    28   ar
    74    27    29   ar
    75    88    84   am
    76    37    39    1
    77    37    38    1
    78    77    76    1
    79    84    83    1
    80    43    42    1
    81    93    95   am
    82    93    94    2
    83    45    42    1
    84    45    46    1
    85    45    47    1
    86    48    46    1
    87    79    76    1
    88    79    81    1
    89    76    75    1
    90    52    51    2
    91    29    31   ar
    92    82    83    1
    93    28    30   ar
    94    83    86    1
    95    38    40    1
    96    49    50    1
    97    53    50    1
    98    53    54    1
    99   176   177    2
   100   176   175    1
   101    71    70    2
   102    50    51    1
   103    51    55   am
   104    31    30   ar
   105    31    32    1
   106    75    70   am
   107    86    87    1
   108    70    69    1
   109   175   174    1
   110   175   178    1
   111    65    64    2
   112    55    56    1
   113   174   180    1
   114    56    57    1
   115    56    59    1
   116    61    59    1
   117    62    57   am
   118    62    63    1
   119   178   179    1
   120    64    63    1
   121   148   146    1
   122    66    63    1
   123    66    67    1
   124    69    68    1
   125    69    72    1
   126    73    72    1
   127    57    58    2
   128    59    60    1
   129   147   146    1
   130    72    74    1
   131   179   180    1
   132   146   145    1
   133   156   154    1
   134   115   114    2
   135   118   116    1
   136   172   171    1
   137   112   113    1
   138   116   113    1
   139   116   117    1
   140   171   173    1
   141   171   168    1
   142   145   142    1
   143   113   114    1
   144   154   153    1
   145   125   123    1
   146   155   153    1
   147   124   123    1
   148   141   142    1
   149   142   143    1
   150   153   150    1
   151   168   169    1
   152   168   167    1
   153   170   169    2
   154   120   119    1
   155   120   123    1
   156   120   121    1
   157   160   159    2
   158   167   159   am
   159   159   158    1
   160   121   126   am
   161   121   122    2
   162   143   144    2
   163   126   127    1
   164   150   151    1
   165   150   149    1
   166   157   151   am
   167   157   158    1
   168   139   137   ar
   169   139   140   ar
   170   151   152    2
   171   137   135   ar
   172   158   161    1
   173   127   128    1
   174   140   138   ar
   175   135   134    1
   176   135   136   ar
   177   131   134    1
   178   131   132    1
   179   131   130    1
   180   163   165   ar
   181   163   162   ar
   182   161   162    1
   183   132   133    2
   184   165   166   ar
   185   162   164   ar
   186   128   129    2
   187   166   164   ar
   188   138   136   ar
