@<TRIPOS>MOLECULE
tmp/6hvjA00.pdb
 206 197 0 0 0
SMALL
GASTEIGER

@<TRIPOS>ATOM
      1  N         45.6690  -43.8060    4.9250 N.3    28  ALA28      -0.1231
      2  CA        44.8130  -44.3090    6.0010 C.3    28  ALA28       0.1694
      3  C         45.1850  -43.7730    7.3950 C.2    28  ALA28       0.2592
      4  O         45.2030  -44.5220    8.3660 O.2    28  ALA28      -0.2718
      5  CB        44.8150  -45.8280    6.0110 C.3    28  ALA28       0.0304
      6  N         45.4780  -42.4770    7.4850 N.am   29  ARG29      -0.1966
      7  CA        45.7190  -41.8110    8.7640 C.3    29  ARG29       0.1729
      8  C         44.6520  -40.7250    9.0470 C.2    29  ARG29       0.2616
      9  O         44.8590  -39.8000    9.8390 O.2    29  ARG29      -0.2715
     10  CB        47.1330  -41.2030    8.7770 C.3    29  ARG29       0.0348
     11  CG        48.1660  -42.0960    9.4280 C.3    29  ARG29       0.0492
     12  CD        48.4570  -43.3740    8.6470 C.3    29  ARG29       0.2205
     13  NE        49.5540  -44.1080    9.2660 N.pl3  29  ARG29      -0.0865
     14  CZ        49.8930  -45.3680    8.9700 C.cat  29  ARG29       0.5346
     15  NH1       49.2320  -46.0610    8.0490 N.pl3  29  ARG29       0.1354
     16  NH2       50.9010  -45.9480    9.6050 N.pl3  29  ARG29       0.1354
     17  N         43.5210  -40.8580    8.3910 N.am   30  GLY30      -0.1955
     18  CA        42.4300  -39.9370    8.5400 C.3    30  GLY30       0.1869
     19  C         42.6070  -38.5410    7.9620 C.2    30  GLY30       0.2309
     20  O         41.9030  -37.6250    8.3870 O.2    30  GLY30      -0.2863
     21  N         39.2250  -37.6130    6.2590 N.3    33  TYR33      -0.1227
     22  CA        38.2310  -37.4700    7.2960 C.3    33  TYR33       0.1736
     23  C         38.3740  -36.0640    7.8970 C.2    33  TYR33       0.2595
     24  O         37.4580  -35.2870    7.8800 O.2    33  TYR33      -0.2718
     25  CB        38.4290  -38.5150    8.3820 C.3    33  TYR33       0.0548
     26  CG        37.4650  -38.3620    9.5530 C.ar   33  TYR33      -0.0200
     27  CD1       36.1080  -38.7300    9.4200 C.ar   33  TYR33      -0.0009
     28  CD2       37.9060  -37.8490   10.7970 C.ar   33  TYR33      -0.0009
     29  CE1       35.2210  -38.5810   10.4830 C.ar   33  TYR33       0.0417
     30  CE2       37.0210  -37.6970   11.8620 C.ar   33  TYR33       0.0417
     31  CZ        35.6810  -38.0570   11.6990 C.ar   33  TYR33       0.1957
     32  OH        34.8000  -37.9110   12.7500 O.3    33  TYR33      -0.2866
     33  N         39.5560  -35.7370    8.3830 N.am   34  ILE34      -0.1980
     34  CA        39.8220  -34.3950    8.8460 C.3    34  ILE34       0.1595
     35  C         39.5610  -33.2950    7.8150 C.2    34  ILE34       0.2287
     36  O         38.9400  -32.2630    8.1330 O.2    34  ILE34      -0.2864
     37  CB        41.2490  -34.3070    9.3470 C.3    34  ILE34       0.0276
     38  CG1       41.3960  -35.2610   10.5150 C.3    34  ILE34       0.0022
     39  CG2       41.6400  -32.8600    9.6870 C.3    34  ILE34       0.0022
     40  CD1       40.3290  -35.0830   11.5790 C.3    34  ILE34       0.0001
     41  N         48.8410  -29.7210    8.7040 N.3   134  ILE134     -0.1245
     42  CA        48.2450  -30.6620    9.6230 C.3   134  ILE134      0.1561
     43  C         48.6620  -32.0930    9.3180 C.2   134  ILE134      0.2260
     44  O         48.2890  -32.6380    8.2840 O.2   134  ILE134     -0.2867
     45  CB        46.7110  -30.6090    9.5480 C.3   134  ILE134      0.0252
     46  CG1       46.2230  -29.1980    9.8770 C.3   134  ILE134      0.0019
     47  CG2       46.1010  -31.6720   10.4600 C.3   134  ILE134      0.0019
     48  CD1       44.7520  -29.0060    9.6050 C.3   134  ILE134      0.0001
     49  N         48.7740  -36.0960   10.5000 N.3   136  SER136     -0.1202
     50  CA        48.1940  -37.1120   11.3300 C.3   136  SER136      0.2020
     51  C         49.1580  -38.3030   11.3980 C.2   136  SER136      0.2619
     52  O         49.5820  -38.8530   10.3470 O.2   136  SER136     -0.2717
     53  CB        46.8550  -37.4770   10.7430 C.3   136  SER136      0.2103
     54  OG        46.2690  -38.5220   11.4600 O.3   136  SER136     -0.2182
     55  N         49.5430  -38.6670   12.6230 N.am  137  VAL137     -0.1965
     56  CA        50.5080  -39.7330   12.8570 C.3   137  VAL137      0.1727
     57  C         49.8070  -40.8100   13.6250 C.2   137  VAL137      0.2616
     58  O         49.1380  -40.5310   14.6240 O.2   137  VAL137     -0.2715
     59  CB        51.7550  -39.2500   13.6580 C.3   137  VAL137      0.0290
     60  CG1       52.7630  -40.3820   13.9290 C.3   137  VAL137      0.0023
     61  CG2       52.4580  -38.1350   12.9230 C.3   137  VAL137      0.0023
     62  N         49.9210  -42.0370   13.1360 N.am  138  CYS138     -0.1968
     63  CA        49.3840  -43.2170   13.8360 C.3   138  CYS138      0.1712
     64  C         50.0300  -44.5170   13.3930 C.2   138  CYS138      0.2296
     65  O         50.0060  -44.8430   12.2160 O.2   138  CYS138     -0.2864
     66  CB        47.9070  -43.3630   13.5980 C.3   138  CYS138      0.0983
     67  SG        47.2520  -44.7320   14.5700 S.3   138  CYS138     -0.0798
     68  N         43.9690  -49.5170   14.1030 N.3   143  VAL143     -0.1231
     69  CA        43.3300  -48.3040   13.6100 C.3   143  VAL143      0.1692
     70  C         43.4560  -48.2640   12.1010 C.2   143  VAL143      0.2591
     71  O         42.4550  -48.1210   11.3690 O.2   143  VAL143     -0.2718
     72  CB        43.9370  -47.0480   14.2540 C.3   143  VAL143      0.0266
     73  CG1       43.5320  -45.7940   13.4940 C.3   143  VAL143      0.0020
     74  CG2       43.5160  -46.9690   15.7210 C.3   143  VAL143      0.0020
     75  N         44.6820  -48.4370   11.6330 N.am  144  VAL144     -0.1980
     76  CA        44.9230  -48.5210   10.1990 C.3   144  VAL144      0.1595
     77  C         44.0090  -49.5720    9.5470 C.2   144  VAL144      0.2287
     78  O         43.2870  -49.2680    8.5760 O.2   144  VAL144     -0.2864
     79  CB        46.3890  -48.8510    9.9060 C.3   144  VAL144      0.0276
     80  CG1       46.5820  -49.1320    8.4210 C.3   144  VAL144      0.0022
     81  CG2       47.2820  -47.6990   10.3630 C.3   144  VAL144      0.0022
     82  N         41.2320  -50.8950   10.5030 N.3   146  SER146     -0.1202
     83  CA        39.8660  -50.4460   10.5590 C.3   146  SER146      0.2020
     84  C         39.6000  -49.3310    9.5310 C.2   146  SER146      0.2618
     85  O         38.5510  -49.3080    8.8640 O.2   146  SER146     -0.2717
     86  CB        39.5700  -49.9660   11.9820 C.3   146  SER146      0.2103
     87  OG        38.2980  -49.3840   11.9720 O.3   146  SER146     -0.2182
     88  N         40.5470  -48.4110    9.3810 N.am  147  ASN147     -0.1974
     89  CA        40.3740  -47.3370    8.4010 C.3   147  ASN147      0.1688
     90  C         40.2280  -47.9060    7.0060 C.2   147  ASN147      0.2292
     91  O         39.3610  -47.4760    6.2370 O.2   147  ASN147     -0.2864
     92  CB        41.5340  -46.3180    8.4340 C.3   147  ASN147      0.1181
     93  CG        41.6390  -45.5640    9.7770 C.2   147  ASN147      0.2629
     94  OD1       42.7090  -45.0590   10.1510 O.2   147  ASN147     -0.2716
     95  ND2       40.5430  -45.5030   10.5070 N.am  147  ASN147     -0.0877
     96  N         36.8700  -49.5100    6.5650 N.3   150  GLU150     -0.1231
     97  CA        35.7140  -48.6090    6.6390 C.3   150  GLU150      0.1699
     98  C         35.5610  -47.7730    5.3870 C.2   150  GLU150      0.2592
     99  O         34.4590  -47.6730    4.8590 O.2   150  GLU150     -0.2718
    100  CB        35.7530  -47.7160    7.8850 C.3   150  GLU150      0.0402
    101  CG        35.0950  -48.3350    9.1180 C.3   150  GLU150      0.1161
    102  CD        34.2550  -47.3360    9.9030 C.2   150  GLU150      0.3649
    103  OE1       34.4070  -47.2700   11.1410 O.co2 150  GLU150     -0.2457
    104  OE2       33.4420  -46.6130    9.2830 O.co2 150  GLU150     -0.2457
    105  N         36.6490  -47.1880    4.8870 N.am  151  VAL151     -0.1966
    106  CA        36.5110  -46.2850    3.7390 C.3   151  VAL151      0.1727
    107  C         37.3200  -46.6440    2.4950 C.2   151  VAL151      0.2616
    108  O         36.9840  -46.1750    1.4070 O.2   151  VAL151     -0.2715
    109  CB        36.8230  -44.8100    4.1310 C.3   151  VAL151      0.0290
    110  CG1       35.9250  -44.3860    5.2840 C.3   151  VAL151      0.0023
    111  CG2       38.3090  -44.5970    4.4900 C.3   151  VAL151      0.0023
    112  N         38.3810  -47.4350    2.6330 N.am  152  LYS152     -0.1977
    113  CA        39.2570  -47.6670    1.4810 C.3   152  LYS152      0.1596
    114  C         38.7160  -48.7600    0.5750 C.2   152  LYS152      0.2287
    115  O         38.6080  -48.5610   -0.6300 O.2   152  LYS152     -0.2864
    116  CB        40.6820  -48.0030    1.9170 C.3   152  LYS152      0.0298
    117  CG        41.3120  -46.9120    2.7660 C.3   152  LYS152      0.0038
    118  CD        41.2630  -45.5340    2.1020 C.3   152  LYS152      0.0206
    119  CE        42.0890  -44.5220    2.8850 C.3   152  LYS152      0.1093
    120  NZ        42.2100  -43.2080    2.2040 N.3   152  LYS152     -0.1314
    121  N         49.0960  -34.1730   14.9360 N.3   198  VAL198     -0.1245
    122  CA        48.1530  -34.8560   15.7380 C.3   198  VAL198      0.1561
    123  C         48.5450  -36.3030   15.8190 C.2   198  VAL198      0.2260
    124  O         48.7570  -36.9460   14.8070 O.2   198  VAL198     -0.2867
    125  CB        46.7660  -34.8460   15.1410 C.3   198  VAL198      0.0252
    126  CG1       45.8180  -35.4700   16.1330 C.3   198  VAL198      0.0019
    127  CG2       46.3400  -33.4530   14.7720 C.3   198  VAL198      0.0019
    128  N         45.1300  -40.3890   16.8910 N.3   201  VAL201     -0.1231
    129  CA        43.6880  -40.1730   16.7730 C.3   201  VAL201      0.1692
    130  C         43.2410  -39.0780   17.7750 C.2   201  VAL201      0.2592
    131  O         42.1960  -39.1480   18.3640 O.2   201  VAL201     -0.2718
    132  CB        42.8610  -41.4830   16.9340 C.3   201  VAL201      0.0266
    133  CG1       41.5080  -41.3410   16.2620 C.3   201  VAL201      0.0020
    134  CG2       43.5920  -42.6730   16.3100 C.3   201  VAL201      0.0020
    135  N         44.0600  -38.0490   17.9250 N.am  202  GLY202     -0.1957
    136  CA        43.7460  -36.9440   18.8120 C.3   202  GLY202      0.1869
    137  C         44.1550  -37.1550   20.2510 C.2   202  GLY202      0.2309
    138  O         43.6440  -36.4930   21.1130 O.2   202  GLY202     -0.2863
    139  N         48.8650  -33.5730   20.7120 N.3   205  PHE205     -0.1241
    140  CA        49.0730  -32.6140   19.6790 C.3   205  PHE205      0.1605
    141  C         50.3530  -31.8910   19.9310 C.2   205  PHE205      0.2264
    142  O         50.7200  -31.6560   21.0680 O.2   205  PHE205     -0.2867
    143  CB        47.9740  -31.5650   19.7300 C.3   205  PHE205      0.0534
    144  CG        46.5840  -32.1340   19.6470 C.ar  205  PHE205     -0.0203
    145  CD1       45.9830  -32.6670   20.7550 C.ar  205  PHE205     -0.0042
    146  CD2       45.9030  -32.1540   18.4440 C.ar  205  PHE205     -0.0042
    147  CE1       44.7090  -33.1990   20.6860 C.ar  205  PHE205     -0.0003
    148  CE2       44.6390  -32.6810   18.3640 C.ar  205  PHE205     -0.0003
    149  CZ        44.0360  -33.2010   19.4850 C.ar  205  PHE205     -0.0000
    150  N         39.9400  -29.2590   16.5340 N.3   222  LEU222     -0.1245
    151  CA        40.5910  -30.5660   16.5700 C.3   222  LEU222      0.1561
    152  C         40.7290  -31.1290   17.9580 C.2   222  LEU222      0.2260
    153  O         40.7910  -32.3540   18.1340 O.2   222  LEU222     -0.2867
    154  CB        41.9340  -30.5200   15.8910 C.3   222  LEU222      0.0270
    155  CG        41.8300  -30.2300   14.3810 C.3   222  LEU222      0.0019
    156  CD1       43.2120  -30.0740   13.7540 C.3   222  LEU222      0.0001
    157  CD2       41.0590  -31.3240   13.6540 C.3   222  LEU222      0.0001
    158  N         36.9080  -32.5370   18.8510 N.3   225  ILE225     -0.1231
    159  CA        36.2180  -33.6330   18.1920 C.3   225  ILE225      0.1692
    160  C         36.7140  -35.0070   18.6710 C.2   225  ILE225      0.2592
    161  O         37.7380  -35.1130   19.3430 O.2   225  ILE225     -0.2718
    162  CB        36.3080  -33.4990   16.6750 C.3   225  ILE225      0.0266
    163  CG1       37.7450  -33.6980   16.1860 C.3   225  ILE225      0.0019
    164  CG2       35.7730  -32.1360   16.2720 C.3   225  ILE225      0.0020
    165  CD1       37.8690  -33.7930   14.6860 C.3   225  ILE225      0.0001
    166  N         35.9710  -36.0490   18.3310 N.am  226  HIS226     -0.1962
    167  CA        36.3410  -37.4040   18.6990 C.3   226  HIS226      0.1787
    168  C         35.6740  -38.3880   17.7640 C.2   226  HIS226      0.2620
    169  O         34.7580  -38.0370   17.0440 O.2   226  HIS226     -0.2715
    170  CB        35.9380  -37.7070   20.1340 C.3   226  HIS226      0.0785
    171  CG        34.4570  -37.8010   20.3370 C.ar  226  HIS226      0.0821
    172  ND1       33.7200  -38.9130   19.9760 N.ar  226  HIS226     -0.2267
    173  CD2       33.5770  -36.9270   20.8900 C.ar  226  HIS226      0.1154
    174  CE1       32.4550  -38.7240   20.3040 C.ar  226  HIS226      0.1986
    175  NE2       32.3390  -37.5240   20.8540 N.ar  226  HIS226     -0.2212
    176  N         36.1230  -39.6340   17.7930 N.am  227  VAL227     -0.1977
    177  CA        35.6090  -40.6220   16.8560 C.3   227  VAL227      0.1596
    178  C         34.8910  -41.7850   17.5250 C.2   227  VAL227      0.2287
    179  O         34.6750  -42.7930   16.9010 O.2   227  VAL227     -0.2864
    180  CB        36.7360  -41.1290   15.9620 C.3   227  VAL227      0.0276
    181  CG1       37.3000  -39.9490   15.1940 C.3   227  VAL227      0.0022
    182  CG2       37.8330  -41.8000   16.7850 C.3   227  VAL227      0.0022
    183  N         29.0300  -41.2410   10.6610 N.3   406  VAL406     -0.1231
    184  CA        29.6610  -42.2910    9.9160 C.3   406  VAL406      0.1692
    185  C         30.9690  -41.6270    9.4840 C.2   406  VAL406      0.2592
    186  O         31.1880  -40.4380    9.7930 O.2   406  VAL406     -0.2718
    187  CB        28.7410  -42.6830    8.7580 C.3   406  VAL406      0.0266
    188  CG1       29.5020  -42.8610    7.4470 C.3   406  VAL406      0.0020
    189  CG2       27.9170  -43.9040    9.1510 C.3   406  VAL406      0.0020
    190  N         31.8700  -42.3550    8.8340 N.am  407  ALA407     -0.1966
    191  CA        33.0830  -41.6990    8.3460 C.3   407  ALA407      0.1728
    192  C         32.7620  -40.9130    7.0730 C.2   407  ALA407      0.2616
    193  O         32.1590  -41.4610    6.1210 O.2   407  ALA407     -0.2715
    194  CB        34.1900  -42.7080    8.1000 C.3   407  ALA407      0.0334
    195  N         33.1500  -39.6330    7.0940 N.am  408  TYR408     -0.1974
    196  CA        33.0050  -38.6980    5.9540 C.3   408  TYR408      0.1639
    197  C         31.5930  -38.1160    5.8190 C.2   408  TYR408      0.2290
    198  O         31.2700  -37.5020    4.7920 O.2   408  TYR408     -0.2864
    199  CB        33.3730  -39.3630    4.6160 C.3   408  TYR408      0.0560
    200  CG        34.7930  -39.8570    4.5030 C.ar  408  TYR408     -0.0198
    201  CD1       35.6360  -39.8950    5.6150 C.ar  408  TYR408     -0.0009
    202  CD2       35.2850  -40.3140    3.2930 C.ar  408  TYR408     -0.0009
    203  CE1       36.9200  -40.3740    5.5200 C.ar  408  TYR408      0.0417
    204  CE2       36.5810  -40.7860    3.1910 C.ar  408  TYR408      0.0417
    205  CZ        37.3970  -40.8090    4.3080 C.ar  408  TYR408      0.1957
    206  OH        38.6930  -41.2690    4.2310 O.3   408  TYR408     -0.2866
@<TRIPOS>BOND
     1   115   114    2
     2   114   113    1
     3   108   107    2
     4   113   116    1
     5   113   112    1
     6   116   117    1
     7   118   117    1
     8   118   119    1
     9   120   119    1
    10   107   112   am
    11   107   106    1
    12   204   202   ar
    13   204   205   ar
    14   202   200   ar
    15   106   109    1
    16   106   105    1
    17   109   111    1
    18   109   110    1
    19   206   205    1
    20   205   203   ar
    21   200   199    1
    22   200   201   ar
    23   199   196    1
    24   198   197    2
    25    99    98    2
    26   105    98   am
    27     1     2    1
    28    98    97    1
    29   203   201   ar
    30   197   196    1
    31   196   195    1
    32     2     5    1
    33     2     3    1
    34   193   192    2
    35    91    90    2
    36    21    22    1
    37    96    97    1
    38    97   100    1
    39    90    89    1
    40   192   195   am
    41   192   191    1
    42    22    23    1
    43    22    25    1
    44     3     6   am
    45     3     4    2
    46   188   187    1
    47     6     7    1
    48    35    36    2
    49    35    34    1
    50    24    23    2
    51   100   101    1
    52    23    33   am
    53    19    20    2
    54    19    18    1
    55    15    14    1
    56   194   191    1
    57    44    43    2
    58   191   190    1
    59    25    26    1
    60    33    34    1
    61    17    18    1
    62    17     8   am
    63    89    92    1
    64    89    88    1
    65    80    79    1
    66    92    93    1
    67    78    77    2
    68    12    13    1
    69    12    11    1
    70    41    42    1
    71   187   189    1
    72   187   184    1
    73     7    10    1
    74     7     8    1
    75    10    11    1
    76   190   185   am
    77    34    37    1
    78    85    84    2
    79    14    13    2
    80    14    16    1
    81     8     9    2
    82   101   102    1
    83   104   102   ar
    84    43    42    1
    85    37    39    1
    86    37    38    1
    87    88    84   am
    88    27    26   ar
    89    27    29   ar
    90   185   186    2
    91   185   184    1
    92    84    83    1
    93    77    76    1
    94    45    42    1
    95    45    46    1
    96    45    47    1
    97    26    28   ar
    98    48    46    1
    99    93    94    2
   100    93    95   am
   101   102   103   ar
   102    79    76    1
   103    79    81    1
   104   184   183    1
   105    76    75    1
   106    52    51    2
   107    29    31   ar
   108    49    50    1
   109    82    83    1
   110    38    40    1
   111    83    86    1
   112    53    50    1
   113    53    54    1
   114    28    30   ar
   115    50    51    1
   116    71    70    2
   117    51    55   am
   118    75    70   am
   119    31    30   ar
   120    31    32    1
   121    87    86    1
   122    70    69    1
   123    65    64    2
   124    55    56    1
   125    56    57    1
   126    56    59    1
   127    61    59    1
   128    62    57   am
   129    62    63    1
   130    64    63    1
   131    73    72    1
   132    66    63    1
   133    66    67    1
   134    69    68    1
   135    69    72    1
   136    57    58    2
   137   157   155    1
   138    59    60    1
   139   156   155    1
   140    72    74    1
   141   155   154    1
   142   165   163    1
   143   127   125    1
   144   124   123    2
   145   121   122    1
   146   125   122    1
   147   125   126    1
   148   181   180    1
   149   122   123    1
   150   154   151    1
   151   180   182    1
   152   180   177    1
   153   163   162    1
   154   133   132    1
   155   164   162    1
   156   134   132    1
   157   150   151    1
   158   151   152    1
   159   162   159    1
   160   129   128    1
   161   129   132    1
   162   129   130    1
   163   177   178    1
   164   177   176    1
   165   179   178    2
   166   169   168    2
   167   168   176   am
   168   168   167    1
   169   130   135   am
   170   130   131    2
   171   135   136    1
   172   152   153    2
   173   159   160    1
   174   159   158    1
   175   166   160   am
   176   166   167    1
   177   148   146   ar
   178   148   149   ar
   179   146   144   ar
   180   160   161    2
   181   167   170    1
   182   136   137    1
   183   149   147   ar
   184   144   143    1
   185   144   145   ar
   186   140   143    1
   187   140   141    1
   188   140   139    1
   189   141   142    2
   190   172   174   ar
   191   172   171   ar
   192   170   171    1
   193   137   138    2
   194   174   175   ar
   195   171   173   ar
   196   147   145   ar
   197   175   173   ar
