@<TRIPOS>MOLECULE
tmp/6hvoB00.pdb
 125 123 0 0 0
SMALL
GASTEIGER

@<TRIPOS>ATOM
      1  N         20.0860    9.4470   -5.4640 N.3    40  MET40      -0.1245
      2  CA        20.8310    8.9760   -6.6190 C.3    40  MET40       0.1570
      3  C         21.2350    7.5220   -6.3800 C.2    40  MET40       0.2261
      4  O         21.2490    7.0990   -5.2210 O.2    40  MET40      -0.2867
      5  CB        22.0830    9.8180   -6.8450 C.3    40  MET40       0.0387
      6  CG        21.7380   11.1400   -7.4660 C.3    40  MET40       0.0595
      7  SD        23.2020   12.0780   -7.8790 S.3    40  MET40      -0.1393
      8  CE        23.8540   12.2930   -6.2210 C.3    40  MET40       0.0692
      9  N         25.6640    7.6350   -9.4290 N.3    44  HIS44      -0.1241
     10  CA        25.2430    9.0150   -9.7250 C.3    44  HIS44       0.1621
     11  C         24.7660    9.1660  -11.1830 C.2    44  HIS44       0.2264
     12  O         24.6480   10.2920  -11.6830 O.2    44  HIS44      -0.2867
     13  CB        26.3470   10.0240   -9.3420 C.3    44  HIS44       0.0745
     14  CG        26.5670   10.1420   -7.8690 C.ar   44  HIS44       0.0817
     15  ND1       27.1560   11.2540   -7.2980 N.ar   44  HIS44      -0.2268
     16  CD2       26.2530    9.3120   -6.8490 C.ar   44  HIS44       0.1154
     17  CE1       27.2040   11.0960   -5.9850 C.ar   44  HIS44       0.1986
     18  NE2       26.6480    9.9120   -5.6760 N.ar   44  HIS44      -0.2212
     19  N         22.6630   12.4900    3.0230 N.3   123  VAL123     -0.1231
     20  CA        22.3320   12.2910    1.6170 C.3   123  VAL123      0.1693
     21  C         22.6220   13.5860    0.8360 C.2   123  VAL123      0.2595
     22  O         22.3430   14.6970    1.3070 O.2   123  VAL123     -0.2718
     23  CB        20.8610   11.8400    1.4690 C.3   123  VAL123      0.0266
     24  CG1       20.5820   11.1830    0.1200 C.3   123  VAL123      0.0020
     25  CG2       20.4390   10.9180    2.6050 C.3   123  VAL123      0.0020
     26  N         23.2270   13.4130   -0.3410 N.am  124  GLU124     -0.1920
     27  CA        23.2590   14.4250   -1.3760 C.3   124  GLU124      0.1949
     28  C         21.8390   14.5520   -1.9570 C.2   124  GLU124      0.2659
     29  O         21.2970   13.5820   -2.5530 O.2   124  GLU124     -0.2711
     30  CB        24.2550   14.0540   -2.4850 C.2   124  GLU124      0.0111
     31  CG        25.7280   14.2490   -2.1350 C.2   124  GLU124      0.0838
     32  CD        26.7200   13.4760   -3.0070 C.2   124  GLU124      0.3877
     33  OE1       27.3680   14.0980   -3.8850 O.co2 124  GLU124     -0.2406
     34  OE2       26.8540   12.2390   -2.8090 O.co2 124  GLU124     -0.2406
     35  N         21.2450   15.7360   -1.7780 N.am  125  GLN125     -0.1960
     36  CA        19.9510   16.0950   -2.3820 C.3   125  GLN125      0.1733
     37  C         20.1700   17.0720   -3.5480 C.2   125  GLN125      0.2616
     38  O         21.0150   17.9660   -3.4690 O.2   125  GLN125     -0.2715
     39  CB        19.0440   16.6660   -1.2980 C.3   125  GLN125      0.0408
     40  CG        18.7910   15.6790   -0.1620 C.3   125  GLN125      0.0908
     41  CD        17.9490   14.4850   -0.5640 C.2   125  GLN125      0.2608
     42  OE1       18.4130   13.5380   -1.2050 O.2   125  GLN125     -0.2717
     43  NE2       16.6920   14.5100   -0.1550 N.am  125  GLN125     -0.0878
     44  N         19.4490   16.8540   -4.6530 N.am  126  LEU126     -0.1963
     45  CA        19.6200   17.6430   -5.8720 C.3   126  LEU126      0.1728
     46  C         18.3890   18.5280   -6.0360 C.2   126  LEU126      0.2617
     47  O         17.2950   18.1400   -5.6220 O.2   126  LEU126     -0.2715
     48  CB        19.7720   16.7420   -7.1010 C.3   126  LEU126      0.0311
     49  CG        20.9490   15.7700   -7.0680 C.3   126  LEU126      0.0022
     50  CD1       20.7510   14.7210   -5.9860 C.3   126  LEU126      0.0001
     51  CD2       21.1480   15.1030   -8.4200 C.3   126  LEU126      0.0001
     52  N         18.5800   19.7010   -6.6250 N.am  127  GLY127     -0.1940
     53  CA        17.4510   20.5320   -7.0150 C.3   127  GLY127      0.2014
     54  C         17.1890   20.3910   -8.4980 C.2   127  GLY127      0.2639
     55  O         18.0660   20.6840   -9.3280 O.2   127  GLY127     -0.2714
     56  N         15.9820   19.9480   -8.8170 N.am  128  ILE128     -0.1963
     57  CA        15.5980   19.6280  -10.1940 C.3   128  ILE128      0.1712
     58  C         14.5890   20.6760  -10.6860 C.2   128  ILE128      0.2458
     59  O         13.4150   20.6010  -10.3570 O.2   128  ILE128     -0.2730
     60  CB        15.0470   18.1840  -10.2490 C.3   128  ILE128      0.0289
     61  CG1       16.1370   17.1730   -9.8690 C.3   128  ILE128      0.0022
     62  CG2       14.4370   17.8850  -11.6100 C.3   128  ILE128      0.0023
     63  CD1       15.6170   15.8330   -9.4140 C.3   128  ILE128      0.0001
     64  N         15.0420   21.6620  -11.4790 N.am  129  PRO129     -0.2727
     65  CA        14.0760   22.6440  -11.9710 C.3   129  PRO129      0.1402
     66  C         12.9500   21.9670  -12.7710 C.2   129  PRO129      0.2269
     67  O         13.2260   21.1040  -13.6100 O.2   129  PRO129     -0.2865
     68  CB        14.8790   23.6020  -12.8700 C.3   129  PRO129      0.0296
     69  CG        16.2950   23.4450  -12.3870 C.3   129  PRO129      0.0237
     70  CD        16.3780   21.9810  -12.0090 C.3   129  PRO129      0.0939
     71  N         10.4520   21.7240  -15.7390 N.3   131  GLN131     -0.1245
     72  CA        10.7690   22.1170  -17.1020 C.3   131  GLN131      0.1566
     73  C          9.7650   21.5270  -18.0890 C.2   131  GLN131      0.2260
     74  O          8.9990   20.6080  -17.7890 O.2   131  GLN131     -0.2867
     75  CB        12.1890   21.6970  -17.4860 C.3   131  GLN131      0.0367
     76  CG        12.4460   20.1970  -17.4370 C.3   131  GLN131      0.0905
     77  CD        13.9140   19.9460  -17.2070 C.2   131  GLN131      0.2608
     78  OE1       14.3470   19.6200  -16.0980 O.2   131  GLN131     -0.2717
     79  NE2       14.6980   20.1550  -18.2520 N.am  131  GLN131     -0.0878
     80  N          9.4200   19.6320  -21.5280 N.3   133  TYR133     -0.1241
     81  CA        10.2210   18.6650  -22.2460 C.3   133  TYR133      0.1605
     82  C          9.8750   18.7710  -23.7360 C.2   133  TYR133      0.2264
     83  O          8.7780   19.0410  -24.0750 O.2   133  TYR133     -0.2867
     84  CB        10.0340   17.2670  -21.6210 C.3   133  TYR133      0.0534
     85  CG        10.6910   17.1030  -20.2710 C.ar  133  TYR133     -0.0201
     86  CD1       12.0270   16.7260  -20.1550 C.ar  133  TYR133     -0.0009
     87  CD2        9.9870   17.3370  -19.0960 C.ar  133  TYR133     -0.0009
     88  CE1       12.6470   16.6050  -18.9130 C.ar  133  TYR133      0.0417
     89  CE2       10.5900   17.2170  -17.8480 C.ar  133  TYR133      0.0417
     90  CZ        11.9280   16.8560  -17.7530 C.ar  133  TYR133      0.1957
     91  OH        12.5150   16.7530  -16.5160 O.3   133  TYR133     -0.2866
     92  N         20.3640   16.7120  -24.3450 N.3   229  ASP229     -0.1225
     93  CA        21.4220   16.9370  -23.3370 C.3   229  ASP229      0.1805
     94  C         20.8510   17.1310  -21.9210 C.2   229  ASP229      0.2598
     95  O         21.4000   17.9090  -21.1380 O.2   229  ASP229     -0.2718
     96  CB        22.2970   18.1290  -23.7440 C.3   229  ASP229      0.1424
     97  CG        23.7130   17.7240  -24.1090 C.2   229  ASP229      0.3668
     98  OD1       24.3720   17.0790  -23.2680 O.co2 229  ASP229     -0.2456
     99  OD2       24.1400   18.0440  -25.2340 O.co2 229  ASP229     -0.2456
    100  N         19.7790   16.4250  -21.5750 N.am  230  VAL230     -0.1966
    101  CA        19.1600   16.5540  -20.2470 C.3   230  VAL230      0.1712
    102  C         18.6310   15.1720  -19.8210 C.2   230  VAL230      0.2458
    103  O         18.3130   14.3430  -20.6760 O.2   230  VAL230     -0.2730
    104  CB        18.0890   17.6610  -20.2800 C.3   230  VAL230      0.0289
    105  CG1       16.7230   17.2060  -19.7920 C.3   230  VAL230      0.0023
    106  CG2       18.5620   18.8950  -19.5250 C.3   230  VAL230      0.0023
    107  N         18.5820   14.8880  -18.5070 N.am  231  PRO231     -0.2727
    108  CA        18.2180   13.4940  -18.1970 C.3   231  PRO231      0.1402
    109  C         16.7680   13.1540  -18.5800 C.2   231  PRO231      0.2269
    110  O         15.8620   13.9920  -18.4340 O.2   231  PRO231     -0.2865
    111  CB        18.4160   13.3270  -16.6940 C.3   231  PRO231      0.0296
    112  CG        19.4040   14.4260  -16.3410 C.3   231  PRO231      0.0237
    113  CD        19.0990   15.5490  -17.3130 C.3   231  PRO231      0.0939
    114  N         15.1290    9.3350  -12.9610 N.3   247  TYR247     -0.1241
    115  CA        15.8860   10.1610  -13.9140 C.3   247  TYR247      0.1605
    116  C         17.1010    9.3770  -14.3770 C.2   247  TYR247      0.2264
    117  O         17.6830    8.7210  -13.5690 O.2   247  TYR247     -0.2867
    118  CB        16.3480   11.4490  -13.2270 C.3   247  TYR247      0.0534
    119  CG        15.2260   12.3830  -12.8710 C.ar  247  TYR247     -0.0201
    120  CD1       14.4160   12.1470  -11.7770 C.ar  247  TYR247     -0.0009
    121  CD2       14.9650   13.4930  -13.6510 C.ar  247  TYR247     -0.0009
    122  CE1       13.4010   13.0270  -11.4340 C.ar  247  TYR247      0.0417
    123  CE2       13.9320   14.3650  -13.3420 C.ar  247  TYR247      0.0417
    124  CZ        13.1420   14.1190  -12.2400 C.ar  247  TYR247      0.1957
    125  OH        12.1240   14.9630  -11.9550 O.3   247  TYR247     -0.2866
@<TRIPOS>BOND
     1    99    97   ar
     2    92    93    1
     3    97    96    1
     4    97    98   ar
     5    83    82    2
     6    96    93    1
     7    82    81    1
     8    93    94    1
     9    81    84    1
    10    81    80    1
    11    94   100   am
    12    94    95    2
    13    84    85    1
    14   100   101    1
    15   103   102    2
    16   104   101    1
    17   104   105    1
    18   104   106    1
    19    85    86   ar
    20    85    87   ar
    21   101   102    1
    22    86    88   ar
    23   102   107   am
    24    87    89   ar
    25    88    90   ar
    26   109   110    2
    27   109   108    1
    28   107   108    1
    29   107   113    1
    30    79    77   am
    31   108   111    1
    32    73    74    2
    33    73    72    1
    34    89    90   ar
    35    90    91    1
    36    75    76    1
    37    75    72    1
    38    76    77    1
    39   113   112    1
    40    77    78    2
    41    72    71    1
    42   111   112    1
    43   116   115    1
    44   116   117    2
    45   115   118    1
    46   115   114    1
    47   121   123   ar
    48   121   119   ar
    49    67    66    2
    50   123   124   ar
    51   118   119    1
    52   119   120   ar
    53    68    69    1
    54    68    65    1
    55    66    65    1
    56    69    70    1
    57   124   125    1
    58   124   122   ar
    59    70    64    1
    60    65    64    1
    61   120   122   ar
    62    12    11    2
    63    62    60    1
    64    64    58   am
    65    11    10    1
    66    58    59    2
    67    58    57    1
    68    60    57    1
    69    60    61    1
    70    57    56    1
    71    61    63    1
    72    10     9    1
    73    10    13    1
    74    13    14    1
    75    55    54    2
    76    56    54   am
    77    54    53    1
    78    51    49    1
    79     7     6    1
    80     7     8    1
    81    14    15   ar
    82    14    16   ar
    83     6     5    1
    84    15    17   ar
    85    48    49    1
    86    48    45    1
    87    49    50    1
    88    53    52    1
    89    16    18   ar
    90     5     2    1
    91    52    46   am
    92     2     3    1
    93     2     1    1
    94     3     4    2
    95    46    45    1
    96    46    47    2
    97    17    18   ar
    98    45    44    1
    99    44    37   am
   100    33    32   ar
   101    37    38    2
   102    37    36    1
   103    32    34   ar
   104    32    31    1
   105    29    28    2
   106    30    31    2
   107    30    27    1
   108    36    35    1
   109    36    39    1
   110    28    35   am
   111    28    27    1
   112    27    26    1
   113    39    40    1
   114    42    41    2
   115    41    40    1
   116    41    43   am
   117    26    21   am
   118    24    23    1
   119    21    22    2
   120    21    20    1
   121    23    20    1
   122    23    25    1
   123    20    19    1
