@<TRIPOS>MOLECULE
tmp/6hvrV00.pdb
 151 143 0 0 0
SMALL
GASTEIGER

@<TRIPOS>ATOM
      1  N          4.3920 -158.7340   43.7520 N.3     1  THR1       -0.1218
      2  CA         3.9160 -159.9360   44.3730 C.3     1  THR1        0.1862
      3  C          3.9110 -159.8470   45.8760 C.2     1  THR1        0.2287
      4  O          4.8840 -159.4360   46.4630 O.2     1  THR1       -0.2866
      5  CB         4.8310 -161.1070   44.0830 C.3     1  THR1        0.1770
      6  OG1        4.9540 -161.5770   42.7640 O.3     1  THR1       -0.2211
      7  CG2        4.4780 -162.2880   44.9430 C.3     1  THR1        0.0375
      8  N         -1.3930 -161.2910   40.7380 N.3    19  ARG19      -0.1231
      9  CA        -0.8840 -160.4460   39.6540 C.3    19  ARG19       0.1694
     10  C          0.5170 -160.8400   39.1800 C.2    19  ARG19       0.2592
     11  O          1.4580 -160.9170   39.9730 O.2    19  ARG19      -0.2718
     12  CB        -0.8710 -158.9790   40.0710 C.3    19  ARG19       0.0321
     13  CG        -0.2220 -158.0630   39.0380 C.3    19  ARG19       0.0489
     14  CD        -0.2700 -156.6180   39.4690 C.3    19  ARG19       0.2205
     15  NE        -1.6230 -156.0810   39.4080 N.pl3  19  ARG19      -0.0865
     16  CZ        -1.9700 -154.8620   39.8130 C.cat  19  ARG19       0.5346
     17  NH1       -1.0670 -154.0260   40.3230 N.pl3  19  ARG19       0.1354
     18  NH2       -3.2370 -154.4750   39.7160 N.pl3  19  ARG19       0.1354
     19  N          0.6470 -161.0210   37.8680 N.am   20  ALA20      -0.1966
     20  CA         1.9320 -161.2360   37.2160 C.3    20  ALA20       0.1728
     21  C          2.2070 -160.0030   36.3740 C.2    20  ALA20       0.2617
     22  O          1.2910 -159.4860   35.7260 O.2    20  ALA20      -0.2715
     23  CB         1.8700 -162.4750   36.3420 C.3    20  ALA20       0.0334
     24  N          3.4500 -159.5260   36.3900 N.am   21  THR21      -0.1937
     25  CA         3.8110 -158.2960   35.6920 C.3    21  THR21       0.2028
     26  C          5.0530 -158.4220   34.8310 C.2    21  THR21       0.2642
     27  O          5.8970 -159.2730   35.0530 O.2    21  THR21      -0.2714
     28  CB         4.0480 -157.1420   36.6790 C.3    21  THR21       0.1808
     29  OG1        4.9640 -157.5620   37.7020 O.3    21  THR21      -0.2208
     30  CG2        2.7440 -156.7270   37.3150 C.3    21  THR21       0.0379
     31  N          5.1310 -157.5500   33.8340 N.am   22  ASN22      -0.1957
     32  CA         6.3220 -157.3680   33.0230 C.3    22  ASN22       0.1819
     33  C          6.6650 -155.8840   33.1170 C.2    22  ASN22       0.2621
     34  O          6.0480 -155.0500   32.4470 O.2    22  ASN22      -0.2715
     35  CB         6.0490 -157.7880   31.5780 C.3    22  ASN22       0.1195
     36  CG         7.3120 -158.1750   30.8400 C.2    22  ASN22       0.2630
     37  OD1        7.4160 -159.2890   30.3270 O.2    22  ASN22      -0.2716
     38  ND2        8.2890 -157.2710   30.8030 N.am   22  ASN22      -0.0877
     39  N          7.6300 -155.5600   33.9760 N.am   23  ASP23      -0.1971
     40  CA         7.9430 -154.1750   34.3170 C.3    23  ASP23       0.1709
     41  C          6.6580 -153.5080   34.8640 C.2    23  ASP23       0.2293
     42  O          6.1640 -153.9220   35.9180 O.2    23  ASP23      -0.2864
     43  CB         8.5810 -153.4280   33.1160 C.3    23  ASP23       0.1436
     44  CG        10.0570 -153.7760   32.9050 C.2    23  ASP23       0.3671
     45  OD1       10.8010 -153.9210   33.9020 O.co2  23  ASP23      -0.2456
     46  OD2       10.4810 -153.8740   31.7280 O.co2  23  ASP23      -0.2456
     47  N          0.6520 -158.6260   32.9620 N.3    27  ALA27      -0.1231
     48  CA         0.5190 -159.7380   32.0230 C.3    27  ALA27       0.1694
     49  C         -0.6570 -160.6500   32.3670 C.2    27  ALA27       0.2592
     50  O         -1.4110 -161.0480   31.4730 O.2    27  ALA27      -0.2718
     51  CB         1.8020 -160.5420   31.9760 C.3    27  ALA27       0.0304
     52  N         -0.8030 -160.9770   33.6550 N.am   28  ASP28      -0.1974
     53  CA        -1.8430 -161.9000   34.1260 C.3    28  ASP28       0.1709
     54  C         -2.5390 -161.3440   35.3670 C.2    28  ASP28       0.2293
     55  O         -1.8780 -160.9710   36.3360 O.2    28  ASP28      -0.2864
     56  CB        -1.2250 -163.2680   34.4440 C.3    28  ASP28       0.1436
     57  CG        -2.2620 -164.3950   34.5400 C.2    28  ASP28       0.3671
     58  OD1       -1.8400 -165.5710   34.5300 O.co2  28  ASP28      -0.2456
     59  OD2       -3.4830 -164.1300   34.6340 O.co2  28  ASP28      -0.2456
     60  N         -3.2010 -165.3980   38.2270 N.3    31  CYS31      -0.1221
     61  CA        -2.1690 -166.4150   38.1650 C.3    31  CYS31       0.1808
     62  C         -2.0610 -167.0470   39.5390 C.2    31  CYS31       0.2601
     63  O         -2.4100 -166.4250   40.5420 O.2    31  CYS31      -0.2717
     64  CB        -0.8370 -165.8030   37.7360 C.3    31  CYS31       0.0970
     65  SG        -0.0530 -164.7640   38.9850 S.3    31  CYS31      -0.0800
     66  N         -1.5920 -168.2890   39.5780 N.am   32  GLU32      -0.1965
     67  CA        -1.5040 -169.0410   40.8260 C.3    32  GLU32       0.1733
     68  C         -0.0620 -169.0410   41.2930 C.2    32  GLU32       0.2616
     69  O          0.7950 -169.6840   40.6830 O.2    32  GLU32      -0.2715
     70  CB        -2.0180 -170.4680   40.6420 C.3    32  GLU32       0.0429
     71  CG        -3.2980 -170.5650   39.8210 C.3    32  GLU32       0.1163
     72  CD        -3.9360 -171.9450   39.8690 C.2    32  GLU32       0.3649
     73  OE1       -4.2670 -172.4240   40.9750 O.co2  32  GLU32      -0.2457
     74  OE2       -4.1180 -172.5540   38.7930 O.co2  32  GLU32      -0.2457
     75  N          0.2010 -168.2940   42.3610 N.am   33  LYS33      -0.1977
     76  CA         1.5430 -168.1960   42.9280 C.3    33  LYS33       0.1596
     77  C          1.7750 -169.1940   44.0480 C.2    33  LYS33       0.2287
     78  O          2.8970 -169.3100   44.5320 O.2    33  LYS33      -0.2864
     79  CB         1.7910 -166.7870   43.4430 C.3    33  LYS33       0.0298
     80  CG         1.6300 -165.7340   42.3700 C.3    33  LYS33       0.0038
     81  CD         1.8810 -164.3530   42.9220 C.3    33  LYS33       0.0206
     82  CE         1.5980 -163.3130   41.8590 C.3    33  LYS33       0.1093
     83  NZ         1.9190 -161.9590   42.3540 N.3    33  LYS33      -0.1314
     84  N          2.2400 -172.7710   44.6180 N.3    35  HIS35      -0.1241
     85  CA         2.5930 -173.9490   43.8480 C.3    35  HIS35       0.1621
     86  C          2.4310 -175.1980   44.6780 C.2    35  HIS35       0.2264
     87  O          2.5620 -175.1770   45.9030 O.2    35  HIS35      -0.2867
     88  CB         4.0270 -173.8500   43.3440 C.3    35  HIS35       0.0745
     89  CG         4.2920 -172.6110   42.5520 C.ar   35  HIS35       0.0817
     90  ND1        4.8910 -171.4960   43.0950 N.ar   35  HIS35      -0.2268
     91  CD2        4.0130 -172.2990   41.2640 C.ar   35  HIS35       0.1154
     92  CE1        4.9840 -170.5560   42.1720 C.ar   35  HIS35       0.1986
     93  NE2        4.4590 -171.0190   41.0510 N.ar   35  HIS35      -0.2212
     94  N          5.4810 -168.5730   45.6020 N.3    45  GLY45      -0.1210
     95  CA         6.6070 -168.1610   44.7640 C.3    45  GLY45       0.1956
     96  C          6.6100 -166.6750   44.4750 C.2    45  GLY45       0.2612
     97  O          5.5640 -166.0680   44.2680 O.2    45  GLY45      -0.2717
     98  N          7.8020 -166.0940   44.4820 N.am   46  ALA46      -0.1965
     99  CA         8.0160 -164.7060   44.0850 C.3    46  ALA46       0.1728
    100  C          9.3380 -164.6060   43.3360 C.2    46  ALA46       0.2617
    101  O         10.0810 -165.5800   43.2410 O.2    46  ALA46      -0.2715
    102  CB         8.0130 -163.8000   45.3030 C.3    46  ALA46       0.0334
    103  N          9.6380 -163.4250   42.8180 N.am   47  GLY47      -0.1940
    104  CA        10.7710 -163.2280   41.9200 C.3    47  GLY47       0.2014
    105  C         10.4200 -163.5750   40.4790 C.2    47  GLY47       0.2639
    106  O          9.3230 -163.2670   40.0060 O.2    47  GLY47      -0.2714
    107  N         11.3530 -164.2290   39.7920 N.am   48  VAL48      -0.1963
    108  CA        11.1710 -164.6130   38.3930 C.3    48  VAL48       0.1727
    109  C         10.1480 -165.7520   38.3360 C.2    48  VAL48       0.2616
    110  O         10.3540 -166.8050   38.9360 O.2    48  VAL48      -0.2715
    111  CB        12.5010 -165.0600   37.7460 C.3    48  VAL48       0.0290
    112  CG1       12.2950 -165.4660   36.2890 C.3    48  VAL48       0.0023
    113  CG2       13.5390 -163.9460   37.8160 C.3    48  VAL48       0.0023
    114  N          9.0520 -165.5190   37.6170 N.am   49  ALA49      -0.1963
    115  CA         7.8970 -166.4240   37.6170 C.3    49  ALA49       0.1728
    116  C          8.1950 -167.7960   37.0220 C.2    49  ALA49       0.2616
    117  O          7.7800 -168.8120   37.5770 O.2    49  ALA49      -0.2715
    118  CB         6.7210 -165.7820   36.8930 C.3    49  ALA49       0.0334
    119  N          8.9110 -167.8240   35.9010 N.am   50  ALA50      -0.1977
    120  CA         9.3100 -169.0910   35.2890 C.3    50  ALA50       0.1597
    121  C         10.1940 -169.9080   36.2350 C.2    50  ALA50       0.2287
    122  O         10.0310 -171.1240   36.3350 O.2    50  ALA50      -0.2864
    123  CB        10.0320 -168.8540   33.9750 C.3    50  ALA50       0.0319
    124  N         10.4120 -169.6970   39.6820 N.3    52  ALA52      -0.1231
    125  CA         9.6450 -170.1710   40.8380 C.3    52  ALA52       0.1694
    126  C          8.7750 -171.3650   40.4640 C.2    52  ALA52       0.2591
    127  O          8.6750 -172.3340   41.2190 O.2    52  ALA52      -0.2718
    128  CB         8.7820 -169.0570   41.4030 C.3    52  ALA52       0.0304
    129  N          8.1560 -171.2840   39.2900 N.am   53  GLU53      -0.1979
    130  CA         7.3370 -172.3710   38.7570 C.3    53  GLU53       0.1602
    131  C          8.1750 -173.6250   38.4650 C.2    53  GLU53       0.2287
    132  O          7.8110 -174.7240   38.8790 O.2    53  GLU53      -0.2864
    133  CB         6.6250 -171.9050   37.4830 C.3    53  GLU53       0.0415
    134  CG         5.5720 -172.8670   36.9420 C.3    53  GLU53       0.1163
    135  CD         4.2320 -172.7810   37.6630 C.2    53  GLU53       0.3649
    136  OE1        3.7000 -171.6610   37.8210 O.co2  53  GLU53      -0.2457
    137  OE2        3.6920 -173.8430   38.0530 O.co2  53  GLU53      -0.2457
    138  N          8.4080 -160.9550   48.3540 N.3   128  GLY128     -0.1210
    139  CA         7.9770 -160.2000   47.1730 C.3   128  GLY128      0.1956
    140  C          7.9410 -158.7030   47.4280 C.2   128  GLY128      0.2612
    141  O          8.2460 -158.2410   48.5290 O.2   128  GLY128     -0.2717
    142  N          7.5520 -157.9430   46.4070 N.am  129  SER129     -0.1952
    143  CA         7.5340 -156.4730   46.4820 C.3   129  SER129      0.1924
    144  C          6.5040 -155.9220   47.4780 C.2   129  SER129      0.2314
    145  O          6.6290 -154.7870   47.9460 O.2   129  SER129     -0.2863
    146  CB         7.2940 -155.8680   45.0940 C.3   129  SER129      0.2116
    147  OG         6.0550 -156.2970   44.5530 O.3   129  SER129     -0.2180
    148  N          3.2580 -153.6430   42.4610 N.3   168  GLY168     -0.1225
    149  CA         3.6120 -154.9850   41.9900 C.3   168  GLY168      0.1811
    150  C          2.5570 -156.0550   42.2400 C.2   168  GLY168      0.2280
    151  O          2.5030 -157.0550   41.5200 O.2   168  GLY168     -0.2866
@<TRIPOS>BOND
     1    37    36    2
     2    38    36   am
     3    36    35    1
     4    50    49    2
     5    35    32    1
     6    46    44   ar
     7    51    48    1
     8    48    49    1
     9    48    47    1
    10    49    52   am
    11    34    33    2
    12    44    43    1
    13    44    45   ar
    14    32    33    1
    15    32    31    1
    16    43    40    1
    17    33    39   am
    18    52    53    1
    19    31    26   am
    20   123   120    1
    21    39    40    1
    22    53    56    1
    23    53    54    1
    24    40    41    1
    25    56    57    1
    26    58    57   ar
    27    57    59   ar
    28    26    27    2
    29    26    25    1
    30    41    42    2
    31   120   119    1
    32   120   121    1
    33    54    55    2
    34    25    24    1
    35    25    28    1
    36    22    21    2
    37   119   116   am
    38   121   122    2
    39   112   111    1
    40    23    20    1
    41    21    24   am
    42    21    20    1
    43    28    30    1
    44    28    29    1
    45   118   115    1
    46   134   133    1
    47   134   135    1
    48   116   117    2
    49   116   115    1
    50    20    19    1
    51   133   130    1
    52   115   114    1
    53   114   109   am
    54   135   136   ar
    55   135   137   ar
    56    64    61    1
    57    64    65    1
    58   111   113    1
    59   111   108    1
    60    19    10   am
    61    61    60    1
    62    61    62    1
    63   109   108    1
    64   109   110    2
    65   108   107    1
    66   131   130    1
    67   131   132    2
    68   130   129    1
    69    74    72   ar
    70    13    14    1
    71    13    12    1
    72    10     9    1
    73    10    11    2
    74   129   126   am
    75    15    14    1
    76    15    16    2
    77    62    66   am
    78    62    63    2
    79    66    67    1
    80     9    12    1
    81     9     8    1
    82   124   125    1
    83    18    16    1
    84   107   105   am
    85    16    17    1
    86    71    72    1
    87    71    70    1
    88    72    73   ar
    89   106   105    2
    90   126   125    1
    91   126   127    2
    92   105   104    1
    93    70    67    1
    94    69    68    2
    95    67    68    1
    96   125   128    1
    97    93    91   ar
    98    93    92   ar
    99    91    89   ar
   100    68    75   am
   101   151   150    2
   102    82    83    1
   103    82    81    1
   104   104   103    1
   105   149   150    1
   106   149   148    1
   107    92    90   ar
   108    75    76    1
   109    80    81    1
   110    80    79    1
   111    89    90   ar
   112    89    88    1
   113     6     5    1
   114   103   100   am
   115    76    79    1
   116    76    77    1
   117   101   100    2
   118   100    99    1
   119    88    85    1
   120     1     2    1
   121    85    84    1
   122    85    86    1
   123    77    78    2
   124     5     2    1
   125     5     7    1
   126    99    98    1
   127    99   102    1
   128    97    96    2
   129     2     3    1
   130    96    98   am
   131    96    95    1
   132   147   146    1
   133    86    87    2
   134    95    94    1
   135   146   143    1
   136     3     4    2
   137   142   143    1
   138   142   140   am
   139   143   144    1
   140   139   140    1
   141   139   138    1
   142   140   141    2
   143   144   145    2
