@<TRIPOS>MOLECULE
tmp/6hvtV00.pdb
 151 143 0 0 0
SMALL
GASTEIGER

@<TRIPOS>ATOM
      1  N          4.4550 -159.1330   43.7580 N.3     1  THR1       -0.1218
      2  CA         4.0170 -160.3640   44.4690 C.3     1  THR1        0.1862
      3  C          3.9320 -160.0900   45.9690 C.2     1  THR1        0.2287
      4  O          4.7650 -159.3820   46.5330 O.2     1  THR1       -0.2866
      5  CB         4.9780 -161.5360   44.1940 C.3     1  THR1        0.1770
      6  OG1        4.8890 -161.8720   42.8100 O.3     1  THR1       -0.2211
      7  CG2        4.5910 -162.8020   44.9800 C.3     1  THR1        0.0375
      8  N         -1.3500 -161.6360   40.8420 N.3    19  ARG19      -0.1231
      9  CA        -0.8310 -160.7840   39.7680 C.3    19  ARG19       0.1694
     10  C          0.5780 -161.1730   39.3110 C.2    19  ARG19       0.2592
     11  O          1.4870 -161.3240   40.1240 O.2    19  ARG19      -0.2718
     12  CB        -0.8300 -159.3210   40.2000 C.3    19  ARG19       0.0321
     13  CG        -0.1070 -158.3860   39.2350 C.3    19  ARG19       0.0489
     14  CD        -0.1940 -156.9440   39.6970 C.3    19  ARG19       0.2205
     15  NE        -1.5200 -156.3760   39.4810 N.pl3  19  ARG19      -0.0865
     16  CZ        -1.9080 -155.1660   39.8820 C.cat  19  ARG19       0.5346
     17  NH1       -1.0760 -154.3590   40.5420 N.pl3  19  ARG19       0.1354
     18  NH2       -3.1470 -154.7560   39.6220 N.pl3  19  ARG19       0.1354
     19  N          0.7460 -161.2760   37.9950 N.am   20  ALA20      -0.1966
     20  CA         2.0480 -161.4750   37.3610 C.3    20  ALA20       0.1728
     21  C          2.3160 -160.2460   36.5100 C.2    20  ALA20       0.2617
     22  O          1.4090 -159.7580   35.8280 O.2    20  ALA20      -0.2715
     23  CB         2.0340 -162.7220   36.4960 C.3    20  ALA20       0.0334
     24  N          3.5490 -159.7460   36.5530 N.am   21  THR21      -0.1937
     25  CA         3.9020 -158.5080   35.8750 C.3    21  THR21       0.2028
     26  C          5.1270 -158.6640   35.0020 C.2    21  THR21       0.2642
     27  O          6.0120 -159.4620   35.2910 O.2    21  THR21      -0.2714
     28  CB         4.1920 -157.3870   36.8810 C.3    21  THR21       0.1808
     29  OG1        5.2250 -157.8080   37.7820 O.3    21  THR21      -0.2208
     30  CG2        2.9470 -157.0440   37.6670 C.3    21  THR21       0.0379
     31  N          5.1500 -157.8780   33.9300 N.am   22  ASN22      -0.1957
     32  CA         6.3120 -157.7160   33.0730 C.3    22  ASN22       0.1819
     33  C          6.6140 -156.2270   33.1000 C.2    22  ASN22       0.2621
     34  O          5.9420 -155.4370   32.4310 O.2    22  ASN22      -0.2715
     35  CB         5.9950 -158.1870   31.6460 C.3    22  ASN22       0.1195
     36  CG         7.2400 -158.5710   30.8610 C.2    22  ASN22       0.2630
     37  OD1        7.2960 -159.6520   30.2710 O.2    22  ASN22      -0.2716
     38  ND2        8.2440 -157.6960   30.8520 N.am   22  ASN22      -0.0877
     39  N          7.6020 -155.8340   33.8980 N.am   23  ASP23      -0.1971
     40  CA         7.9310 -154.4200   34.0660 C.3    23  ASP23       0.1709
     41  C          6.7080 -153.7170   34.7070 C.2    23  ASP23       0.2293
     42  O          6.3390 -154.0730   35.8310 O.2    23  ASP23      -0.2864
     43  CB         8.4120 -153.8160   32.7160 C.3    23  ASP23       0.1436
     44  CG         9.8980 -153.5110   32.7000 C.2    23  ASP23       0.3671
     45  OD1       10.3620 -152.7800   33.6070 O.co2  23  ASP23      -0.2456
     46  OD2       10.5970 -153.9800   31.7660 O.co2  23  ASP23      -0.2456
     47  N          0.8090 -158.9350   33.1210 N.3    27  ALA27      -0.1231
     48  CA         0.7600 -160.0740   32.2180 C.3    27  ALA27       0.1694
     49  C         -0.4140 -161.0030   32.5320 C.2    27  ALA27       0.2592
     50  O         -1.1100 -161.4420   31.6150 O.2    27  ALA27      -0.2718
     51  CB         2.0540 -160.8350   32.3060 C.3    27  ALA27       0.0304
     52  N         -0.6150 -161.2940   33.8230 N.am   28  ASP28      -0.1974
     53  CA        -1.6510 -162.2230   34.2860 C.3    28  ASP28       0.1709
     54  C         -2.3820 -161.6420   35.4960 C.2    28  ASP28       0.2293
     55  O         -1.7510 -161.1600   36.4390 O.2    28  ASP28      -0.2864
     56  CB        -1.0270 -163.5780   34.6630 C.3    28  ASP28       0.1436
     57  CG        -2.0360 -164.7350   34.6490 C.2    28  ASP28       0.3671
     58  OD1       -1.5890 -165.9030   34.5880 O.co2  28  ASP28      -0.2456
     59  OD2       -3.2640 -164.4970   34.7030 O.co2  28  ASP28      -0.2456
     60  N         -3.1170 -165.8050   38.2860 N.3    31  CYS31      -0.1221
     61  CA        -2.0750 -166.8190   38.2650 C.3    31  CYS31       0.1808
     62  C         -2.0030 -167.4620   39.6400 C.2    31  CYS31       0.2601
     63  O         -2.3200 -166.8310   40.6500 O.2    31  CYS31      -0.2717
     64  CB        -0.7300 -166.2090   37.8510 C.3    31  CYS31       0.0970
     65  SG         0.0720 -165.1560   39.0800 S.3    31  CYS31      -0.0800
     66  N         -1.6070 -168.7290   39.6650 N.am   32  GLU32      -0.1965
     67  CA        -1.5140 -169.4890   40.9020 C.3    32  GLU32       0.1733
     68  C         -0.0610 -169.4510   41.3570 C.2    32  GLU32       0.2616
     69  O          0.8130 -170.0530   40.7270 O.2    32  GLU32      -0.2715
     70  CB        -1.9960 -170.9300   40.6910 C.3    32  GLU32       0.0429
     71  CG        -3.3360 -171.0470   39.9710 C.3    32  GLU32       0.1163
     72  CD        -3.8540 -172.4800   39.8900 C.2    32  GLU32       0.3649
     73  OE1       -4.2990 -173.0240   40.9250 O.co2  32  GLU32      -0.2457
     74  OE2       -3.8280 -173.0610   38.7800 O.co2  32  GLU32      -0.2457
     75  N          0.1940 -168.7090   42.4320 N.am   33  LYS33      -0.1977
     76  CA         1.5370 -168.5900   43.0020 C.3    33  LYS33       0.1596
     77  C          1.7980 -169.5770   44.1260 C.2    33  LYS33       0.2287
     78  O          2.9240 -169.6520   44.6200 O.2    33  LYS33      -0.2864
     79  CB         1.7570 -167.1840   43.5310 C.3    33  LYS33       0.0298
     80  CG         1.5550 -166.1240   42.4790 C.3    33  LYS33       0.0038
     81  CD         1.8690 -164.7620   43.0400 C.3    33  LYS33       0.0206
     82  CE         1.6320 -163.7100   41.9860 C.3    33  LYS33       0.1093
     83  NZ         2.0030 -162.3840   42.5160 N.3    33  LYS33      -0.1314
     84  N          2.3300 -173.1410   44.7050 N.3    35  HIS35      -0.1241
     85  CA         2.6960 -174.3110   43.9300 C.3    35  HIS35       0.1621
     86  C          2.5410 -175.5740   44.7490 C.2    35  HIS35       0.2264
     87  O          2.7120 -175.5730   45.9670 O.2    35  HIS35      -0.2867
     88  CB         4.1330 -174.1850   43.4360 C.3    35  HIS35       0.0745
     89  CG         4.3670 -172.9700   42.5970 C.ar   35  HIS35       0.0817
     90  ND1        4.9370 -171.8180   43.0960 N.ar   35  HIS35      -0.2268
     91  CD2        4.0850 -172.7190   41.2980 C.ar   35  HIS35       0.1154
     92  CE1        5.0100 -170.9150   42.1350 C.ar   35  HIS35       0.1986
     93  NE2        4.5020 -171.4370   41.0340 N.ar   35  HIS35      -0.2212
     94  N          5.5670 -168.8290   45.8050 N.3    45  GLY45      -0.1210
     95  CA         6.7100 -168.3700   45.0100 C.3    45  GLY45       0.1956
     96  C          6.6670 -166.9030   44.6130 C.2    45  GLY45       0.2612
     97  O          5.6170 -166.3650   44.2610 O.2    45  GLY45      -0.2717
     98  N          7.8330 -166.2690   44.6800 N.am   46  ALA46      -0.1965
     99  CA         8.0440 -164.8980   44.2370 C.3    46  ALA46       0.1728
    100  C          9.3400 -164.8740   43.4390 C.2    46  ALA46       0.2617
    101  O         10.0200 -165.8930   43.3260 O.2    46  ALA46      -0.2715
    102  CB         8.1360 -163.9720   45.4320 C.3    46  ALA46       0.0334
    103  N          9.6920 -163.7130   42.9020 N.am   47  GLY47      -0.1940
    104  CA        10.8370 -163.5790   42.0070 C.3    47  GLY47       0.2014
    105  C         10.4720 -163.8780   40.5680 C.2    47  GLY47       0.2639
    106  O          9.3830 -163.5380   40.1210 O.2    47  GLY47      -0.2714
    107  N         11.3880 -164.5160   39.8450 N.am   48  VAL48      -0.1963
    108  CA        11.1620 -164.8840   38.4500 C.3    48  VAL48       0.1727
    109  C         10.1420 -166.0210   38.4350 C.2    48  VAL48       0.2616
    110  O         10.3830 -167.0810   39.0060 O.2    48  VAL48      -0.2715
    111  CB        12.4590 -165.3350   37.7490 C.3    48  VAL48       0.0290
    112  CG1       12.1970 -165.6930   36.2910 C.3    48  VAL48       0.0023
    113  CG2       13.5180 -164.2440   37.8180 C.3    48  VAL48       0.0023
    114  N          9.0090 -165.7790   37.7800 N.am   49  ALA49      -0.1963
    115  CA         7.8630 -166.6960   37.8190 C.3    49  ALA49       0.1728
    116  C          8.1580 -168.0600   37.1980 C.2    49  ALA49       0.2616
    117  O          7.7290 -169.0850   37.7290 O.2    49  ALA49      -0.2715
    118  CB         6.6600 -166.0620   37.1360 C.3    49  ALA49       0.0334
    119  N          8.8740 -168.0620   36.0760 N.am   50  ALA50      -0.1977
    120  CA         9.2930 -169.3030   35.4250 C.3    50  ALA50       0.1597
    121  C         10.1860 -170.1410   36.3390 C.2    50  ALA50       0.2287
    122  O         10.0360 -171.3600   36.4110 O.2    50  ALA50      -0.2864
    123  CB        10.0250 -169.0030   34.1290 C.3    50  ALA50       0.0319
    124  N         10.4440 -169.9770   39.7760 N.3    52  ALA52      -0.1231
    125  CA         9.6860 -170.4570   40.9360 C.3    52  ALA52       0.1694
    126  C          8.8220 -171.6500   40.5550 C.2    52  ALA52       0.2591
    127  O          8.7180 -172.6120   41.3110 O.2    52  ALA52      -0.2718
    128  CB         8.8210 -169.3460   41.5100 C.3    52  ALA52       0.0304
    129  N          8.2170 -171.5760   39.3730 N.am   53  GLU53      -0.1979
    130  CA         7.4060 -172.6640   38.8400 C.3    53  GLU53       0.1602
    131  C          8.2500 -173.9150   38.5650 C.2    53  GLU53       0.2287
    132  O          7.9050 -175.0080   39.0080 O.2    53  GLU53      -0.2864
    133  CB         6.7010 -172.2090   37.5590 C.3    53  GLU53       0.0415
    134  CG         5.6580 -173.1860   37.0220 C.3    53  GLU53       0.1163
    135  CD         4.3310 -173.1410   37.7730 C.2    53  GLU53       0.3649
    136  OE1        3.8150 -172.0310   38.0170 O.co2  53  GLU53      -0.2457
    137  OE2        3.7890 -174.2240   38.1040 O.co2  53  GLU53      -0.2457
    138  N          8.4800 -161.2320   48.5090 N.3   128  GLY128     -0.1210
    139  CA         8.0460 -160.5090   47.3120 C.3   128  GLY128      0.1956
    140  C          8.0250 -159.0140   47.5420 C.2   128  GLY128      0.2612
    141  O          8.3440 -158.5490   48.6270 O.2   128  GLY128     -0.2717
    142  N          7.6310 -158.2620   46.5190 N.am  129  SER129     -0.1952
    143  CA         7.5900 -156.7950   46.5920 C.3   129  SER129      0.1924
    144  C          6.5830 -156.2660   47.6150 C.2   129  SER129      0.2314
    145  O          6.7400 -155.1550   48.1200 O.2   129  SER129     -0.2863
    146  CB         7.2900 -156.1900   45.2170 C.3   129  SER129      0.2116
    147  OG         6.0480 -156.6490   44.7160 O.3   129  SER129     -0.2180
    148  N          3.3300 -153.9480   42.6070 N.3   168  GLY168     -0.1225
    149  CA         3.7080 -155.2920   42.1560 C.3   168  GLY168      0.1811
    150  C          2.6450 -156.3580   42.3800 C.2   168  GLY168      0.2280
    151  O          2.5800 -157.3360   41.6270 O.2   168  GLY168     -0.2866
@<TRIPOS>BOND
     1    37    36    2
     2    38    36   am
     3    36    35    1
     4    50    49    2
     5    35    32    1
     6    46    44   ar
     7    48    51    1
     8    48    49    1
     9    48    47    1
    10    34    33    2
    11    49    52   am
    12    44    43    1
    13    44    45   ar
    14    43    40    1
    15    32    33    1
    16    32    31    1
    17    33    39   am
    18    52    53    1
    19    39    40    1
    20    31    26   am
    21    40    41    1
    22   123   120    1
    23    53    56    1
    24    53    54    1
    25    58    57   ar
    26    57    56    1
    27    57    59   ar
    28    41    42    2
    29    26    27    2
    30    26    25    1
    31   120   119    1
    32   120   121    1
    33    54    55    2
    34    22    21    2
    35    25    24    1
    36    25    28    1
    37   119   116   am
    38   112   111    1
    39   121   122    2
    40    23    20    1
    41    21    24   am
    42    21    20    1
    43    28    30    1
    44    28    29    1
    45   134   133    1
    46   134   135    1
    47   118   115    1
    48   116   117    2
    49   116   115    1
    50    20    19    1
    51   133   130    1
    52   111   113    1
    53   111   108    1
    54   135   136   ar
    55   135   137   ar
    56   114   115    1
    57   114   109   am
    58    64    61    1
    59    64    65    1
    60    19    10   am
    61    61    60    1
    62    61    62    1
    63   109   108    1
    64   109   110    2
    65   108   107    1
    66   131   130    1
    67   131   132    2
    68    74    72   ar
    69   130   129    1
    70    13    14    1
    71    13    12    1
    72    10     9    1
    73    10    11    2
    74   129   126   am
    75    15    14    1
    76    15    16    2
    77    18    16    1
    78    62    66   am
    79    62    63    2
    80    66    67    1
    81     9    12    1
    82     9     8    1
    83   124   125    1
    84   107   105   am
    85    16    17    1
    86    72    71    1
    87    72    73   ar
    88    71    70    1
    89   106   105    2
    90   126   125    1
    91   126   127    2
    92   105   104    1
    93    70    67    1
    94    69    68    2
    95    67    68    1
    96   125   128    1
    97    93    91   ar
    98    93    92   ar
    99    91    89   ar
   100    68    75   am
   101   151   150    2
   102    82    83    1
   103    82    81    1
   104   104   103    1
   105    92    90   ar
   106   149   150    1
   107   149   148    1
   108    75    76    1
   109    80    81    1
   110    80    79    1
   111    89    90   ar
   112    89    88    1
   113     6     5    1
   114   103   100   am
   115    76    79    1
   116    76    77    1
   117   101   100    2
   118    88    85    1
   119   100    99    1
   120     1     2    1
   121    85    84    1
   122    85    86    1
   123    77    78    2
   124     5     2    1
   125     5     7    1
   126    99    98    1
   127    99   102    1
   128    97    96    2
   129     2     3    1
   130    96    98   am
   131    96    95    1
   132   147   146    1
   133    86    87    2
   134    95    94    1
   135   146   143    1
   136     3     4    2
   137   142   143    1
   138   142   140   am
   139   143   144    1
   140   139   140    1
   141   139   138    1
   142   140   141    2
   143   144   145    2
