@<TRIPOS>MOLECULE
tmp/6hvuY00.pdb
 163 156 0 0 0
SMALL
GASTEIGER

@<TRIPOS>ATOM
      1  N         56.8610 -151.8740    8.2190 N.3     1  THR1       -0.1218
      2  CA        57.1040 -152.9530    7.2060 C.3     1  THR1        0.1862
      3  C         56.4690 -152.5700    5.8790 C.2     1  THR1        0.2287
      4  O         55.3580 -152.0410    5.8270 O.2     1  THR1       -0.2866
      5  CB        56.5430 -154.3210    7.6530 C.3     1  THR1        0.1770
      6  OG1       57.3010 -154.7130    8.8040 O.3     1  THR1       -0.2211
      7  CG2       56.6630 -155.4380    6.5970 C.3     1  THR1        0.0375
      8  N         63.1530 -153.5460    8.2190 N.3    19  ARG19      -0.1231
      9  CA        63.0490 -152.9260    9.5450 C.3    19  ARG19       0.1694
     10  C         62.0440 -153.6010   10.4730 C.2    19  ARG19       0.2592
     11  O         60.9210 -153.9010   10.0700 O.2    19  ARG19      -0.2718
     12  CB        62.6740 -151.4500    9.4300 C.3    19  ARG19       0.0321
     13  CG        62.5460 -150.7700   10.7850 C.3    19  ARG19       0.0489
     14  CD        62.4020 -149.2750   10.6530 C.3    19  ARG19       0.2205
     15  NE        63.6440 -148.6440   10.2250 N.pl3  19  ARG19      -0.0865
     16  CZ        63.7820 -147.3420    9.9790 C.cat  19  ARG19       0.5346
     17  NH1       62.7530 -146.5050   10.1110 N.pl3  19  ARG19       0.1354
     18  NH2       64.9620 -146.8670    9.5970 N.pl3  19  ARG19       0.1354
     19  N         62.4410 -153.7730   11.7310 N.am   20  ALA20      -0.1966
     20  CA        61.5500 -154.2550   12.7790 C.3    20  ALA20       0.1728
     21  C         61.4650 -153.1940   13.8600 C.2    20  ALA20       0.2617
     22  O         62.4830 -152.6160   14.2390 O.2    20  ALA20      -0.2715
     23  CB        62.0610 -155.5560   13.3610 C.3    20  ALA20       0.0334
     24  N         60.2530 -152.9510   14.3550 N.am   21  THR21      -0.1937
     25  CA        60.0230 -151.9430   15.3860 C.3    21  THR21       0.2028
     26  C         59.1740 -152.4530   16.5480 C.2    21  THR21       0.2642
     27  O         58.3070 -153.3070   16.3740 O.2    21  THR21      -0.2714
     28  CB        59.3450 -150.6830   14.8030 C.3    21  THR21       0.1808
     29  OG1       58.0340 -151.0070   14.3210 O.3    21  THR21      -0.2208
     30  CG2       60.1650 -150.1040   13.6670 C.3    21  THR21       0.0379
     31  N         59.4540 -151.9230   17.7340 N.am   22  ALA22      -0.1963
     32  CA        58.5950 -152.0820   18.9010 C.3    22  ALA22       0.1728
     33  C         58.1660 -150.6710   19.2570 C.2    22  ALA22       0.2616
     34  O         58.9460 -149.9020   19.8070 O.2    22  ALA22      -0.2715
     35  CB        59.3550 -152.7240   20.0500 C.3    22  ALA22       0.0334
     36  N         56.9320 -150.3190   18.9160 N.am   23  GLY23      -0.1955
     37  CA        56.4680 -148.9490   19.0750 C.3    23  GLY23       0.1869
     38  C         57.2440 -148.0530   18.1230 C.2    23  GLY23       0.2309
     39  O         57.2780 -148.3100   16.9190 O.2    23  GLY23      -0.2863
     40  N         60.5460 -147.5780   18.6200 N.3    25  TRP25      -0.1241
     41  CA        61.9150 -148.0400   18.7630 C.3    25  TRP25       0.1605
     42  C         62.2540 -148.9010   17.5580 C.2    25  TRP25       0.2264
     43  O         61.5220 -149.8400   17.2420 O.2    25  TRP25      -0.2867
     44  CB        62.0490 -148.8340   20.0640 C.3    25  TRP25       0.0550
     45  CG        63.2230 -149.7220   20.1530 C.ar   25  TRP25       0.0003
     46  CD1       63.2240 -151.0820   20.0960 C.ar   25  TRP25       0.0946
     47  CD2       64.5740 -149.3230   20.3350 C.ar   25  TRP25       0.0152
     48  NE1       64.4990 -151.5560   20.2290 N.ar   25  TRP25      -0.2442
     49  CE2       65.3500 -150.4940   20.3780 C.ar   25  TRP25       0.0810
     50  CE3       65.2070 -148.0850   20.4660 C.ar   25  TRP25       0.0012
     51  CZ2       66.7280 -150.4660   20.5470 C.ar   25  TRP25       0.0191
     52  CZ3       66.5720 -148.0550   20.6320 C.ar   25  TRP25       0.0001
     53  CH2       67.3220 -149.2400   20.6700 C.ar   25  TRP25       0.0015
     54  N         63.9560 -151.6930   16.4180 N.3    27  ALA27      -0.1231
     55  CA        64.5150 -152.9040   16.9900 C.3    27  ALA27       0.1694
     56  C         65.6300 -153.4520   16.1280 C.2    27  ALA27       0.2592
     57  O         66.6720 -153.8460   16.6450 O.2    27  ALA27      -0.2718
     58  CB        63.4320 -153.9470   17.1590 C.3    27  ALA27       0.0304
     59  N         65.4130 -153.4650   14.8180 N.am   28  SER28      -0.1952
     60  CA        66.4020 -153.9890   13.8910 C.3    28  SER28       0.1924
     61  C         66.2250 -153.4050   12.5070 C.2    28  SER28       0.2314
     62  O         65.1150 -153.0470   12.1120 O.2    28  SER28      -0.2863
     63  CB        66.3000 -155.5140   13.8240 C.3    28  SER28       0.2116
     64  OG        67.1560 -156.0510   12.8250 O.3    28  SER28      -0.2180
     65  N         66.4040 -157.3610    9.2560 N.3    31  VAL31      -0.1231
     66  CA        65.4570 -158.4510    9.4150 C.3    31  VAL31       0.1692
     67  C         65.1410 -159.0880    8.0650 C.2    31  VAL31       0.2592
     68  O         65.0960 -158.4120    7.0350 O.2    31  VAL31      -0.2718
     69  CB        64.1730 -157.9650   10.1110 C.3    31  VAL31       0.0266
     70  CG1       63.1990 -159.1030   10.3250 C.3    31  VAL31       0.0020
     71  CG2       64.5210 -157.3500   11.4560 C.3    31  VAL31       0.0020
     72  N         64.9270 -160.3980    8.0890 N.am   32  LYS32      -0.1966
     73  CA        64.5230 -161.1420    6.9100 C.3    32  LYS32       0.1728
     74  C         63.0180 -161.3140    6.9170 C.2    32  LYS32       0.2616
     75  O         62.4770 -162.0410    7.7510 O.2    32  LYS32      -0.2715
     76  CB        65.1980 -162.5090    6.8640 C.3    32  LYS32       0.0311
     77  CG        66.6350 -162.4630    6.3590 C.3    32  LYS32       0.0038
     78  CD        67.1500 -163.8520    5.9980 C.3    32  LYS32       0.0206
     79  CE        66.4510 -164.4490    4.7790 C.3    32  LYS32       0.1093
     80  NZ        67.1440 -165.6520    4.2350 N.3    32  LYS32      -0.1314
     81  N         62.3540 -160.6430    5.9820 N.am   33  LYS33      -0.1977
     82  CA        60.8990 -160.7160    5.8430 C.3    33  LYS33       0.1596
     83  C         60.4640 -161.5980    4.6820 C.2    33  LYS33       0.2287
     84  O         59.2880 -161.5970    4.3150 O.2    33  LYS33      -0.2864
     85  CB        60.3360 -159.3110    5.6830 C.3    33  LYS33       0.0298
     86  CG        60.6830 -158.4490    6.8750 C.3    33  LYS33       0.0038
     87  CD        60.1450 -157.0530    6.7550 C.3    33  LYS33       0.0206
     88  CE        60.5810 -156.2600    7.9620 C.3    33  LYS33       0.1093
     89  NZ        60.0140 -154.8990    7.8780 N.3    33  LYS33      -0.1314
     90  N         56.5910 -161.4940    4.8660 N.3    45  MET45      -0.1230
     91  CA        56.1670 -161.3190    6.2590 C.3    45  MET45       0.1702
     92  C         55.8620 -159.8710    6.6310 C.2    45  MET45       0.2592
     93  O         56.6970 -158.9850    6.4590 O.2    45  MET45      -0.2718
     94  CB        57.2410 -161.8560    7.1990 C.3    45  MET45       0.0401
     95  CG        57.5960 -163.3090    6.9630 C.3    45  MET45       0.0596
     96  SD        58.8930 -163.8790    8.0690 S.3    45  MET45      -0.1393
     97  CE        58.9510 -165.5680    7.4760 C.3    45  MET45       0.0692
     98  N         54.6580 -159.6600    7.1540 N.am   46  ALA46      -0.1966
     99  CA        54.2310 -158.3810    7.7140 C.3    46  ALA46       0.1728
    100  C         53.2880 -158.6860    8.8660 C.2    46  ALA46       0.2617
    101  O         52.6520 -159.7300    8.8690 O.2    46  ALA46      -0.2715
    102  CB        53.5160 -157.5550    6.6640 C.3    46  ALA46       0.0334
    103  N         53.1500 -157.7540    9.8020 N.am   47  GLY47      -0.1940
    104  CA        52.4560 -157.9880   11.0740 C.3    47  GLY47       0.2014
    105  C         53.4370 -158.3580   12.1740 C.2    47  GLY47       0.2639
    106  O         54.5600 -157.8460   12.2240 O.2    47  GLY47      -0.2714
    107  N         53.0130 -159.2510   13.0620 N.am   48  GLY48      -0.1939
    108  CA        53.8580 -159.7390   14.1460 C.3    48  GLY48       0.2014
    109  C         55.0520 -160.5270   13.6340 C.2    48  GLY48       0.2639
    110  O         54.8990 -161.4490   12.8290 O.2    48  GLY48      -0.2714
    111  N         56.2390 -160.1530   14.1110 N.am   49  ALA49      -0.1963
    112  CA        57.5040 -160.7750   13.6960 C.3    49  ALA49       0.1728
    113  C         57.5630 -162.2650   14.0050 C.2    49  ALA49       0.2616
    114  O         57.9750 -163.0640   13.1700 O.2    49  ALA49      -0.2715
    115  CB        58.6680 -160.0770   14.3820 C.3    49  ALA49       0.0334
    116  N         57.1820 -162.6070   15.2330 N.am   50  ALA50      -0.1977
    117  CA        57.1860 -163.9840   15.7120 C.3    50  ALA50       0.1597
    118  C         56.1210 -164.8010   15.0320 C.2    50  ALA50       0.2287
    119  O         56.3800 -165.9170   14.6070 O.2    50  ALA50      -0.2864
    120  CB        56.9760 -164.0160   17.2130 C.3    50  ALA50       0.0319
    121  N         54.6290 -164.3730   12.1130 N.3    52  CYS52      -0.1221
    122  CA        55.0260 -164.6370   10.7300 C.3    52  CYS52       0.1808
    123  C         56.1420 -165.6790   10.6320 C.2    52  CYS52       0.2601
    124  O         55.9890 -166.6760    9.9490 O.2    52  CYS52      -0.2717
    125  CB        55.4340 -163.3390   10.0340 C.3    52  CYS52       0.0970
    126  SG        54.0030 -162.2990    9.6710 S.3    52  CYS52      -0.0800
    127  N         57.2400 -165.4560   11.3450 N.am   53  GLN53      -0.1979
    128  CA        58.3690 -166.3990   11.3570 C.3    53  GLN53       0.1601
    129  C         57.9790 -167.8220   11.7160 C.2    53  GLN53       0.2287
    130  O         58.3290 -168.7660   11.0140 O.2    53  GLN53      -0.2864
    131  CB        59.4390 -165.9710   12.3620 C.3    53  GLN53       0.0394
    132  CG        60.7300 -165.4960   11.7390 C.3    53  GLN53       0.0908
    133  CD        61.8400 -165.3770   12.7630 C.2    53  GLN53       0.2608
    134  OE1       62.1100 -166.3090   13.5210 O.2    53  GLN53      -0.2717
    135  NE2       62.4950 -164.2330   12.7850 N.am   53  GLN53      -0.0878
    136  N         48.7350 -161.6270   14.3830 N.3    96  SER96      -0.1217
    137  CA        48.8220 -160.4820   13.4870 C.3    96  SER96       0.1889
    138  C         49.7400 -160.8160   12.3350 C.2    96  SER96       0.2288
    139  O         50.9510 -160.9140   12.5190 O.2    96  SER96      -0.2866
    140  CB        49.3440 -159.2610   14.2360 C.3    96  SER96       0.2089
    141  OG        49.3540 -158.1240   13.3920 O.3    96  SER96      -0.2183
    142  N         51.7030 -154.1310    4.7030 N.3   130  GLY130     -0.1210
    143  CA        52.4560 -153.5180    5.7950 C.3   130  GLY130      0.1956
    144  C         52.0830 -152.0620    5.9790 C.2   130  GLY130      0.2612
    145  O         51.2810 -151.5200    5.2220 O.2   130  GLY130     -0.2717
    146  N         52.6660 -151.4320    6.9980 N.am  131  SER131     -0.1952
    147  CA        52.4260 -150.0100    7.3000 C.3   131  SER131      0.1924
    148  C         52.7920 -149.1030    6.1260 C.2   131  SER131      0.2314
    149  O         52.1430 -148.0850    5.9140 O.2   131  SER131     -0.2863
    150  CB        53.1990 -149.5830    8.5500 C.3   131  SER131      0.2116
    151  OG        54.5820 -149.8400    8.4100 O.3   131  SER131     -0.2180
    152  N         58.0440 -146.5350   10.0020 N.3   170  TYR170     -0.1241
    153  CA        58.2170 -147.9190   10.4660 C.3   170  TYR170      0.1605
    154  C         58.7930 -148.8820    9.4220 C.2   170  TYR170      0.2264
    155  O         58.9650 -150.0720    9.7180 O.2   170  TYR170     -0.2867
    156  CB        56.8800 -148.4590   11.0060 C.3   170  TYR170      0.0534
    157  CG        56.3080 -147.6120   12.1310 C.ar  170  TYR170     -0.0201
    158  CD1       57.0690 -147.3290   13.2710 C.ar  170  TYR170     -0.0009
    159  CD2       55.0190 -147.0850   12.0570 C.ar  170  TYR170     -0.0009
    160  CE1       56.5660 -146.5460   14.3010 C.ar  170  TYR170      0.0417
    161  CE2       54.5060 -146.3020   13.0870 C.ar  170  TYR170      0.0417
    162  CZ        55.2810 -146.0340   14.2060 C.ar  170  TYR170      0.1957
    163  OH        54.7710 -145.2570   15.2290 O.3   170  TYR170     -0.2866
@<TRIPOS>BOND
     1    80    79    1
     2    84    83    2
     3    83    82    1
     4   142   143    1
     5    79    78    1
     6    90    91    1
     7   145   144    2
     8    85    82    1
     9    85    86    1
    10   143   144    1
    11     4     3    2
    12    82    81    1
    13     3     2    1
    14   149   148    2
    15   144   146   am
    16    81    74   am
    17    78    77    1
    18   148   147    1
    19    91    92    1
    20    91    94    1
    21    77    76    1
    22    93    92    2
    23     7     5    1
    24    92    98   am
    25   102    99    1
    26    87    86    1
    27    87    88    1
    28    76    73    1
    29    73    74    1
    30    73    72    1
    31    74    75    2
    32    95    94    1
    33    95    96    1
    34   146   147    1
    35    68    67    2
    36    98    99    1
    37     2     5    1
    38     2     1    1
    39   147   150    1
    40    97    96    1
    41     5     6    1
    42    99   100    1
    43    89    88    1
    44    67    72   am
    45    67    66    1
    46     8     9    1
    47   151   150    1
    48   100   101    2
    49   100   103   am
    50    65    66    1
    51    66    69    1
    52   154   155    2
    53   154   153    1
    54    12     9    1
    55    12    13    1
    56     9    10    1
    57    18    16    1
    58   126   125    1
    59   103   104    1
    60   124   123    2
    61    16    17    1
    62    16    15    2
    63   152   153    1
    64   125   122    1
    65    11    10    2
    66    69    70    1
    67    69    71    1
    68    15    14    1
    69   153   156    1
    70    10    19   am
    71   123   122    1
    72   123   127   am
    73    14    13    1
    74   122   121    1
    75   156   157    1
    76   130   129    2
    77   104   105    1
    78   127   128    1
    79   128   129    1
    80   128   131    1
    81    19    20    1
    82   132   131    1
    83   132   133    1
    84   159   157   ar
    85   159   161   ar
    86    62    61    2
    87   157   158   ar
    88   105   106    2
    89   105   107   am
    90   138   139    2
    91   138   137    1
    92    61    60    1
    93   133   135   am
    94   133   134    2
    95    20    23    1
    96    20    21    1
    97    64    63    1
    98   110   109    2
    99   107   108    1
   100   161   162   ar
   101   114   113    2
   102   158   160   ar
   103   141   140    1
   104   137   140    1
   105   137   136    1
   106   109   111   am
   107   109   108    1
   108    30    28    1
   109   112   113    1
   110   112   111    1
   111   112   115    1
   112    63    60    1
   113    21    22    2
   114    21    24   am
   115    60    59    1
   116   113   116   am
   117   162   160   ar
   118   162   163    1
   119    29    28    1
   120    24    25    1
   121   119   118    2
   122    28    25    1
   123    59    56   am
   124   118   117    1
   125   116   117    1
   126    25    26    1
   127   117   120    1
   128    56    57    2
   129    56    55    1
   130    27    26    2
   131    54    55    1
   132    26    31   am
   133    39    38    2
   134    55    58    1
   135    43    42    2
   136    42    41    1
   137    31    32    1
   138    38    37    1
   139    40    41    1
   140    41    44    1
   141    32    33    1
   142    32    35    1
   143    36    37    1
   144    36    33   am
   145    33    34    2
   146    44    45    1
   147    46    45   ar
   148    46    48   ar
   149    45    47   ar
   150    48    49   ar
   151    47    49   ar
   152    47    50   ar
   153    49    51   ar
   154    50    52   ar
   155    51    53   ar
   156    52    53   ar
