@<TRIPOS>MOLECULE
tmp/6hvvK00.pdb
 151 143 0 0 0
SMALL
GASTEIGER

@<TRIPOS>ATOM
      1  N         12.3410 -139.6140    9.2110 N.3     1  THR1       -0.1218
      2  CA        11.6660 -138.5050    8.4880 C.3     1  THR1        0.1862
      3  C         12.1280 -138.7080    7.0540 C.2     1  THR1        0.2287
      4  O         13.2160 -139.2310    6.8180 O.2     1  THR1       -0.2866
      5  CB        12.1310 -137.1530    9.0000 C.3     1  THR1        0.1770
      6  OG1       11.4660 -136.9080   10.2330 O.3     1  THR1       -0.2211
      7  CG2       11.7590 -135.9810    8.0840 C.3     1  THR1        0.0375
      8  N          5.3670 -138.1630    9.6750 N.3    19  ARG19      -0.1231
      9  CA         5.5480 -138.9730   10.8910 C.3    19  ARG19       0.1694
     10  C          6.5420 -138.3720   11.8840 C.2    19  ARG19       0.2592
     11  O          7.5870 -137.8630   11.4930 O.2    19  ARG19      -0.2718
     12  CB         6.0020 -140.3960   10.5480 C.3    19  ARG19       0.0321
     13  CG         6.0290 -141.3200   11.7700 C.3    19  ARG19       0.0489
     14  CD         6.0970 -142.7990   11.4160 C.3    19  ARG19       0.2205
     15  NE         4.9270 -143.2530   10.6700 N.pl3  19  ARG19      -0.0865
     16  CZ         4.7010 -144.5110   10.3050 C.cat  19  ARG19       0.5346
     17  NH1        5.5620 -145.4820   10.6110 N.pl3  19  ARG19       0.1354
     18  NH2        3.5940 -144.8050    9.6230 N.pl3  19  ARG19       0.1354
     19  N          6.2150 -138.4630   13.1700 N.am   20  ALA20      -0.1966
     20  CA         7.1680 -138.1810   14.2460 C.3    20  ALA20       0.1728
     21  C          7.2560 -139.4040   15.1550 C.2    20  ALA20       0.2617
     22  O          6.2370 -140.0480   15.4360 O.2    20  ALA20      -0.2715
     23  CB         6.7400 -136.9580   15.0350 C.3    20  ALA20       0.0334
     24  N          8.4710 -139.7150   15.6090 N.am   21  THR21      -0.1937
     25  CA         8.7200 -140.9000   16.4350 C.3    21  THR21       0.2028
     26  C          9.4760 -140.5950   17.7240 C.2    21  THR21       0.2642
     27  O         10.2620 -139.6500   17.7870 O.2    21  THR21      -0.2714
     28  CB         9.5000 -141.9820   15.6580 C.3    21  THR21       0.1808
     29  OG1       10.6320 -141.3940   15.0040 O.3    21  THR21      -0.2208
     30  CG2        8.5950 -142.6550   14.6290 C.3    21  THR21       0.0379
     31  N          9.2020 -141.4090   18.7440 N.am   22  ALA22      -0.1977
     32  CA         9.9610 -141.4350   19.9910 C.3    22  ALA22       0.1597
     33  C         10.4640 -142.8690   20.1770 C.2    22  ALA22       0.2287
     34  O          9.8320 -143.6890   20.8510 O.2    22  ALA22      -0.2864
     35  CB         9.0910 -140.9990   21.1600 C.3    22  ALA22       0.0319
     36  N          4.8130 -141.2810   17.5000 N.3    27  ALA27      -0.1245
     37  CA         4.3160 -140.1580   18.2990 C.3    27  ALA27       0.1562
     38  C          3.2170 -139.3870   17.5980 C.2    27  ALA27       0.2260
     39  O          2.3010 -138.8950   18.2530 O.2    27  ALA27      -0.2867
     40  CB         5.4500 -139.2180   18.6620 C.3    27  ALA27       0.0290
     41  N          2.0790 -134.5830   11.4060 N.3    31  VAL31      -0.1231
     42  CA         3.0430 -133.5420   11.7490 C.3    31  VAL31       0.1692
     43  C          3.3750 -132.6960   10.5200 C.2    31  VAL31       0.2592
     44  O          3.4870 -133.2250    9.4080 O.2    31  VAL31      -0.2718
     45  CB         4.3270 -134.1570   12.3360 C.3    31  VAL31       0.0266
     46  CG1        5.2780 -133.0980   12.8150 C.3    31  VAL31       0.0020
     47  CG2        3.9960 -135.0530   13.5130 C.3    31  VAL31       0.0020
     48  N          3.5330 -131.3880   10.7380 N.am   32  LYS32      -0.1966
     49  CA         3.9080 -130.4470    9.6740 C.3    32  LYS32       0.1728
     50  C          5.4210 -130.2560    9.6140 C.2    32  LYS32       0.2616
     51  O          6.0080 -129.6450   10.5100 O.2    32  LYS32      -0.2715
     52  CB         3.2360 -129.0860    9.8810 C.3    32  LYS32       0.0311
     53  CG         1.7870 -129.0370    9.4160 C.3    32  LYS32       0.0038
     54  CD         1.2940 -127.6080    9.2350 C.3    32  LYS32       0.0206
     55  CE         1.9840 -126.9050    8.0640 C.3    32  LYS32       0.1093
     56  NZ         1.3220 -125.6270    7.6750 N.3    32  LYS32      -0.1314
     57  N          6.0340 -130.7680    8.5500 N.am   33  LYS33      -0.1977
     58  CA         7.4870 -130.7040    8.3640 C.3    33  LYS33       0.1596
     59  C          7.9290 -129.6170    7.3800 C.2    33  LYS33       0.2287
     60  O          9.1230 -129.4800    7.1020 O.2    33  LYS33      -0.2864
     61  CB         8.0000 -132.0670    7.9080 C.3    33  LYS33       0.0298
     62  CG         7.6390 -133.1690    8.8790 C.3    33  LYS33       0.0038
     63  CD         8.3890 -134.4470    8.5900 C.3    33  LYS33       0.0206
     64  CE         8.1120 -135.4580    9.6820 C.3    33  LYS33       0.1093
     65  NZ         8.4940 -136.8170    9.2520 N.3    33  LYS33      -0.1314
     66  N         11.9170 -129.6390    7.3220 N.3    45  MET45      -0.1230
     67  CA        12.3700 -129.9110    8.6810 C.3    45  MET45       0.1702
     68  C         12.5580 -131.4110    8.9130 C.2    45  MET45       0.2592
     69  O         11.6610 -132.2180    8.6420 O.2    45  MET45      -0.2718
     70  CB        11.3820 -129.3060    9.6790 C.3    45  MET45       0.0401
     71  CG        11.3150 -127.7800    9.6130 C.3    45  MET45       0.0596
     72  SD        10.2920 -126.9460   10.8510 S.3    45  MET45      -0.1393
     73  CE         8.6690 -127.6560   10.5870 C.3    45  MET45       0.0692
     74  N         13.7510 -131.7670    9.3900 N.am   46  ALA46      -0.1966
     75  CA        14.0850 -133.1310    9.7910 C.3    46  ALA46       0.1728
     76  C         15.0370 -133.0810   10.9750 C.2    46  ALA46       0.2617
     77  O         15.8580 -132.1680   11.0740 O.2    46  ALA46      -0.2715
     78  CB        14.7260 -133.8810    8.6370 C.3    46  ALA46       0.0334
     79  N         14.9320 -134.0740   11.8560 N.am   47  GLY47      -0.1940
     80  CA        15.7370 -134.1400   13.0740 C.3    47  GLY47       0.2014
     81  C         14.8870 -133.8550   14.2940 C.2    47  GLY47       0.2639
     82  O         13.7110 -134.2150   14.3310 O.2    47  GLY47      -0.2714
     83  N         15.4870 -133.2190   15.2960 N.am   48  GLY48      -0.1939
     84  CA        14.7890 -132.8670   16.5290 C.3    48  GLY48       0.2014
     85  C         13.5490 -132.0430   16.2390 C.2    48  GLY48       0.2639
     86  O         13.6270 -131.0220   15.5510 O.2    48  GLY48      -0.2714
     87  N         12.4050 -132.5050   16.7380 N.am   49  ALA49      -0.1963
     88  CA        11.1170 -131.8540   16.4750 C.3    49  ALA49       0.1728
     89  C         11.0560 -130.4370   17.0360 C.2    49  ALA49       0.2616
     90  O         10.6150 -129.5020   16.3600 O.2    49  ALA49      -0.2715
     91  CB         9.9810 -132.6880   17.0470 C.3    49  ALA49       0.0334
     92  N         11.5000 -130.3030   18.2800 N.am   50  ALA50      -0.1963
     93  CA        11.5720 -129.0200   18.9580 C.3    50  ALA50       0.1728
     94  C         12.6160 -128.1240   18.3130 C.2    50  ALA50       0.2616
     95  O         12.3400 -126.9580   18.0300 O.2    50  ALA50      -0.2715
     96  CB        11.8990 -129.2200   20.4280 C.3    50  ALA50       0.0334
     97  N         13.8080 -128.6750   18.0900 N.am   51  ASP51      -0.1957
     98  CA        14.9040 -127.9330   17.4670 C.3    51  ASP51       0.1840
     99  C         14.4640 -127.3150   16.1480 C.2    51  ASP51       0.2622
    100  O         14.7010 -126.1320   15.9140 O.2    51  ASP51      -0.2715
    101  CB        16.1210 -128.8330   17.2250 C.3    51  ASP51       0.1450
    102  CG        16.8320 -129.2330   18.5080 C.2    51  ASP51       0.3671
    103  OD1       16.6280 -128.5830   19.5610 O.co2  51  ASP51      -0.2456
    104  OD2       17.6140 -130.2080   18.4560 O.co2  51  ASP51      -0.2456
    105  N         13.8120 -128.1150   15.3060 N.am   52  CYS52      -0.1954
    106  CA        13.3240 -127.6410   14.0090 C.3    52  CYS52       0.1843
    107  C         12.2640 -126.5500   14.1580 C.2    52  CYS52       0.2625
    108  O         12.4310 -125.4410   13.6430 O.2    52  CYS52      -0.2714
    109  CB        12.7680 -128.7930   13.1800 C.3    52  CYS52       0.0997
    110  SG        14.0390 -129.8820   12.5170 S.3    52  CYS52      -0.0797
    111  N         11.1900 -126.8710   14.8750 N.am   53  GLN53      -0.1977
    112  CA        10.0870 -125.9250   15.0950 C.3    53  GLN53       0.1601
    113  C         10.5520 -124.5940   15.6750 C.2    53  GLN53       0.2287
    114  O         10.2070 -123.5370   15.1570 O.2    53  GLN53      -0.2864
    115  CB         9.0220 -126.5160   16.0210 C.3    53  GLN53       0.0394
    116  CG         8.0060 -127.3930   15.3110 C.3    53  GLN53       0.0908
    117  CD         6.8290 -127.7760   16.1890 C.2    53  GLN53       0.2608
    118  OE1        6.7320 -127.3650   17.3460 O.2    53  GLN53      -0.2717
    119  NE2        5.9210 -128.5670   15.6360 N.am   53  GLN53      -0.0878
    120  N         24.3980 -130.4880   21.0400 N.3    94  GLY94      -0.1225
    121  CA        23.4900 -131.5890   20.7600 C.3    94  GLY94       0.1811
    122  C         22.2220 -131.2420   20.0030 C.2    94  GLY94       0.2280
    123  O         21.2530 -132.0070   20.0660 O.2    94  GLY94      -0.2866
    124  N         19.8630 -131.2190   16.8410 N.3    96  SER96      -0.1217
    125  CA        19.6600 -132.1570   15.7520 C.3    96  SER96       0.1889
    126  C         18.7230 -131.5210   14.7440 C.2    96  SER96       0.2288
    127  O         17.5330 -131.3420   15.0170 O.2    96  SER96      -0.2866
    128  CB        19.0580 -133.4590   16.2770 C.3    96  SER96       0.2089
    129  OG        18.7010 -134.3130   15.2020 O.3    96  SER96      -0.2183
    130  N         16.7710 -136.9970    6.1010 N.3   130  GLY130     -0.1210
    131  CA        16.0610 -137.7790    7.1060 C.3   130  GLY130      0.1956
    132  C         16.3960 -139.2540    7.0070 C.2   130  GLY130      0.2612
    133  O         17.1060 -139.6830    6.0890 O.2   130  GLY130     -0.2717
    134  N         15.8770 -140.0200    7.9670 N.am  131  SER131     -0.1952
    135  CA        16.0600 -141.4750    8.0320 C.3   131  SER131      0.1924
    136  C         15.6910 -142.2000    6.7340 C.2   131  SER131      0.2314
    137  O         16.3410 -143.1790    6.3690 O.2   131  SER131     -0.2863
    138  CB        15.2350 -142.0480    9.1800 C.3   131  SER131      0.2116
    139  OG        13.8610 -141.7900    8.9800 O.3   131  SER131     -0.2180
    140  N         10.4350 -145.4360   10.1590 N.3   170  TYR170     -0.1241
    141  CA        10.2770 -144.1390   10.8300 C.3   170  TYR170      0.1605
    142  C          9.7140 -143.0140    9.9410 C.2   170  TYR170      0.2264
    143  O          9.6040 -141.8860   10.4020 O.2   170  TYR170     -0.2867
    144  CB        11.6190 -143.7160   11.4580 C.3   170  TYR170      0.0534
    145  CG        12.1810 -144.7630   12.4020 C.ar  170  TYR170     -0.0201
    146  CD1       11.4340 -145.2220   13.4830 C.ar  170  TYR170     -0.0009
    147  CD2       13.4490 -145.3100   12.2070 C.ar  170  TYR170     -0.0009
    148  CE1       11.9250 -146.1900   14.3410 C.ar  170  TYR170      0.0417
    149  CE2       13.9520 -146.2770   13.0690 C.ar  170  TYR170      0.0417
    150  CZ        13.1840 -146.7100   14.1320 C.ar  170  TYR170      0.1957
    151  OH        13.6710 -147.6650   14.9930 O.3   170  TYR170     -0.2866
@<TRIPOS>BOND
     1   133   132    2
     2   130   131    1
     3   137   136    2
     4   136   135    1
     5     4     3    2
     6   132   131    1
     7   132   134   am
     8     3     2    1
     9    60    59    2
    10    66    67    1
    11    59    58    1
    12    56    55    1
    13    61    58    1
    14    61    62    1
    15   134   135    1
    16   135   138    1
    17    55    54    1
    18     7     5    1
    19    58    57    1
    20     2     5    1
    21     2     1    1
    22    57    50   am
    23    63    62    1
    24    63    64    1
    25    78    75    1
    26    69    68    2
    27    67    68    1
    28    67    70    1
    29    68    74   am
    30   139   138    1
    31     5     6    1
    32    54    53    1
    33    65    64    1
    34    74    75    1
    35    44    43    2
    36    53    52    1
    37    71    70    1
    38    71    72    1
    39    50    49    1
    40    50    51    2
    41    18    16    1
    42    49    52    1
    43    49    48    1
    44     8     9    1
    45    75    76    1
    46   142   143    2
    47   142   141    1
    48   140   141    1
    49    16    17    1
    50    16    15    2
    51    43    48   am
    52    43    42    1
    53    12     9    1
    54    12    13    1
    55    73    72    1
    56    15    14    1
    57   141   144    1
    58     9    10    1
    59    76    77    2
    60    76    79   am
    61    41    42    1
    62    14    13    1
    63   144   145    1
    64    11    10    2
    65    42    45    1
    66    79    80    1
    67    10    19   am
    68   147   145   ar
    69   147   149   ar
    70    45    46    1
    71    45    47    1
    72   145   146   ar
    73   110   109    1
    74   149   150   ar
    75    80    81    1
    76    19    20    1
    77   109   106    1
    78   146   148   ar
    79   108   107    2
    80   106   107    1
    81   106   105    1
    82   150   148   ar
    83   150   151    1
    84   107   111   am
    85    20    23    1
    86    20    21    1
    87    81    82    2
    88    81    83   am
    89    30    28    1
    90   126   127    2
    91   126   125    1
    92   111   112    1
    93    29    28    1
    94   112   113    1
    95   112   115    1
    96    21    22    2
    97    21    24   am
    98   114   113    2
    99   129   128    1
   100    83    84    1
   101   105    99   am
   102   116   115    1
   103   116   117    1
   104    86    85    2
   105    24    25    1
   106   119   117   am
   107    28    25    1
   108   125   128    1
   109   125   124    1
   110   100    99    2
   111    99    98    1
   112   117   118    2
   113    85    84    1
   114    85    87   am
   115    90    89    2
   116    25    26    1
   117    88    87    1
   118    88    89    1
   119    88    91    1
   120    89    92   am
   121   101    98    1
   122   101   102    1
   123    98    97    1
   124    36    37    1
   125    38    39    2
   126    38    37    1
   127    26    27    2
   128    26    31   am
   129    95    94    2
   130    97    94   am
   131    92    93    1
   132    37    40    1
   133    94    93    1
   134   104   102   ar
   135   102   103   ar
   136    31    32    1
   137    93    96    1
   138    32    33    1
   139    32    35    1
   140   122   123    2
   141   122   121    1
   142    33    34    2
   143   121   120    1
