@<TRIPOS>MOLECULE
tmp/6hvwK00.pdb
 151 143 0 0 0
SMALL
GASTEIGER

@<TRIPOS>ATOM
      1  N         11.3750 -139.7460    9.5050 N.3     1  THR1       -0.1218
      2  CA        11.0600 -138.6230    8.6120 C.3     1  THR1        0.1862
      3  C         11.6320 -138.6330    7.2060 C.2     1  THR1        0.2287
      4  O         12.8390 -138.7510    7.0240 O.2     1  THR1       -0.2866
      5  CB        11.6000 -137.3750    9.2580 C.3     1  THR1        0.1770
      6  OG1       10.7620 -137.0650   10.3380 O.3     1  THR1       -0.2211
      7  CG2       11.6060 -136.1920    8.2910 C.3     1  THR1        0.0375
      8  N          4.8230 -138.2960    9.5810 N.3    19  ARG19      -0.1231
      9  CA         4.9730 -139.1270   10.7750 C.3    19  ARG19       0.1694
     10  C          5.9460 -138.5440   11.7840 C.2    19  ARG19       0.2592
     11  O          6.9880 -138.0090   11.4200 O.2    19  ARG19      -0.2718
     12  CB         5.4340 -140.5370   10.4120 C.3    19  ARG19       0.0321
     13  CG         5.5450 -141.4460   11.6340 C.3    19  ARG19       0.0489
     14  CD         5.7390 -142.9050   11.2790 C.3    19  ARG19       0.2205
     15  NE         4.5520 -143.4890   10.6710 N.pl3  19  ARG19      -0.0865
     16  CZ         4.4190 -144.7770   10.3620 C.cat  19  ARG19       0.5346
     17  NH1        5.4000 -145.6510   10.6030 N.pl3  19  ARG19       0.1354
     18  NH2        3.2860 -145.2020    9.8060 N.pl3  19  ARG19       0.1354
     19  N          5.6020 -138.6880   13.0590 N.am   20  ALA20      -0.1966
     20  CA         6.5110 -138.3800   14.1540 C.3    20  ALA20       0.1728
     21  C          6.6510 -139.6240   15.0290 C.2    20  ALA20       0.2617
     22  O          5.6650 -140.3180   15.2960 O.2    20  ALA20      -0.2715
     23  CB         5.9910 -137.2040   14.9630 C.3    20  ALA20       0.0334
     24  N          7.8780 -139.8990   15.4660 N.am   21  THR21      -0.1937
     25  CA         8.1780 -141.0780   16.2770 C.3    21  THR21       0.2028
     26  C          8.9510 -140.7170   17.5400 C.2    21  THR21       0.2642
     27  O          9.6990 -139.7410   17.5720 O.2    21  THR21      -0.2714
     28  CB         8.9800 -142.1400   15.4870 C.3    21  THR21       0.1808
     29  OG1       10.2590 -141.6150   15.1000 O.3    21  THR21      -0.2208
     30  CG2        8.2160 -142.5810   14.2470 C.3    21  THR21       0.0379
     31  N          8.7380 -141.5180   18.5770 N.am   22  ALA22      -0.1977
     32  CA         9.5040 -141.4510   19.8110 C.3    22  ALA22       0.1597
     33  C          9.9870 -142.8770   20.0820 C.2    22  ALA22       0.2287
     34  O          9.3350 -143.6540   20.7800 O.2    22  ALA22      -0.2864
     35  CB         8.6410 -140.9200   20.9480 C.3    22  ALA22       0.0319
     36  N          4.2670 -141.6000   17.3870 N.3    27  ALA27      -0.1245
     37  CA         3.7170 -140.5030   18.1810 C.3    27  ALA27       0.1562
     38  C          2.5860 -139.7880   17.4690 C.2    27  ALA27       0.2260
     39  O          1.6200 -139.3820   18.1070 O.2    27  ALA27      -0.2867
     40  CB         4.8090 -139.5100   18.5410 C.3    27  ALA27       0.0290
     41  N          1.2890 -134.7940   11.1070 N.3    31  VAL31      -0.1231
     42  CA         2.2650 -133.7750   11.4700 C.3    31  VAL31       0.1692
     43  C          2.6240 -132.8850   10.2770 C.2    31  VAL31       0.2592
     44  O          2.7350 -133.3650    9.1420 O.2    31  VAL31      -0.2718
     45  CB         3.5260 -134.4500   12.0540 C.3    31  VAL31       0.0266
     46  CG1        4.7830 -133.6550   11.7600 C.3    31  VAL31       0.0020
     47  CG2        3.3500 -134.6940   13.5490 C.3    31  VAL31       0.0020
     48  N          2.8420 -131.5990   10.5620 N.am   32  LYS32      -0.1966
     49  CA         3.3120 -130.6330    9.5640 C.3    32  LYS32       0.1728
     50  C          4.8260 -130.5050    9.6020 C.2    32  LYS32       0.2616
     51  O          5.3770 -129.9890   10.5710 O.2    32  LYS32      -0.2715
     52  CB         2.7110 -129.2570    9.8170 C.3    32  LYS32       0.0311
     53  CG         1.2980 -129.0990    9.3000 C.3    32  LYS32       0.0038
     54  CD         0.8860 -127.6320    9.2890 C.3    32  LYS32       0.0206
     55  CE         1.6180 -126.8280    8.2140 C.3    32  LYS32       0.1093
     56  NZ         0.8990 -125.5700    7.8720 N.3    32  LYS32      -0.1314
     57  N          5.4870 -130.9570    8.5410 N.am   33  LYS33      -0.1977
     58  CA         6.9440 -130.8630    8.4250 C.3    33  LYS33       0.1596
     59  C          7.4020 -129.7270    7.5350 C.2    33  LYS33       0.2287
     60  O          8.6030 -129.5560    7.3260 O.2    33  LYS33      -0.2864
     61  CB         7.5060 -132.1780    7.9070 C.3    33  LYS33       0.0298
     62  CG         7.4140 -133.2490    8.9600 C.3    33  LYS33       0.0038
     63  CD         7.7160 -134.6250    8.4290 C.3    33  LYS33       0.0206
     64  CE         7.2910 -135.6380    9.4670 C.3    33  LYS33       0.1093
     65  NZ         8.0500 -136.8850    9.2710 N.3    33  LYS33      -0.1314
     66  N         11.3790 -129.8890    7.5280 N.3    45  MET45      -0.1230
     67  CA        11.9220 -130.2810    8.8250 C.3    45  MET45       0.1702
     68  C         12.1520 -131.7840    8.9200 C.2    45  MET45       0.2592
     69  O         11.2570 -132.5780    8.6190 O.2    45  MET45      -0.2718
     70  CB        10.9640 -129.8840    9.9360 C.3    45  MET45       0.0401
     71  CG        10.6110 -128.4110    9.9890 C.3    45  MET45       0.0596
     72  SD         9.4000 -128.1200   11.2890 S.3    45  MET45      -0.1393
     73  CE         8.8900 -126.4800   10.8550 C.3    45  MET45       0.0692
     74  N         13.3560 -132.1540    9.3470 N.am   46  ALA46      -0.1966
     75  CA        13.6880 -133.5230    9.7310 C.3    46  ALA46       0.1728
     76  C         14.6580 -133.4580   10.9000 C.2    46  ALA46       0.2617
     77  O         15.4170 -132.4970   11.0200 O.2    46  ALA46      -0.2715
     78  CB        14.3130 -134.2660    8.5650 C.3    46  ALA46       0.0334
     79  N         14.6370 -134.4810   11.7480 N.am   47  GLY47      -0.1940
     80  CA        15.4730 -134.5290   12.9560 C.3    47  GLY47       0.2014
     81  C         14.6330 -134.3860   14.2040 C.2    47  GLY47       0.2639
     82  O         13.4840 -134.8250   14.2390 O.2    47  GLY47      -0.2714
     83  N         15.2190 -133.7840   15.2340 N.am   48  GLY48      -0.1939
     84  CA        14.5260 -133.5130   16.4890 C.3    48  GLY48       0.2014
     85  C         13.3320 -132.6040   16.2740 C.2    48  GLY48       0.2639
     86  O         13.4370 -131.5810   15.5900 O.2    48  GLY48      -0.2714
     87  N         12.1990 -132.9890   16.8520 N.am   49  ALA49      -0.1963
     88  CA        10.9240 -132.3140   16.6110 C.3    49  ALA49       0.1728
     89  C         10.9150 -130.8700   17.1100 C.2    49  ALA49       0.2616
     90  O         10.5690 -129.9430   16.3750 O.2    49  ALA49      -0.2715
     91  CB         9.7940 -133.0970   17.2590 C.3    49  ALA49       0.0334
     92  N         11.3080 -130.7040   18.3670 N.am   50  ALA50      -0.1963
     93  CA        11.3410 -129.3940   19.0110 C.3    50  ALA50       0.1728
     94  C         12.3850 -128.4760   18.3940 C.2    50  ALA50       0.2616
     95  O         12.1160 -127.2980   18.1790 O.2    50  ALA50      -0.2715
     96  CB        11.6100 -129.5520   20.4950 C.3    50  ALA50       0.0334
     97  N         13.5680 -129.0190   18.1160 N.am   51  ASP51      -0.1957
     98  CA        14.6500 -128.2530   17.4950 C.3    51  ASP51       0.1840
     99  C         14.2140 -127.6680   16.1610 C.2    51  ASP51       0.2622
    100  O         14.4080 -126.4780   15.9220 O.2    51  ASP51      -0.2715
    101  CB        15.8980 -129.1190   17.2870 C.3    51  ASP51       0.1450
    102  CG        16.5360 -129.5650   18.5960 C.2    51  ASP51       0.3671
    103  OD1       16.3790 -128.8650   19.6250 O.co2  51  ASP51      -0.2456
    104  OD2       17.2000 -130.6250   18.5960 O.co2  51  ASP51      -0.2456
    105  N         13.5980 -128.4900   15.3110 N.am   52  CYS52      -0.1954
    106  CA        13.1350 -128.0250   14.0010 C.3    52  CYS52       0.1843
    107  C         12.0230 -126.9860   14.1150 C.2    52  CYS52       0.2625
    108  O         12.1650 -125.8810   13.5990 O.2    52  CYS52      -0.2714
    109  CB        12.6860 -129.1950   13.1400 C.3    52  CYS52       0.0997
    110  SG        14.0600 -130.2750   12.6970 S.3    52  CYS52      -0.0797
    111  N         10.9400 -127.3320   14.8090 N.am   53  GLN53      -0.1977
    112  CA         9.8200 -126.3930   15.0240 C.3    53  GLN53       0.1601
    113  C         10.2430 -125.0370   15.5710 C.2    53  GLN53       0.2287
    114  O          9.8860 -123.9990   15.0190 O.2    53  GLN53      -0.2864
    115  CB         8.7750 -126.9590   15.9910 C.3    53  GLN53       0.0394
    116  CG         7.4310 -127.2360   15.3480 C.3    53  GLN53       0.0908
    117  CD         6.2940 -127.3310   16.3450 C.2    53  GLN53       0.2608
    118  OE1        6.4850 -127.2280   17.5570 O.2    53  GLN53      -0.2717
    119  NE2        5.0920 -127.5300   15.8310 N.am   53  GLN53      -0.0878
    120  N         24.1310 -130.7870   20.8630 N.3    94  GLY94      -0.1225
    121  CA        23.2530 -131.9230   20.6010 C.3    94  GLY94       0.1811
    122  C         21.9710 -131.6160   19.8530 C.2    94  GLY94       0.2280
    123  O         21.0640 -132.4420   19.8440 O.2    94  GLY94      -0.2866
    124  N         19.5850 -131.6000   16.7530 N.3    96  SER96      -0.1217
    125  CA        19.4120 -132.5740   15.6720 C.3    96  SER96       0.1889
    126  C         18.4260 -132.0330   14.6490 C.2    96  SER96       0.2288
    127  O         17.2180 -131.9940   14.9030 O.2    96  SER96      -0.2866
    128  CB        18.9090 -133.9110   16.2160 C.3    96  SER96       0.2089
    129  OG        18.7380 -134.8520   15.1640 O.3    96  SER96      -0.2183
    130  N         16.2630 -137.2030    6.0060 N.3   130  GLY130     -0.1210
    131  CA        15.5620 -137.9840    7.0230 C.3   130  GLY130      0.1956
    132  C         15.8540 -139.4660    6.9050 C.2   130  GLY130      0.2612
    133  O         16.5180 -139.9060    5.9660 O.2   130  GLY130     -0.2717
    134  N         15.3320 -140.2280    7.8660 N.am  131  SER131     -0.1952
    135  CA        15.5130 -141.6820    7.9450 C.3   131  SER131      0.1924
    136  C         15.1840 -142.4000    6.6340 C.2   131  SER131      0.2314
    137  O         15.8630 -143.3590    6.2590 O.2   131  SER131     -0.2863
    138  CB        14.6600 -142.2530    9.0860 C.3   131  SER131      0.2116
    139  OG        13.3330 -141.7470    9.0450 O.3   131  SER131     -0.2180
    140  N         10.1020 -145.6540   10.0930 N.3   170  TYR170     -0.1241
    141  CA         9.9220 -144.3610   10.7650 C.3   170  TYR170      0.1605
    142  C          9.2950 -143.2580    9.9050 C.2   170  TYR170      0.2264
    143  O          9.0180 -142.1820   10.4160 O.2   170  TYR170     -0.2867
    144  CB        11.2530 -143.8940   11.3660 C.3   170  TYR170      0.0534
    145  CG        11.8330 -144.9240   12.3120 C.ar  170  TYR170     -0.0201
    146  CD1       11.1000 -145.3720   13.4120 C.ar  170  TYR170     -0.0009
    147  CD2       13.0910 -145.4820   12.0950 C.ar  170  TYR170     -0.0009
    148  CE1       11.6070 -146.3310   14.2700 C.ar  170  TYR170      0.0417
    149  CE2       13.6060 -146.4400   12.9540 C.ar  170  TYR170      0.0417
    150  CZ        12.8580 -146.8570   14.0370 C.ar  170  TYR170      0.1957
    151  OH        13.3590 -147.8030   14.8930 O.3   170  TYR170     -0.2866
@<TRIPOS>BOND
     1   133   132    2
     2   130   131    1
     3   137   136    2
     4   136   135    1
     5   132   131    1
     6   132   134   am
     7     4     3    2
     8     3     2    1
     9    60    59    2
    10    66    67    1
    11    59    58    1
    12   134   135    1
    13    56    55    1
    14    61    58    1
    15    61    62    1
    16   135   138    1
    17    55    54    1
    18     7     5    1
    19    58    57    1
    20    63    62    1
    21    63    64    1
    22    57    50   am
    23    78    75    1
    24     2     5    1
    25     2     1    1
    26    69    68    2
    27    67    68    1
    28    67    70    1
    29    68    74   am
    30   139   138    1
    31    44    43    2
    32     5     6    1
    33    65    64    1
    34    54    53    1
    35    53    52    1
    36    74    75    1
    37    49    50    1
    38    49    52    1
    39    49    48    1
    40     8     9    1
    41    50    51    2
    42    75    76    1
    43    18    16    1
    44   142   143    2
    45   142   141    1
    46    70    71    1
    47    71    72    1
    48   140   141    1
    49    43    48   am
    50    43    42    1
    51    16    17    1
    52    16    15    2
    53    12     9    1
    54    12    13    1
    55    15    14    1
    56   141   144    1
    57     9    10    1
    58    73    72    1
    59    76    77    2
    60    76    79   am
    61    41    42    1
    62    14    13    1
    63   144   145    1
    64    11    10    2
    65    42    45    1
    66    79    80    1
    67    46    45    1
    68    10    19   am
    69    45    47    1
    70   147   145   ar
    71   147   149   ar
    72   145   146   ar
    73   110   109    1
    74   149   150   ar
    75    80    81    1
    76    19    20    1
    77   109   106    1
    78   146   148   ar
    79   108   107    2
    80   106   107    1
    81   106   105    1
    82   150   148   ar
    83   150   151    1
    84   107   111   am
    85    20    23    1
    86    20    21    1
    87    81    82    2
    88    81    83   am
    89    30    28    1
    90   126   127    2
    91   126   125    1
    92   111   112    1
    93   114   113    2
    94   112   113    1
    95   112   115    1
    96    21    22    2
    97    21    24   am
    98    29    28    1
    99   129   128    1
   100    83    84    1
   101   105    99   am
   102   116   115    1
   103   116   117    1
   104    24    25    1
   105    28    25    1
   106    86    85    2
   107   125   128    1
   108   125   124    1
   109   119   117   am
   110   100    99    2
   111    99    98    1
   112    85    84    1
   113    85    87   am
   114    25    26    1
   115   117   118    2
   116    90    89    2
   117    88    87    1
   118    88    89    1
   119    88    91    1
   120    89    92   am
   121   101    98    1
   122   101   102    1
   123    36    37    1
   124    38    39    2
   125    38    37    1
   126    98    97    1
   127    26    27    2
   128    26    31   am
   129    97    94   am
   130    95    94    2
   131    37    40    1
   132    92    93    1
   133    94    93    1
   134    31    32    1
   135   102   104   ar
   136   102   103   ar
   137    93    96    1
   138    32    33    1
   139    32    35    1
   140   123   122    2
   141   122   121    1
   142    33    34    2
   143   121   120    1
