@<TRIPOS>MOLECULE
tmp/6hvxK00.pdb
 143 136 0 0 0
SMALL
GASTEIGER

@<TRIPOS>ATOM
      1  N         11.6290 -140.1130    9.4190 N.3     1  THR1       -0.1218
      2  CA        11.3640 -138.8760    8.7480 C.3     1  THR1        0.1862
      3  C         11.9720 -138.9550    7.3940 C.2     1  THR1        0.2287
      4  O         13.0350 -139.4840    7.2010 O.2     1  THR1       -0.2866
      5  CB        11.9930 -137.7350    9.5220 C.3     1  THR1        0.1770
      6  OG1       11.2540 -137.4440   10.6930 O.3     1  THR1       -0.2211
      7  CG2       12.0270 -136.4500    8.7360 C.3     1  THR1        0.0375
      8  N          5.3070 -138.1690   10.1600 N.3    19  ARG19      -0.1231
      9  CA         5.3880 -139.0320   11.3340 C.3    19  ARG19       0.1694
     10  C          6.4220 -138.5540   12.3480 C.2    19  ARG19       0.2592
     11  O          7.5270 -138.1410   11.9870 O.2    19  ARG19      -0.2718
     12  CB         5.6880 -140.4750   10.9370 C.3    19  ARG19       0.0321
     13  CG         5.7490 -141.4150   12.1300 C.3    19  ARG19       0.0489
     14  CD         5.9750 -142.8490   11.7060 C.3    19  ARG19       0.2205
     15  NE         4.7890 -143.4220   11.0780 N.pl3  19  ARG19      -0.0865
     16  CZ         4.6710 -144.6950   10.7120 C.cat  19  ARG19       0.5346
     17  NH1        5.6720 -145.5490   10.9070 N.pl3  19  ARG19       0.1354
     18  NH2        3.5460 -145.1170   10.1480 N.pl3  19  ARG19       0.1354
     19  N          6.0440 -138.6320   13.6220 N.am   20  ALA20      -0.1966
     20  CA         6.9270 -138.3140   14.7360 C.3    20  ALA20       0.1728
     21  C          7.0870 -139.5620   15.5930 C.2    20  ALA20       0.2617
     22  O          6.1010 -140.2350   15.9010 O.2    20  ALA20      -0.2715
     23  CB         6.3430 -137.1820   15.5590 C.3    20  ALA20       0.0334
     24  N          8.3230 -139.8610   15.9840 N.am   21  THR21      -0.1937
     25  CA         8.6160 -141.0710   16.7450 C.3    21  THR21       0.2028
     26  C          9.3290 -140.7760   18.0580 C.2    21  THR21       0.2642
     27  O         10.0610 -139.7910   18.1800 O.2    21  THR21      -0.2714
     28  CB         9.4830 -142.0530   15.9310 C.3    21  THR21       0.1808
     29  OG1       10.7730 -141.4760   15.6790 O.3    21  THR21      -0.2208
     30  CG2        8.8150 -142.3910   14.6110 C.3    21  THR21       0.0379
     31  N          9.0980 -141.6480   19.0350 N.am   22  ALA22      -0.1963
     32  CA         9.8060 -141.6260   20.3060 C.3    22  ALA22       0.1728
     33  C         10.3980 -143.0160   20.4870 C.2    22  ALA22       0.2616
     34  O          9.9120 -143.8190   21.2830 O.2    22  ALA22      -0.2715
     35  CB         8.8540 -141.2880   21.4400 C.3    22  ALA22       0.0334
     36  N         11.4460 -143.2950   19.7210 N.am   23  GLY23      -0.1955
     37  CA        11.9990 -144.6390   19.6330 C.3    23  GLY23       0.1869
     38  C         11.2060 -145.4030   18.5910 C.2    23  GLY23       0.2309
     39  O         11.1530 -144.9980   17.4320 O.2    23  GLY23      -0.2863
     40  N          4.4320 -141.4640   17.8740 N.3    27  ALA27      -0.1231
     41  CA         3.8170 -140.4170   18.6800 C.3    27  ALA27       0.1694
     42  C          2.7480 -139.6630   17.9090 C.2    27  ALA27       0.2592
     43  O          1.7240 -139.2840   18.4740 O.2    27  ALA27      -0.2718
     44  CB         4.8750 -139.4490   19.1690 C.3    27  ALA27       0.0304
     45  N          2.9870 -139.4460   16.6200 N.am   28  SER28      -0.1952
     46  CA         2.0510 -138.7040   15.7880 C.3    28  SER28       0.1924
     47  C          2.1990 -139.0730   14.3180 C.2    28  SER28       0.2314
     48  O          3.2550 -139.5320   13.8860 O.2    28  SER28      -0.2863
     49  CB         2.2700 -137.2020   15.9720 C.3    28  SER28       0.2116
     50  OG         1.2860 -136.4510   15.2820 O.3    28  SER28      -0.2180
     51  N          1.9760 -134.4830   11.7870 N.3    31  VAL31      -0.1231
     52  CA         2.9210 -133.4250   12.1230 C.3    31  VAL31       0.1692
     53  C          3.2590 -132.5820   10.8950 C.2    31  VAL31       0.2592
     54  O          3.3380 -133.1010    9.7800 O.2    31  VAL31      -0.2718
     55  CB         4.2040 -134.0260   12.7400 C.3    31  VAL31       0.0266
     56  CG1        5.3880 -133.0830   12.6090 C.3    31  VAL31       0.0020
     57  CG2        3.9650 -134.3710   14.2000 C.3    31  VAL31       0.0020
     58  N          3.4580 -131.2840   11.1160 N.am   32  LYS32      -0.1966
     59  CA         3.8850 -130.3680   10.0570 C.3    32  LYS32       0.1728
     60  C          5.4060 -130.2490   10.0570 C.2    32  LYS32       0.2616
     61  O          5.9900 -129.7070   10.9940 O.2    32  LYS32      -0.2715
     62  CB         3.2540 -128.9830   10.2380 C.3    32  LYS32       0.0311
     63  CG         1.8410 -128.8610    9.6890 C.3    32  LYS32       0.0038
     64  CD         1.4270 -127.4040    9.5200 C.3    32  LYS32       0.0206
     65  CE         1.7220 -126.8840    8.1170 C.3    32  LYS32       0.1093
     66  NZ         1.4420 -125.4270    7.9810 N.3    32  LYS32      -0.1314
     67  N          6.0390 -130.7630    9.0060 N.am   33  LYS33      -0.1977
     68  CA         7.4970 -130.7230    8.8780 C.3    33  LYS33       0.1596
     69  C          7.9730 -129.6650    7.9010 C.2    33  LYS33       0.2287
     70  O          9.1690 -129.5610    7.6240 O.2    33  LYS33      -0.2864
     71  CB         8.0200 -132.0840    8.4510 C.3    33  LYS33       0.0298
     72  CG         8.0000 -133.0740    9.5860 C.3    33  LYS33       0.0038
     73  CD         8.4730 -134.4310    9.1310 C.3    33  LYS33       0.0206
     74  CE         8.1550 -135.4590   10.1940 C.3    33  LYS33       0.1093
     75  NZ         8.5730 -136.8020    9.7420 N.3    33  LYS33      -0.1314
     76  N         11.9390 -129.7730    8.0890 N.3    45  MET45      -0.1230
     77  CA        12.3920 -130.2030    9.4100 C.3    45  MET45       0.1702
     78  C         12.7280 -131.6870    9.4410 C.2    45  MET45       0.2592
     79  O         11.9270 -132.5230    9.0230 O.2    45  MET45      -0.2718
     80  CB        11.3120 -129.9350   10.4500 C.3    45  MET45       0.0401
     81  CG        10.8110 -128.5060   10.4750 C.3    45  MET45       0.0596
     82  SD         9.7260 -128.2250   11.8790 S.3    45  MET45      -0.1393
     83  CE         9.0670 -126.6250   11.4510 C.3    45  MET45       0.0692
     84  N         13.9130 -132.0020    9.9520 N.am   46  ALA46      -0.1966
     85  CA        14.3290 -133.3830   10.1770 C.3    46  ALA46       0.1728
     86  C         15.2800 -133.4330   11.3640 C.2    46  ALA46       0.2617
     87  O         16.0870 -132.5260   11.5630 O.2    46  ALA46      -0.2715
     88  CB        14.9970 -133.9540    8.9390 C.3    46  ALA46       0.0334
     89  N         15.1690 -134.4940   12.1530 N.am   47  GLY47      -0.1940
     90  CA        15.9740 -134.6660   13.3550 C.3    47  GLY47       0.2014
     91  C         15.1410 -134.3630   14.5820 C.2    47  GLY47       0.2639
     92  O         13.9960 -134.8050   14.6840 O.2    47  GLY47      -0.2714
     93  N         15.7110 -133.6020   15.5110 N.am   48  GLY48      -0.1939
     94  CA        15.0060 -133.2020   16.7240 C.3    48  GLY48       0.2014
     95  C         13.7940 -132.3550   16.3950 C.2    48  GLY48       0.2639
     96  O         13.8970 -131.3720   15.6620 O.2    48  GLY48      -0.2714
     97  N         12.6420 -132.7440   16.9330 N.am   49  ALA49      -0.1963
     98  CA        11.3800 -132.0660   16.6400 C.3    49  ALA49       0.1728
     99  C         11.3500 -130.6580   17.2200 C.2    49  ALA49       0.2616
    100  O         11.0280 -129.6990   16.5210 O.2    49  ALA49      -0.2715
    101  CB        10.2130 -132.8760   17.1790 C.3    49  ALA49       0.0334
    102  N         11.6850 -130.5460   18.5010 N.am   50  ALA50      -0.1977
    103  CA        11.6900 -129.2630   19.1960 C.3    50  ALA50       0.1597
    104  C         12.7480 -128.3230   18.6260 C.2    50  ALA50       0.2287
    105  O         12.4760 -127.1440   18.3960 O.2    50  ALA50      -0.2864
    106  CB        11.9250 -129.4720   20.6830 C.3    50  ALA50       0.0319
    107  N         14.1250 -128.2930   15.6210 N.3    52  CYS52      -0.1221
    108  CA        13.7210 -127.8420   14.2910 C.3    52  CYS52       0.1808
    109  C         12.5750 -126.8410   14.3620 C.2    52  CYS52       0.2601
    110  O         12.6370 -125.7790   13.7450 O.2    52  CYS52      -0.2717
    111  CB        13.3220 -129.0270   13.4100 C.3    52  CYS52       0.0970
    112  SG        14.7220 -129.9860   12.7980 S.3    52  CYS52      -0.0800
    113  N         11.5380 -127.1790   15.1240 N.am   53  GLN53      -0.1979
    114  CA        10.3670 -126.3140   15.2450 C.3    53  GLN53       0.1601
    115  C         10.7710 -124.9590   15.8170 C.2    53  GLN53       0.2287
    116  O         10.5410 -123.9280   15.2000 O.2    53  GLN53      -0.2864
    117  CB         9.2990 -126.9640   16.1290 C.3    53  GLN53       0.0394
    118  CG         7.8870 -126.4960   15.8340 C.3    53  GLN53       0.0908
    119  CD         6.8480 -127.2830   16.6090 C.2    53  GLN53       0.2608
    120  OE1        6.6890 -127.0980   17.8140 O.2    53  GLN53      -0.2717
    121  NE2        6.1350 -128.1700   15.9210 N.am   53  GLN53      -0.0878
    122  N         16.7390 -137.1010    6.3870 N.3   130  GLY130     -0.1210
    123  CA        15.9590 -137.8780    7.3450 C.3   130  GLY130      0.1956
    124  C         16.4090 -139.3260    7.3900 C.2   130  GLY130      0.2612
    125  O         17.2850 -139.7350    6.6290 O.2   130  GLY130     -0.2717
    126  N         15.7990 -140.1050    8.2810 N.am  131  SER131     -0.1952
    127  CA        16.1010 -141.5340    8.3980 C.3   131  SER131      0.1924
    128  C         15.7040 -142.3130    7.1450 C.2   131  SER131      0.2314
    129  O         16.2140 -143.4090    6.9060 O.2   131  SER131     -0.2863
    130  CB        15.3930 -142.1370    9.6120 C.3   131  SER131      0.2116
    131  OG        13.9920 -141.9330    9.5420 O.3   131  SER131     -0.2180
    132  N         10.4210 -145.4750   10.5830 N.3   170  TYR170     -0.1241
    133  CA        10.2730 -144.2020   11.2930 C.3   170  TYR170      0.1605
    134  C          9.6770 -143.0960   10.4100 C.2   170  TYR170      0.2264
    135  O          9.5570 -141.9470   10.8440 O.2   170  TYR170     -0.2867
    136  CB        11.6240 -143.7750   11.8840 C.3   170  TYR170      0.0534
    137  CG        12.2220 -144.8290   12.7980 C.ar  170  TYR170     -0.0201
    138  CD1       11.4940 -145.3380   13.8710 C.ar  170  TYR170     -0.0009
    139  CD2       13.5080 -145.3270   12.5860 C.ar  170  TYR170     -0.0009
    140  CE1       12.0270 -146.3080   14.7050 C.ar  170  TYR170      0.0417
    141  CE2       14.0480 -146.2940   13.4190 C.ar  170  TYR170      0.0417
    142  CZ        13.3050 -146.7810   14.4750 C.ar  170  TYR170      0.1957
    143  OH        13.8410 -147.7430   15.3030 O.3   170  TYR170     -0.2866
@<TRIPOS>BOND
     1   122   123    1
     2   125   124    2
     3   129   128    2
     4   128   127    1
     5     4     3    2
     6   123   124    1
     7   124   126   am
     8     3     2    1
     9    70    69    2
    10    69    68    1
    11    66    65    1
    12    76    77    1
    13    65    64    1
    14   126   127    1
    15   127   130    1
    16    71    68    1
    17    71    72    1
    18     7     5    1
    19     2     1    1
    20     2     5    1
    21    68    67    1
    22    88    85    1
    23    67    60   am
    24    79    78    2
    25    73    72    1
    26    73    74    1
    27    77    78    1
    28    77    80    1
    29    78    84   am
    30    64    63    1
    31     5     6    1
    32   131   130    1
    33    63    62    1
    34    75    74    1
    35    54    53    2
    36    84    85    1
    37    60    59    1
    38    60    61    2
    39    59    62    1
    40    59    58    1
    41    18    16    1
    42     8     9    1
    43    85    86    1
    44   134   135    2
    45   134   133    1
    46    80    81    1
    47    81    82    1
    48   132   133    1
    49    16    17    1
    50    16    15    2
    51    53    58   am
    52    53    52    1
    53    12     9    1
    54    12    13    1
    55    15    14    1
    56   133   136    1
    57     9    10    1
    58    86    87    2
    59    86    89   am
    60    83    82    1
    61    14    13    1
    62    51    52    1
    63   136   137    1
    64    11    10    2
    65    52    55    1
    66    89    90    1
    67    10    19   am
    68   139   137   ar
    69   139   141   ar
    70    56    55    1
    71    55    57    1
    72   137   138   ar
    73   112   111    1
    74    90    91    1
    75   111   108    1
    76   141   142   ar
    77    19    20    1
    78   110   109    2
    79   138   140   ar
    80    48    47    2
    81   108   109    1
    82   108   107    1
    83    47    46    1
    84   109   113   am
    85   142   140   ar
    86   142   143    1
    87    91    92    2
    88    91    93   am
    89    30    28    1
    90    20    23    1
    91    20    21    1
    92   113   114    1
    93   116   115    2
    94   114   115    1
    95   114   117    1
    96    50    49    1
    97    93    94    1
    98    21    22    2
    99    21    24   am
   100    96    95    2
   101    29    28    1
   102    46    49    1
   103    46    45    1
   104   118   117    1
   105   118   119    1
   106   121   119   am
   107    28    25    1
   108    24    25    1
   109    95    94    1
   110    95    97   am
   111   100    99    2
   112   119   120    2
   113    45    42   am
   114    98    97    1
   115    98   101    1
   116    98    99    1
   117    25    26    1
   118    99   102   am
   119    39    38    2
   120    40    41    1
   121    42    43    2
   122    42    41    1
   123    26    27    2
   124    26    31   am
   125   105   104    2
   126   102   103    1
   127    38    37    1
   128   104   103    1
   129    41    44    1
   130    31    32    1
   131   103   106    1
   132    37    36    1
   133    36    33   am
   134    32    33    1
   135    32    35    1
   136    33    34    2
