@<TRIPOS>MOLECULE
tmp/6hw0V00.pdb
 147 139 0 0 0
SMALL
GASTEIGER

@<TRIPOS>ATOM
      1  N          4.4240 -158.7870   43.7440 N.3     1  THR1       -0.1218
      2  CA         3.9700 -160.0220   44.4570 C.3     1  THR1        0.1862
      3  C          3.9170 -159.7580   45.9550 C.2     1  THR1        0.2287
      4  O          4.7640 -159.0500   46.5010 O.2     1  THR1       -0.2866
      5  CB         4.9110 -161.2070   44.1740 C.3     1  THR1        0.1770
      6  OG1        4.8230 -161.5290   42.7890 O.3     1  THR1       -0.2211
      7  CG2        4.5090 -162.4760   44.9350 C.3     1  THR1        0.0375
      8  N         -1.5730 -160.9960   40.9940 N.3    19  ARG19      -0.1231
      9  CA        -1.0780 -160.1320   39.9200 C.3    19  ARG19       0.1694
     10  C          0.2790 -160.6090   39.4070 C.2    19  ARG19       0.2593
     11  O          1.2320 -160.7540   40.1750 O.2    19  ARG19      -0.2718
     12  CB        -0.9620 -158.6790   40.3810 C.3    19  ARG19       0.0321
     13  CG        -0.3810 -157.7600   39.3120 C.3    19  ARG19       0.0489
     14  CD        -0.2710 -156.3290   39.7880 C.3    19  ARG19       0.2205
     15  NE        -1.5770 -155.6880   39.8820 N.pl3  19  ARG19      -0.0865
     16  CZ        -1.7740 -154.4150   40.2240 C.cat  19  ARG19       0.5346
     17  NH1       -0.7480 -153.6140   40.5150 N.pl3  19  ARG19       0.1354
     18  NH2       -3.0090 -153.9330   40.2800 N.pl3  19  ARG19       0.1354
     19  N          0.3510 -160.8070   38.0950 N.am   20  SER20      -0.1938
     20  CA         1.5930 -161.0930   37.3980 C.3    20  SER20       0.2055
     21  C          1.8920 -159.8660   36.5620 C.2    20  SER20       0.2644
     22  O          1.0000 -159.3520   35.8830 O.2    20  SER20      -0.2714
     23  CB         1.4210 -162.3040   36.4910 C.3    20  SER20       0.2130
     24  OG         2.6620 -162.7380   35.9640 O.3    20  SER20      -0.2179
     25  N          3.1300 -159.3860   36.6100 N.am   21  THR21      -0.1936
     26  CA         3.4930 -158.1810   35.8770 C.3    21  THR21       0.2028
     27  C          4.7420 -158.3510   35.0650 C.2    21  THR21       0.2642
     28  O          5.6060 -159.1750   35.3790 O.2    21  THR21      -0.2714
     29  CB         3.7400 -156.9760   36.7980 C.3    21  THR21       0.1808
     30  OG1        4.8500 -157.2480   37.6620 O.3    21  THR21      -0.2208
     31  CG2        2.5250 -156.6810   37.6230 C.3    21  THR21       0.0379
     32  N          4.8290 -157.5330   34.0250 N.am   22  GLN22      -0.1963
     33  CA         6.0510 -157.3960   33.2730 C.3    22  GLN22       0.1733
     34  C          6.3740 -155.9090   33.0990 C.2    22  GLN22       0.2616
     35  O          5.6670 -155.1660   32.4110 O.2    22  GLN22      -0.2715
     36  CB         5.9960 -158.2370   31.9980 C.3    22  GLN22       0.0408
     37  CG         5.6890 -157.6720   30.6210 C.3    22  GLN22       0.0908
     38  CD         6.3060 -158.6040   29.5990 C.2    22  GLN22       0.2608
     39  OE1        7.3810 -158.4390   29.1800 O.2    22  GLN22      -0.2717
     40  NE2        5.6470 -159.6320   29.2980 N.am   22  GLN22      -0.0878
     41  N          7.4270 -155.4850   33.7960 N.am   23  GLY23      -0.1955
     42  CA         7.7300 -154.0730   33.9660 C.3    23  GLY23       0.1869
     43  C          6.5750 -153.4160   34.7030 C.2    23  GLY23       0.2309
     44  O          6.0960 -153.9620   35.7000 O.2    23  GLY23      -0.2863
     45  N          0.5380 -158.3820   33.1850 N.3    27  ALA27      -0.1231
     46  CA         0.4210 -159.4430   32.1800 C.3    27  ALA27       0.1694
     47  C         -0.7680 -160.3640   32.4620 C.2    27  ALA27       0.2592
     48  O         -1.5850 -160.6180   31.5760 O.2    27  ALA27      -0.2718
     49  CB         1.7080 -160.2480   32.1160 C.3    27  ALA27       0.0304
     50  N         -0.8500 -160.8540   33.6980 N.am   28  ASP28      -0.1974
     51  CA        -1.9460 -161.7200   34.1490 C.3    28  ASP28       0.1709
     52  C         -2.5940 -161.1060   35.3850 C.2    28  ASP28       0.2293
     53  O         -1.9350 -160.9110   36.4100 O.2    28  ASP28      -0.2864
     54  CB        -1.4390 -163.1330   34.4800 C.3    28  ASP28       0.1436
     55  CG        -2.5630 -164.1770   34.5560 C.2    28  ASP28       0.3671
     56  OD1       -2.2500 -165.3850   34.4670 O.co2  28  ASP28      -0.2456
     57  OD2       -3.7480 -163.8120   34.7190 O.co2  28  ASP28      -0.2456
     58  N         -3.3050 -164.7360   38.0280 N.3    31  CYS31      -0.1221
     59  CA        -2.4330 -165.9150   38.0440 C.3    31  CYS31       0.1808
     60  C         -2.4680 -166.5380   39.4330 C.2    31  CYS31       0.2601
     61  O         -2.7980 -165.8710   40.4110 O.2    31  CYS31      -0.2717
     62  CB        -0.9970 -165.5610   37.6560 C.3    31  CYS31       0.0970
     63  SG        -0.0820 -164.6980   38.9510 S.3    31  CYS31      -0.0800
     64  N         -2.1450 -167.8230   39.5080 N.am   32  ALA32      -0.1965
     65  CA        -2.1210 -168.5490   40.7720 C.3    32  ALA32       0.1728
     66  C         -0.6690 -168.7200   41.1690 C.2    32  ALA32       0.2616
     67  O          0.1010 -169.3490   40.4430 O.2    32  ALA32      -0.2715
     68  CB        -2.7940 -169.9000   40.6220 C.3    32  ALA32       0.0334
     69  N         -0.2940 -168.1490   42.3090 N.am   33  LYS33      -0.1977
     70  CA         1.0930 -168.1980   42.7750 C.3    33  LYS33       0.1596
     71  C          1.3550 -169.2920   43.7970 C.2    33  LYS33       0.2287
     72  O          2.5080 -169.5150   44.1690 O.2    33  LYS33      -0.2864
     73  CB         1.4840 -166.8540   43.3630 C.3    33  LYS33       0.0298
     74  CG         1.1690 -165.7050   42.4330 C.3    33  LYS33       0.0038
     75  CD         1.8240 -164.4310   42.9060 C.3    33  LYS33       0.0206
     76  CE         1.3320 -163.2570   42.0830 C.3    33  LYS33       0.1093
     77  NZ         1.7870 -161.9910   42.6960 N.3    33  LYS33      -0.1314
     78  N          1.7840 -172.9310   44.5560 N.3    35  HIS35      -0.1241
     79  CA         2.1650 -174.1270   43.8280 C.3    35  HIS35       0.1621
     80  C          2.1550 -175.3310   44.7280 C.2    35  HIS35       0.2264
     81  O          2.3400 -175.2260   45.9410 O.2    35  HIS35      -0.2867
     82  CB         3.5580 -173.9750   43.2370 C.3    35  HIS35       0.0745
     83  CG         3.6560 -172.8920   42.2160 C.ar   35  HIS35       0.0817
     84  ND1        4.6050 -171.8950   42.2780 N.ar   35  HIS35      -0.2268
     85  CD2        2.9090 -172.6380   41.1160 C.ar   35  HIS35       0.1154
     86  CE1        4.4460 -171.0790   41.2510 C.ar   35  HIS35       0.1986
     87  NE2        3.4230 -171.5060   40.5320 N.ar   35  HIS35      -0.2212
     88  N          5.6650 -168.5160   45.5780 N.3    45  GLY45      -0.1210
     89  CA         6.8870 -167.9920   44.9580 C.3    45  GLY45       0.1956
     90  C          6.8420 -166.5290   44.5430 C.2    45  GLY45       0.2612
     91  O          5.8000 -166.0130   44.1310 O.2    45  GLY45      -0.2717
     92  N          7.9860 -165.8640   44.6830 N.am   46  ALA46      -0.1965
     93  CA         8.2030 -164.4940   44.2170 C.3    46  ALA46       0.1728
     94  C          9.5530 -164.4310   43.5140 C.2    46  ALA46       0.2617
     95  O         10.3210 -165.3910   43.5490 O.2    46  ALA46      -0.2715
     96  CB         8.1830 -163.5280   45.3850 C.3    46  ALA46       0.0334
     97  N          9.8640 -163.2860   42.9200 N.am   47  GLY47      -0.1940
     98  CA        11.0260 -163.1490   42.0440 C.3    47  GLY47       0.2014
     99  C         10.6850 -163.5490   40.6190 C.2    47  GLY47       0.2640
    100  O          9.5420 -163.3870   40.1780 O.2    47  GLY47      -0.2714
    101  N         11.6760 -164.0770   39.9010 N.am   48  THR48      -0.1936
    102  CA        11.4940 -164.5060   38.5090 C.3    48  THR48       0.2028
    103  C         10.4830 -165.6490   38.3850 C.2    48  THR48       0.2642
    104  O         10.7390 -166.7530   38.8530 O.2    48  THR48      -0.2714
    105  CB        12.8190 -164.9460   37.8640 C.3    48  THR48       0.1808
    106  OG1       13.8190 -163.9460   38.0870 O.3    48  THR48      -0.2208
    107  CG2       12.6410 -165.1550   36.3610 C.3    48  THR48       0.0379
    108  N          9.3640 -165.3780   37.7150 N.am   49  ALA49      -0.1963
    109  CA         8.2250 -166.3110   37.6480 C.3    49  ALA49       0.1728
    110  C          8.5300 -167.6560   36.9920 C.2    49  ALA49       0.2616
    111  O          8.0390 -168.6880   37.4460 O.2    49  ALA49      -0.2715
    112  CB         7.0560 -165.6530   36.9360 C.3    49  ALA49       0.0334
    113  N          9.3160 -167.6340   35.9190 N.am   50  ALA50      -0.1977
    114  CA         9.7360 -168.8630   35.2420 C.3    50  ALA50       0.1597
    115  C         10.5900 -169.7290   36.1490 C.2    50  ALA50       0.2287
    116  O         10.4470 -170.9510   36.1620 O.2    50  ALA50      -0.2864
    117  CB        10.5250 -168.5360   34.0000 C.3    50  ALA50       0.0319
    118  N         10.6700 -169.7160   39.5510 N.3    52  THR52      -0.1203
    119  CA         9.9280 -170.2540   40.7000 C.3    52  THR52       0.1994
    120  C          9.0860 -171.4500   40.2720 C.2    52  THR52       0.2617
    121  O          8.9470 -172.4000   41.0250 O.2    52  THR52      -0.2717
    122  CB         9.0090 -169.2260   41.4060 C.3    52  THR52       0.1784
    123  OG1        7.8290 -168.9910   40.6220 O.3    52  THR52      -0.2211
    124  CG2        9.7280 -167.9190   41.6650 C.3    52  THR52       0.0376
    125  N          8.5280 -171.3890   39.0650 N.am   53  GLU53      -0.1979
    126  CA         7.7670 -172.5100   38.4920 C.3    53  GLU53       0.1602
    127  C          8.6420 -173.7140   38.1490 C.2    53  GLU53       0.2287
    128  O          8.2760 -174.8530   38.4280 O.2    53  GLU53      -0.2864
    129  CB         7.0040 -172.0690   37.2370 C.3    53  GLU53       0.0415
    130  CG         5.5840 -171.5960   37.5170 C.3    53  GLU53       0.1163
    131  CD         4.5820 -172.7300   37.7060 C.2    53  GLU53       0.3649
    132  OE1        4.9540 -173.9210   37.5960 O.co2  53  GLU53      -0.2457
    133  OE2        3.3990 -172.4230   37.9660 O.co2  53  GLU53      -0.2457
    134  N          8.3670 -161.0120   48.5880 N.3   128  GLY128     -0.1210
    135  CA         7.8870 -160.2630   47.4210 C.3   128  GLY128      0.1956
    136  C          8.0220 -158.7600   47.5770 C.2   128  GLY128      0.2612
    137  O          8.5100 -158.2730   48.5930 O.2   128  GLY128     -0.2717
    138  N          7.5830 -158.0260   46.5590 N.am  129  SER129     -0.1952
    139  CA         7.6660 -156.5600   46.5580 C.3   129  SER129      0.1924
    140  C          6.7250 -155.9290   47.5890 C.2   129  SER129      0.2314
    141  O          6.9980 -154.8410   48.1010 O.2   129  SER129     -0.2863
    142  CB         7.3900 -155.9920   45.1580 C.3   129  SER129      0.2116
    143  OG         6.0990 -156.3510   44.6900 O.3   129  SER129     -0.2180
    144  N          3.2780 -153.5150   42.6970 N.3   168  GLY168     -0.1225
    145  CA         3.6110 -154.8290   42.1340 C.3   168  GLY168      0.1811
    146  C          2.5890 -155.9250   42.4190 C.2   168  GLY168      0.2280
    147  O          2.5940 -156.9650   41.7500 O.2   168  GLY168     -0.2866
@<TRIPOS>BOND
     1    39    38    2
     2    40    38   am
     3    38    37    1
     4    37    36    1
     5    48    47    2
     6    36    33    1
     7    49    46    1
     8    46    47    1
     9    46    45    1
    10    35    34    2
    11    47    50   am
    12    34    33    1
    13    34    41   am
    14    33    32    1
    15    50    51    1
    16    41    42    1
    17    42    43    1
    18   117   114    1
    19    32    27   am
    20    51    54    1
    21    51    52    1
    22    56    55   ar
    23    54    55    1
    24    55    57   ar
    25    43    44    2
    26    27    28    2
    27    27    26    1
    28   114   113    1
    29   114   115    1
    30    52    53    2
    31    26    25    1
    32    26    29    1
    33    22    21    2
    34   113   110   am
    35    24    23    1
    36   115   116    2
    37   107   105    1
    38    23    20    1
    39    21    25   am
    40    21    20    1
    41    29    31    1
    42    29    30    1
    43   112   109    1
    44   110   111    2
    45   110   109    1
    46   129   130    1
    47   129   126    1
    48    20    19    1
    49   130   131    1
    50   132   131   ar
    51   109   108    1
    52    62    59    1
    53    62    63    1
    54   131   133   ar
    55   108   103   am
    56   105   106    1
    57   105   102    1
    58    58    59    1
    59    59    60    1
    60    19    10   am
    61   127   128    2
    62   127   126    1
    63   103   102    1
    64   103   104    2
    65   126   125    1
    66   102   101    1
    67   125   120   am
    68    13    14    1
    69    13    12    1
    70    10     9    1
    71    10    11    2
    72    60    64   am
    73    60    61    2
    74    64    65    1
    75   118   119    1
    76    14    15    1
    77    15    16    2
    78   101    99   am
    79     9    12    1
    80     9     8    1
    81   100    99    2
    82    16    18    1
    83    16    17    1
    84   120   119    1
    85   120   121    2
    86    67    66    2
    87    87    85   ar
    88    87    86   ar
    89    99    98    1
    90    68    65    1
    91   123   122    1
    92   119   122    1
    93    65    66    1
    94    85    83   ar
    95    66    69   am
    96    86    84   ar
    97   122   124    1
    98   147   146    2
    99    98    97    1
   100    76    77    1
   101    76    75    1
   102   145   146    1
   103   145   144    1
   104    83    84   ar
   105    83    82    1
   106    69    70    1
   107    74    75    1
   108    74    73    1
   109    70    73    1
   110    70    71    1
   111     6     5    1
   112    97    94   am
   113    82    79    1
   114    94    95    2
   115    94    93    1
   116     1     2    1
   117    71    72    2
   118    79    78    1
   119    79    80    1
   120    91    90    2
   121     5     2    1
   122     5     7    1
   123    93    92    1
   124    93    96    1
   125     2     3    1
   126    90    92   am
   127    90    89    1
   128   143   142    1
   129    80    81    2
   130    89    88    1
   131   142   139    1
   132     3     4    2
   133   139   138    1
   134   139   140    1
   135   138   136   am
   136   135   136    1
   137   135   134    1
   138   136   137    2
   139   140   141    2
