@<TRIPOS>MOLECULE
tmp/6hw0Y00.pdb
 149 141 0 0 0
SMALL
GASTEIGER

@<TRIPOS>ATOM
      1  N         57.9130 -151.3800    7.8270 N.3     1  THR1       -0.1218
      2  CA        57.7510 -152.6020    6.9700 C.3     1  THR1        0.1862
      3  C         57.0660 -152.2750    5.6660 C.2     1  THR1        0.2287
      4  O         55.9600 -151.7340    5.6470 O.2     1  THR1       -0.2866
      5  CB        56.9670 -153.6890    7.6880 C.3     1  THR1        0.1770
      6  OG1       57.7700 -154.0880    8.8030 O.3     1  THR1       -0.2211
      7  CG2       56.6860 -154.9190    6.8120 C.3     1  THR1        0.0375
      8  N         63.7990 -153.5720    8.0360 N.3    19  ARG19      -0.1231
      9  CA        63.6940 -152.9120    9.3490 C.3    19  ARG19       0.1694
     10  C         62.6370 -153.5100   10.2870 C.2    19  ARG19       0.2592
     11  O         61.5030 -153.7840    9.8840 O.2    19  ARG19      -0.2718
     12  CB        63.4350 -151.4120    9.1890 C.3    19  ARG19       0.0321
     13  CG        63.2030 -150.6900   10.5130 C.3    19  ARG19       0.0489
     14  CD        63.0710 -149.1970   10.3200 C.3    19  ARG19       0.2205
     15  NE        64.3590 -148.5710   10.0380 N.pl3  19  ARG19      -0.0865
     16  CZ        64.5400 -147.2660    9.8440 C.cat  19  ARG19       0.5346
     17  NH1       63.5140 -146.4200    9.8960 N.pl3  19  ARG19       0.1354
     18  NH2       65.7570 -146.7990    9.5950 N.pl3  19  ARG19       0.1354
     19  N         63.0310 -153.6650   11.5510 N.am   20  ALA20      -0.1966
     20  CA        62.1560 -154.1350   12.6210 C.3    20  ALA20       0.1728
     21  C         62.0740 -153.0620   13.7010 C.2    20  ALA20       0.2617
     22  O         63.1010 -152.5630   14.1670 O.2    20  ALA20      -0.2715
     23  CB        62.6960 -155.4230   13.2110 C.3    20  ALA20       0.0334
     24  N         60.8520 -152.7220   14.1010 N.am   21  THR21      -0.1937
     25  CA        60.6240 -151.6870   15.1030 C.3    21  THR21       0.2028
     26  C         59.7940 -152.2000   16.2730 C.2    21  THR21       0.2642
     27  O         58.9460 -153.0760   16.1070 O.2    21  THR21      -0.2714
     28  CB        59.9070 -150.4680   14.4920 C.3    21  THR21       0.1808
     29  OG1       58.6770 -150.8820   13.8830 O.3    21  THR21      -0.2208
     30  CG2       60.7760 -149.8080   13.4460 C.3    21  THR21       0.0379
     31  N         60.0680 -151.6510   17.4540 N.am   22  ALA22      -0.1963
     32  CA        59.2500 -151.8550   18.6460 C.3    22  ALA22       0.1728
     33  C         58.7820 -150.4720   19.0750 C.2    22  ALA22       0.2616
     34  O         59.5180 -149.7300   19.7220 O.2    22  ALA22      -0.2715
     35  CB        60.0630 -152.5090   19.7480 C.3    22  ALA22       0.0334
     36  N         57.5600 -150.1180   18.6960 N.am   23  GLY23      -0.1955
     37  CA        57.0800 -148.7530   18.8710 C.3    23  GLY23       0.1869
     38  C         57.8750 -147.8440   17.9520 C.2    23  GLY23       0.2309
     39  O         57.8840 -148.0500   16.7390 O.2    23  GLY23      -0.2863
     40  N         64.7330 -151.6240   16.3470 N.3    27  ALA27      -0.1231
     41  CA        65.3760 -152.7970   16.9360 C.3    27  ALA27       0.1694
     42  C         66.4370 -153.4050   16.0300 C.2    27  ALA27       0.2592
     43  O         67.4860 -153.8330   16.5080 O.2    27  ALA27      -0.2718
     44  CB        64.3380 -153.8380   17.2730 C.3    27  ALA27       0.0304
     45  N         66.1620 -153.4540   14.7310 N.am   28  SER28      -0.1952
     46  CA        67.1150 -153.9920   13.7630 C.3    28  SER28       0.1924
     47  C         66.9160 -153.3860   12.3770 C.2    28  SER28       0.2314
     48  O         65.8200 -152.9310   12.0430 O.2    28  SER28      -0.2863
     49  CB        66.9870 -155.5170   13.6950 C.3    28  SER28       0.2116
     50  OG        67.8460 -156.0660   12.7080 O.3    28  SER28      -0.2180
     51  N         67.1480 -157.3880    9.1170 N.3    31  VAL31      -0.1231
     52  CA        66.2130 -158.5060    9.2450 C.3    31  VAL31       0.1692
     53  C         65.8790 -159.0870    7.8780 C.2    31  VAL31       0.2592
     54  O         65.6930 -158.3470    6.9130 O.2    31  VAL31      -0.2718
     55  CB        64.9100 -158.0610    9.9560 C.3    31  VAL31       0.0266
     56  CG1       63.7690 -159.0390    9.7150 C.3    31  VAL31       0.0020
     57  CG2       65.1520 -157.9130   11.4480 C.3    31  VAL31       0.0020
     58  N         65.7840 -160.4140    7.8170 N.am   32  LYS32      -0.1966
     59  CA        65.3390 -161.1110    6.6130 C.3    32  LYS32       0.1728
     60  C         63.8210 -161.2780    6.6650 C.2    32  LYS32       0.2616
     61  O         63.3010 -162.0430    7.4740 O.2    32  LYS32      -0.2715
     62  CB        66.0500 -162.4640    6.4540 C.3    32  LYS32       0.0311
     63  CG        67.4830 -162.3480    5.9310 C.3    32  LYS32       0.0038
     64  CD        68.0190 -163.6820    5.4160 C.3    32  LYS32       0.0206
     65  CE        67.5460 -163.9890    3.9970 C.3    32  LYS32       0.1093
     66  NZ        67.5000 -165.4530    3.7170 N.3    32  LYS32      -0.1314
     67  N         63.1260 -160.5390    5.8020 N.am   33  LYS33      -0.1977
     68  CA        61.6630 -160.5770    5.6970 C.3    33  LYS33       0.1596
     69  C         61.1530 -161.4540    4.5630 C.2    33  LYS33       0.2287
     70  O         59.9570 -161.4560    4.2610 O.2    33  LYS33      -0.2864
     71  CB        61.1230 -159.1680    5.5030 C.3    33  LYS33       0.0298
     72  CG        61.2740 -158.3180    6.7390 C.3    33  LYS33       0.0038
     73  CD        60.5510 -157.0080    6.5730 C.3    33  LYS33       0.0206
     74  CE        60.9950 -156.0350    7.6420 C.3    33  LYS33       0.1093
     75  NZ        60.2910 -154.7600    7.4140 N.3    33  LYS33      -0.1314
     76  N         57.0960 -161.4710    4.7940 N.3    45  MET45      -0.1230
     77  CA        56.6490 -161.2810    6.1700 C.3    45  MET45       0.1702
     78  C         56.3700 -159.8200    6.4830 C.2    45  MET45       0.2592
     79  O         57.2500 -158.9710    6.3510 O.2    45  MET45      -0.2718
     80  CB        57.7100 -161.7880    7.1300 C.3    45  MET45       0.0401
     81  CG        58.0620 -163.2530    6.9570 C.3    45  MET45       0.0596
     82  SD        59.4890 -163.7060    7.9540 S.3    45  MET45      -0.1393
     83  CE        59.9010 -165.2550    7.1650 C.3    45  MET45       0.0692
     84  N         55.1380 -159.5430    6.8960 N.am   46  ALA46      -0.1966
     85  CA        54.7530 -158.2470    7.4530 C.3    46  ALA46       0.1728
     86  C         53.7910 -158.4800    8.6150 C.2    46  ALA46       0.2617
     87  O         53.0400 -159.4510    8.6290 O.2    46  ALA46      -0.2715
     88  CB        54.1100 -157.3670    6.3920 C.3    46  ALA46       0.0334
     89  N         53.8260 -157.5750    9.5810 N.am   47  GLY47      -0.1940
     90  CA        53.0390 -157.6650   10.8060 C.3    47  GLY47       0.2014
     91  C         53.9360 -158.1210   11.9330 C.2    47  GLY47       0.2639
     92  O         55.1010 -157.7270   12.0010 O.2    47  GLY47      -0.2714
     93  N         53.3860 -158.9470   12.8190 N.am   48  GLY48      -0.1939
     94  CA        54.1350 -159.5440   13.9250 C.3    48  GLY48       0.2014
     95  C         55.3700 -160.2910   13.4520 C.2    48  GLY48       0.2639
     96  O         55.3100 -161.0610   12.4920 O.2    48  GLY48      -0.2714
     97  N         56.4890 -160.0520   14.1310 N.am   49  ALA49      -0.1963
     98  CA        57.7840 -160.6160   13.7400 C.3    49  ALA49       0.1728
     99  C         57.8490 -162.1160   13.9850 C.2    49  ALA49       0.2616
    100  O         58.1760 -162.8780   13.0780 O.2    49  ALA49      -0.2715
    101  CB        58.9060 -159.9270   14.5010 C.3    49  ALA49       0.0334
    102  N         57.5500 -162.5190   15.2190 N.am   50  ALA50      -0.1977
    103  CA        57.5690 -163.9250   15.6170 C.3    50  ALA50       0.1597
    104  C         56.5120 -164.7150   14.8650 C.2    50  ALA50       0.2287
    105  O         56.8080 -165.7760   14.3210 O.2    50  ALA50      -0.2864
    106  CB        57.3530 -164.0580   17.1140 C.3    50  ALA50       0.0319
    107  N         55.0950 -164.2210   11.9760 N.3    52  CYS52      -0.1221
    108  CA        55.4950 -164.4260   10.5840 C.3    52  CYS52       0.1808
    109  C         56.6400 -165.4290   10.4450 C.2    52  CYS52       0.2601
    110  O         56.5420 -166.3830    9.6730 O.2    52  CYS52      -0.2717
    111  CB        55.8900 -163.0980    9.9410 C.3    52  CYS52       0.0970
    112  SG        54.4920 -162.1040    9.3800 S.3    52  CYS52      -0.0800
    113  N         57.7140 -165.2030   11.1990 N.am   53  GLN53      -0.1979
    114  CA        58.8970 -166.0650   11.1490 C.3    53  GLN53       0.1601
    115  C         58.5330 -167.5070   11.5020 C.2    53  GLN53       0.2287
    116  O         58.8030 -168.4170   10.7360 O.2    53  GLN53      -0.2864
    117  CB        59.9900 -165.5480   12.0900 C.3    53  GLN53       0.0394
    118  CG        61.3890 -165.9770   11.7030 C.3    53  GLN53       0.0908
    119  CD        62.4340 -165.3560   12.5980 C.2    53  GLN53       0.2608
    120  OE1       62.6160 -165.7800   13.7390 O.2    53  GLN53      -0.2717
    121  NE2       63.1250 -164.3390   12.0910 N.am   53  GLN53      -0.0878
    122  N         49.0990 -161.4560   14.1970 N.3    96  SER96      -0.1217
    123  CA        49.2540 -160.3160   13.2980 C.3    96  SER96       0.1889
    124  C         50.2120 -160.7170   12.1800 C.2    96  SER96       0.2288
    125  O         51.4240 -160.8340   12.3940 O.2    96  SER96      -0.2866
    126  CB        49.7790 -159.0970   14.0630 C.3    96  SER96       0.2089
    127  OG        49.7640 -157.9360   13.2460 O.3    96  SER96      -0.2183
    128  N         52.2120 -154.0000    4.4710 N.3   130  GLY130     -0.1210
    129  CA        52.9870 -153.3710    5.5410 C.3   130  GLY130      0.1956
    130  C         52.5690 -151.9290    5.7930 C.2   130  GLY130      0.2612
    131  O         51.6990 -151.3910    5.1040 O.2   130  GLY130     -0.2717
    132  N         53.2050 -151.3070    6.7880 N.am  131  SER131     -0.1952
    133  CA        52.9370 -149.9100    7.1560 C.3   131  SER131      0.1924
    134  C         53.3260 -148.9210    6.0530 C.2   131  SER131      0.2314
    135  O         52.7730 -147.8210    5.9830 O.2   131  SER131     -0.2863
    136  CB        53.6600 -149.5360    8.4570 C.3   131  SER131      0.2116
    137  OG        55.0670 -149.6520    8.3330 O.3   131  SER131     -0.2180
    138  N         58.6240 -146.4130    9.8970 N.3   170  TYR170     -0.1241
    139  CA        58.8090 -147.7970   10.3410 C.3   170  TYR170      0.1605
    140  C         59.4040 -148.7300    9.2690 C.2   170  TYR170      0.2264
    141  O         59.5900 -149.9230    9.5340 O.2   170  TYR170     -0.2867
    142  CB        57.4800 -148.3450   10.8920 C.3   170  TYR170      0.0534
    143  CG        56.9100 -147.4690   11.9970 C.ar  170  TYR170     -0.0201
    144  CD1       57.6730 -147.1580   13.1290 C.ar  170  TYR170     -0.0009
    145  CD2       55.6240 -146.9250   11.9070 C.ar  170  TYR170     -0.0009
    146  CE1       57.1740 -146.3450   14.1350 C.ar  170  TYR170      0.0417
    147  CE2       55.1180 -146.1130   12.9160 C.ar  170  TYR170      0.0417
    148  CZ        55.8980 -145.8260   14.0260 C.ar  170  TYR170      0.1957
    149  OH        55.4090 -145.0210   15.0350 O.3   170  TYR170     -0.2866
@<TRIPOS>BOND
     1    66    65    1
     2    65    64    1
     3    70    69    2
     4   128   129    1
     5    69    68    1
     6    76    77    1
     7   131   130    2
     8    64    63    1
     9    71    68    1
    10    71    72    1
    11   129   130    1
    12     4     3    2
    13     3     2    1
    14    68    67    1
    15   130   132   am
    16    67    60   am
    17    63    62    1
    18   135   134    2
    19   134   133    1
    20    77    78    1
    21    77    80    1
    22    79    78    2
    23    88    85    1
    24    62    59    1
    25    78    84   am
    26    73    72    1
    27    73    74    1
    28    59    60    1
    29    59    58    1
    30    60    61    2
    31   132   133    1
    32     7     5    1
    33    84    85    1
    34    54    53    2
    35    81    80    1
    36    81    82    1
    37     2     5    1
    38     2     1    1
    39   133   136    1
    40    83    82    1
    41    75    74    1
    42    85    86    1
    43     5     6    1
    44    58    53   am
    45    53    52    1
    46     8     9    1
    47   137   136    1
    48    86    87    2
    49    86    89   am
    50    51    52    1
    51    12     9    1
    52    12    13    1
    53    52    55    1
    54   140   141    2
    55   140   139    1
    56     9    10    1
    57   112   111    1
    58    89    90    1
    59    18    16    1
    60   110   109    2
    61    56    55    1
    62    16    17    1
    63    16    15    2
    64    11    10    2
    65   138   139    1
    66   111   108    1
    67    55    57    1
    68    15    14    1
    69    10    19   am
    70    14    13    1
    71   139   142    1
    72   109   108    1
    73   109   113   am
    74   108   107    1
    75   116   115    2
    76    90    91    1
    77   142   143    1
    78   114   113    1
    79   114   115    1
    80   114   117    1
    81    19    20    1
    82   118   117    1
    83   118   119    1
    84   145   143   ar
    85   145   147   ar
    86    91    92    2
    87    91    93   am
    88   143   144   ar
    89    48    47    2
    90   121   119   am
    91   124   125    2
    92   124   123    1
    93    47    46    1
    94    96    95    2
    95   119   120    2
    96    20    23    1
    97    20    21    1
    98    50    49    1
    99    93    94    1
   100   147   148   ar
   101   100    99    2
   102   144   146   ar
   103   127   126    1
   104   123   126    1
   105   123   122    1
   106    30    28    1
   107    95    94    1
   108    95    97   am
   109    49    46    1
   110    21    24   am
   111    21    22    2
   112    98    99    1
   113    98    97    1
   114    98   101    1
   115    46    45    1
   116    29    28    1
   117    99   102   am
   118   148   146   ar
   119   148   149    1
   120    24    25    1
   121   105   104    2
   122    28    25    1
   123    45    42   am
   124   104   103    1
   125    25    26    1
   126   102   103    1
   127   103   106    1
   128    42    43    2
   129    42    41    1
   130    27    26    2
   131    26    31   am
   132    40    41    1
   133    39    38    2
   134    41    44    1
   135    31    32    1
   136    38    37    1
   137    32    33    1
   138    32    35    1
   139    36    37    1
   140    36    33   am
   141    33    34    2
