@<TRIPOS>MOLECULE
tmp/6hw3H00.pdb
 84 76 0 0 0
SMALL
GASTEIGER

@<TRIPOS>ATOM
      1  N         65.2770 -138.9280   45.2390 N.3     1  THR1       -0.1218
      2  CA        65.6760 -137.8110   46.1460 C.3     1  THR1        0.1862
      3  C         65.6760 -138.2840   47.5930 C.2     1  THR1        0.2287
      4  O         64.7600 -138.9830   48.0300 O.2     1  THR1       -0.2866
      5  CB        64.7410 -136.5940   46.0220 C.3     1  THR1        0.1770
      6  OG1       64.9290 -136.0210   44.7290 O.3     1  THR1       -0.2211
      7  CG2       65.0600 -135.4870   47.0390 C.3     1  THR1        0.0375
      8  N         68.8860 -135.8690   39.8140 N.3    20  SER20      -0.1202
      9  CA        67.6380 -135.4590   39.1830 C.3    20  SER20       0.2020
     10  C         67.2820 -136.5180   38.1460 C.2    20  SER20       0.2619
     11  O         68.1570 -136.9730   37.4060 O.2    20  SER20      -0.2717
     12  CB        67.8100 -134.1000   38.5140 C.3    20  SER20       0.2103
     13  OG        66.5630 -133.5000   38.2290 O.3    20  SER20      -0.2182
     14  N         66.0090 -136.9050   38.0910 N.am   21  THR21      -0.1938
     15  CA        65.5670 -137.9970   37.2280 C.3    21  THR21       0.2028
     16  C         64.3730 -137.6120   36.3650 C.2    21  THR21       0.2642
     17  O         63.5630 -136.7640   36.7500 O.2    21  THR21      -0.2714
     18  CB        65.1920 -139.2450   38.0570 C.3    21  THR21       0.1808
     19  OG1       64.2170 -138.8970   39.0500 O.3    21  THR21      -0.2208
     20  CG2       66.4210 -139.8210   38.7410 C.3    21  THR21       0.0379
     21  N         64.2960 -138.2370   35.1900 N.am   22  GLN22      -0.1976
     22  CA        63.0700 -138.3020   34.3910 C.3    22  GLN22       0.1601
     23  C         62.7390 -139.7720   34.1640 C.2    22  GLN22       0.2287
     24  O         63.2280 -140.4000   33.2170 O.2    22  GLN22      -0.2864
     25  CB        63.2100 -137.5390   33.0660 C.3    22  GLN22       0.0394
     26  CG        62.3590 -136.2810   33.0130 C.3    22  GLN22       0.0908
     27  CD        62.1580 -135.7600   31.6010 C.2    22  GLN22       0.2608
     28  OE1       62.9420 -135.0130   31.0850 O.2    22  GLN22      -0.2717
     29  NE2       61.1200 -136.1780   30.9900 N.am   22  GLN22      -0.0878
     30  N         68.5900 -137.3120   34.6490 N.3    27  ALA27      -0.1245
     31  CA        68.6520 -136.0760   33.8730 C.3    27  ALA27       0.1562
     32  C         69.8640 -135.2390   34.2790 C.2    27  ALA27       0.2260
     33  O         70.6820 -134.8670   33.4360 O.2    27  ALA27      -0.2867
     34  CB        67.3690 -135.2770   34.0600 C.3    27  ALA27       0.0290
     35  N         71.1130 -129.0110   42.3870 N.3    32  ALA32      -0.1245
     36  CA        71.1350 -128.3750   43.7070 C.3    32  ALA32       0.1562
     37  C         69.7210 -128.3540   44.2660 C.2    32  ALA32       0.2260
     38  O         68.8640 -127.6190   43.7690 O.2    32  ALA32      -0.2867
     39  CB        71.6810 -126.9640   43.6040 C.3    32  ALA32       0.0290
     40  N         67.5410 -125.0340   48.4480 N.3    35  HIS35      -0.1241
     41  CA        67.1680 -123.7040   48.0020 C.3    35  HIS35       0.1621
     42  C         67.1510 -122.7570   49.1560 C.2    35  HIS35       0.2264
     43  O         67.0270 -123.1500   50.3140 O.2    35  HIS35      -0.2867
     44  CB        65.7970 -123.7130   47.3430 C.3    35  HIS35       0.0745
     45  CG        65.7270 -124.6080   46.1530 C.ar   35  HIS35       0.0817
     46  ND1       66.7370 -124.6630   45.2180 N.ar   35  HIS35      -0.2268
     47  CD2       64.7890 -125.4980   45.7530 C.ar   35  HIS35       0.1154
     48  CE1       66.4240 -125.5480   44.2910 C.ar   35  HIS35       0.1986
     49  NE2       65.2430 -126.0650   44.5870 N.ar   35  HIS35      -0.2212
     50  N         59.6680 -134.2330   45.2000 N.3    47  GLY47      -0.1210
     51  CA        58.4680 -134.2750   44.3610 C.3    47  GLY47       0.1956
     52  C         58.7330 -133.7100   42.9740 C.2    47  GLY47       0.2613
     53  O         59.8180 -133.9020   42.4110 O.2    47  GLY47      -0.2717
     54  N         57.7430 -133.0120   42.4200 N.am   48  THR48      -0.1938
     55  CA        57.8880 -132.3550   41.1230 C.3    48  THR48       0.2028
     56  C         58.8630 -131.1810   41.2400 C.2    48  THR48       0.2642
     57  O         58.5770 -130.2060   41.9270 O.2    48  THR48      -0.2714
     58  CB        56.5370 -131.8260   40.6000 C.3    48  THR48       0.1808
     59  OG1       55.5720 -132.8860   40.5810 O.3    48  THR48      -0.2208
     60  CG2       56.6910 -131.2590   39.1960 C.3    48  THR48       0.0379
     61  N         59.9930 -131.2760   40.5410 N.am   49  ALA49      -0.1977
     62  CA        61.1190 -130.3420   40.7040 C.3    49  ALA49       0.1597
     63  C         60.8160 -128.8870   40.3310 C.2    49  ALA49       0.2287
     64  O         61.2790 -127.9640   41.0050 O.2    49  ALA49      -0.2864
     65  CB        62.3240 -130.8380   39.9190 C.3    49  ALA49       0.0319
     66  N         60.8300 -125.7270   43.0930 N.3    53  GLU53      -0.1245
     67  CA        61.6400 -124.5880   42.6940 C.3    53  GLU53       0.1567
     68  C         60.8000 -123.3120   42.5630 C.2    53  GLU53       0.2260
     69  O         61.1570 -122.2720   43.0970 O.2    53  GLU53      -0.2867
     70  CB        62.3230 -124.9010   41.3630 C.3    53  GLU53       0.0388
     71  CG        63.3940 -123.9060   40.9320 C.3    53  GLU53       0.1160
     72  CD        64.7460 -124.1610   41.5710 C.2    53  GLU53       0.3649
     73  OE1       65.1230 -125.3460   41.7120 O.co2  53  GLU53      -0.2457
     74  OE2       65.4380 -123.1720   41.9120 O.co2  53  GLU53      -0.2457
     75  N         61.9110 -140.0420   47.8630 N.3   129  SER129     -0.1217
     76  CA        61.8460 -141.4880   47.6010 C.3   129  SER129      0.1889
     77  C         62.8100 -142.2940   48.4910 C.2   129  SER129      0.2288
     78  O         62.5640 -143.4770   48.7760 O.2   129  SER129     -0.2866
     79  CB        62.1070 -141.7930   46.1200 C.3   129  SER129      0.2089
     80  OG        63.3880 -141.3450   45.7150 O.3   129  SER129     -0.2183
     81  N         66.1770 -143.7430   43.2340 N.3   168  GLY168     -0.1225
     82  CA        65.8110 -142.3640   42.9080 C.3   168  GLY168      0.1811
     83  C         66.8400 -141.3360   43.3580 C.2   168  GLY168      0.2280
     84  O         66.8380 -140.1960   42.8730 O.2   168  GLY168     -0.2866
@<TRIPOS>BOND
     1    29    27   am
     2    28    27    2
     3    27    26    1
     4    26    25    1
     5    25    22    1
     6    24    23    2
     7    33    32    2
     8    31    34    1
     9    31    32    1
    10    31    30    1
    11    23    22    1
    12    22    21    1
    13    21    16   am
    14    16    17    2
    15    16    15    1
    16    15    18    1
    17    15    14    1
    18    11    10    2
    19    18    20    1
    20    18    19    1
    21    14    10   am
    22    10     9    1
    23    13    12    1
    24    12     9    1
    25     9     8    1
    26    60    58    1
    27    65    62    1
    28    63    62    1
    29    63    64    2
    30    61    62    1
    31    61    56   am
    32    59    58    1
    33    58    55    1
    34    71    70    1
    35    71    72    1
    36    55    56    1
    37    55    54    1
    38    56    57    2
    39    70    67    1
    40    72    73   ar
    41    72    74   ar
    42    35    36    1
    43    53    52    2
    44    54    52   am
    45    68    67    1
    46    68    69    2
    47    67    66    1
    48    84    83    2
    49    82    81    1
    50    82    83    1
    51    52    51    1
    52    39    36    1
    53    36    37    1
    54    38    37    2
    55    48    49   ar
    56    48    46   ar
    57    51    50    1
    58    49    47   ar
    59     6     5    1
    60    46    45   ar
    61     1     2    1
    62    80    79    1
    63    47    45   ar
    64     5     2    1
    65     5     7    1
    66    79    76    1
    67     2     3    1
    68    45    44    1
    69    44    41    1
    70     3     4    2
    71    76    75    1
    72    76    77    1
    73    41    40    1
    74    41    42    1
    75    77    78    2
    76    42    43    2
