@<TRIPOS>MOLECULE
tmp/6hw7V00.pdb
 147 139 0 0 0
SMALL
GASTEIGER

@<TRIPOS>ATOM
      1  N          3.9380 -158.5370   44.1200 N.3     1  THR1       -0.1218
      2  CA         3.5650 -159.7700   44.7630 C.3     1  THR1        0.1862
      3  C          3.6680 -159.6590   46.2720 C.2     1  THR1        0.2287
      4  O          4.6350 -159.1450   46.7660 O.2     1  THR1       -0.2866
      5  CB         4.4760 -160.9470   44.4080 C.3     1  THR1        0.1770
      6  OG1        4.5770 -161.4580   43.0680 O.3     1  THR1       -0.2211
      7  CG2        4.1530 -162.1080   45.3110 C.3     1  THR1        0.0375
      8  N         -1.5330 -160.9510   41.1510 N.3    19  ARG19      -0.1231
      9  CA        -1.0550 -160.0660   40.0940 C.3    19  ARG19       0.1694
     10  C          0.2780 -160.5450   39.5410 C.2    19  ARG19       0.2593
     11  O          1.1900 -160.8760   40.2960 O.2    19  ARG19      -0.2718
     12  CB        -0.9070 -158.6350   40.6050 C.3    19  ARG19       0.0321
     13  CG        -0.4060 -157.6670   39.5440 C.3    19  ARG19       0.0489
     14  CD        -0.3670 -156.2450   40.0630 C.3    19  ARG19       0.2205
     15  NE        -1.6950 -155.6430   40.0950 N.pl3  19  ARG19      -0.0865
     16  CZ        -1.9400 -154.3770   40.4210 C.cat  19  ARG19       0.5346
     17  NH1       -0.9470 -153.5550   40.7500 N.pl3  19  ARG19       0.1354
     18  NH2       -3.1880 -153.9280   40.4170 N.pl3  19  ARG19       0.1354
     19  N          0.3830 -160.5550   38.2160 N.am   20  SER20      -0.1938
     20  CA         1.6210 -160.8920   37.5250 C.3    20  SER20       0.2055
     21  C          2.0080 -159.6960   36.6760 C.2    20  SER20       0.2644
     22  O          1.1760 -159.1790   35.9300 O.2    20  SER20      -0.2714
     23  CB         1.4120 -162.1120   36.6350 C.3    20  SER20       0.2130
     24  OG         2.6440 -162.6100   36.1500 O.3    20  SER20      -0.2179
     25  N          3.2570 -159.2520   36.7870 N.am   21  THR21      -0.1936
     26  CA         3.6870 -158.0350   36.1060 C.3    21  THR21       0.2028
     27  C          4.7920 -158.2530   35.0880 C.2    21  THR21       0.2642
     28  O          5.4960 -159.2590   35.1110 O.2    21  THR21      -0.2714
     29  CB         4.1660 -156.9740   37.1110 C.3    21  THR21       0.1808
     30  OG1        5.0770 -157.5680   38.0420 O.3    21  THR21      -0.2208
     31  CG2        2.9900 -156.3930   37.8620 C.3    21  THR21       0.0379
     32  N          4.9610 -157.2560   34.2320 N.am   22  GLN22      -0.1963
     33  CA         6.0010 -157.1710   33.2190 C.3    22  GLN22       0.1733
     34  C          6.3360 -155.6990   33.2270 C.2    22  GLN22       0.2616
     35  O          5.7610 -154.9380   32.5070 O.2    22  GLN22      -0.2715
     36  CB         5.4650 -157.5600   31.8690 C.3    22  GLN22       0.0408
     37  CG         5.1680 -159.0330   31.7190 C.3    22  GLN22       0.0908
     38  CD         5.1250 -159.4780   30.2710 C.2    22  GLN22       0.2608
     39  OE1        4.1280 -159.2920   29.5640 O.2    22  GLN22      -0.2717
     40  NE2        6.2200 -160.0730   29.8160 N.am   22  GLN22      -0.0878
     41  N          7.2650 -155.3000   34.0660 N.am   23  GLY23      -0.1955
     42  CA         7.5900 -153.8940   34.2330 C.3    23  GLY23       0.1869
     43  C          6.4330 -153.2340   34.9610 C.2    23  GLY23       0.2309
     44  O          6.0480 -153.6850   36.0450 O.2    23  GLY23      -0.2863
     45  N          0.6030 -158.3200   33.4510 N.3    27  ALA27      -0.1231
     46  CA         0.5320 -159.4050   32.4760 C.3    27  ALA27       0.1694
     47  C         -0.6760 -160.3020   32.7460 C.2    27  ALA27       0.2592
     48  O         -1.4940 -160.5430   31.8550 O.2    27  ALA27      -0.2718
     49  CB         1.8180 -160.2200   32.5030 C.3    27  ALA27       0.0304
     50  N         -0.7860 -160.7810   33.9830 N.am   28  ASP28      -0.1974
     51  CA        -1.8770 -161.6680   34.3880 C.3    28  ASP28       0.1709
     52  C         -2.5780 -161.0990   35.6160 C.2    28  ASP28       0.2293
     53  O         -1.9520 -160.8830   36.6550 O.2    28  ASP28      -0.2864
     54  CB        -1.3430 -163.0720   34.6970 C.3    28  ASP28       0.1436
     55  CG        -2.4440 -164.1260   34.7740 C.2    28  ASP28       0.3671
     56  OD1       -2.1140 -165.3280   34.6810 O.co2  28  ASP28      -0.2456
     57  OD2       -3.6310 -163.7660   34.9340 O.co2  28  ASP28      -0.2456
     58  N         -3.2490 -164.7060   38.3000 N.3    31  CYS31      -0.1221
     59  CA        -2.2890 -165.8040   38.2820 C.3    31  CYS31       0.1808
     60  C         -2.3780 -166.5670   39.5980 C.2    31  CYS31       0.2601
     61  O         -2.9410 -166.0710   40.5780 O.2    31  CYS31      -0.2717
     62  CB        -0.8680 -165.2790   38.0700 C.3    31  CYS31       0.0970
     63  SG        -0.2480 -164.2670   39.4280 S.3    31  CYS31      -0.0800
     64  N         -1.8260 -167.7770   39.6120 N.am   32  ALA32      -0.1965
     65  CA        -1.8350 -168.6240   40.8000 C.3    32  ALA32       0.1728
     66  C         -0.4170 -168.7580   41.3310 C.2    32  ALA32       0.2616
     67  O          0.4370 -169.3750   40.6900 O.2    32  ALA32      -0.2715
     68  CB        -2.4070 -169.9880   40.4660 C.3    32  ALA32       0.0334
     69  N         -0.1720 -168.1740   42.5000 N.am   33  LYS33      -0.1977
     70  CA         1.1620 -168.1540   43.0930 C.3    33  LYS33       0.1596
     71  C          1.3390 -169.2150   44.1660 C.2    33  LYS33       0.2287
     72  O          2.4300 -169.3710   44.7150 O.2    33  LYS33      -0.2864
     73  CB         1.4360 -166.7780   43.6840 C.3    33  LYS33       0.0298
     74  CG         1.2370 -165.6670   42.6770 C.3    33  LYS33       0.0038
     75  CD         1.6400 -164.3320   43.2520 C.3    33  LYS33       0.0206
     76  CE         1.2180 -163.2150   42.3230 C.3    33  LYS33       0.1093
     77  NZ         1.7310 -161.9040   42.7830 N.3    33  LYS33      -0.1314
     78  N          1.6450 -172.9550   44.9540 N.3    35  HIS35      -0.1241
     79  CA         2.0200 -174.1810   44.2710 C.3    35  HIS35       0.1621
     80  C          1.9970 -175.3550   45.2140 C.2    35  HIS35       0.2264
     81  O          2.2280 -175.2200   46.4150 O.2    35  HIS35      -0.2867
     82  CB         3.4170 -174.0590   43.6730 C.3    35  HIS35       0.0745
     83  CG         3.5610 -172.9140   42.7260 C.ar   35  HIS35       0.0817
     84  ND1        4.5220 -171.9370   42.8800 N.ar   35  HIS35      -0.2268
     85  CD2        2.8510 -172.5750   41.6240 C.ar   35  HIS35       0.1154
     86  CE1        4.4060 -171.0530   41.9040 C.ar   35  HIS35       0.1986
     87  NE2        3.3980 -171.4170   41.1310 N.ar   35  HIS35      -0.2212
     88  N          5.2620 -168.4430   46.0630 N.3    45  GLY45      -0.1210
     89  CA         6.4410 -167.9970   45.3210 C.3    45  GLY45       0.1956
     90  C          6.4320 -166.5410   44.8950 C.2    45  GLY45       0.2612
     91  O          5.4230 -166.0300   44.4100 O.2    45  GLY45      -0.2717
     92  N          7.5710 -165.8810   45.0830 N.am   46  ALA46      -0.1965
     93  CA         7.7780 -164.5070   44.6390 C.3    46  ALA46       0.1728
     94  C          9.1070 -164.4230   43.9090 C.2    46  ALA46       0.2617
     95  O          9.9500 -165.3090   44.0360 O.2    46  ALA46      -0.2715
     96  CB         7.7730 -163.5580   45.8250 C.3    46  ALA46       0.0334
     97  N          9.2900 -163.3470   43.1550 N.am   47  GLY47      -0.1940
     98  CA        10.4990 -163.1370   42.3640 C.3    47  GLY47       0.2014
     99  C         10.2320 -163.4560   40.9090 C.2    47  GLY47       0.2640
    100  O          9.1450 -163.1750   40.4010 O.2    47  GLY47      -0.2714
    101  N         11.2200 -164.0480   40.2420 N.am   48  THR48      -0.1936
    102  CA        11.0800 -164.4580   38.8470 C.3    48  THR48       0.2028
    103  C         10.0800 -165.6130   38.7440 C.2    48  THR48       0.2642
    104  O         10.3430 -166.7160   39.2120 O.2    48  THR48      -0.2714
    105  CB        12.4330 -164.8860   38.2470 C.3    48  THR48       0.1808
    106  OG1       13.4220 -163.8920   38.5430 O.3    48  THR48      -0.2208
    107  CG2       12.3270 -165.0560   36.7410 C.3    48  THR48       0.0379
    108  N          8.9360 -165.3380   38.1230 N.am   49  ALA49      -0.1963
    109  CA         7.8020 -166.2670   38.0900 C.3    49  ALA49       0.1728
    110  C          8.1390 -167.6370   37.5040 C.2    49  ALA49       0.2616
    111  O          7.6970 -168.6590   38.0250 O.2    49  ALA49      -0.2715
    112  CB         6.6500 -165.6470   37.3160 C.3    49  ALA49       0.0334
    113  N          8.9060 -167.6530   36.4170 N.am   50  ALA50      -0.1977
    114  CA         9.2900 -168.9070   35.7740 C.3    50  ALA50       0.1597
    115  C         10.1880 -169.7520   36.6710 C.2    50  ALA50       0.2287
    116  O         10.1050 -170.9810   36.6560 O.2    50  ALA50      -0.2864
    117  CB         9.9970 -168.6320   34.4660 C.3    50  ALA50       0.0319
    118  N         10.3030 -169.6860   40.1240 N.3    52  THR52      -0.1203
    119  CA         9.5500 -170.2030   41.2690 C.3    52  THR52       0.1994
    120  C          8.7030 -171.4010   40.8560 C.2    52  THR52       0.2617
    121  O          8.5800 -172.3730   41.6010 O.2    52  THR52      -0.2717
    122  CB         8.6120 -169.1450   41.8920 C.3    52  THR52       0.1784
    123  OG1        7.5950 -168.7720   40.9510 O.3    52  THR52      -0.2211
    124  CG2        9.3870 -167.9120   42.3240 C.3    52  THR52       0.0376
    125  N          8.1540 -171.3200   39.6760 N.am   53  GLU53      -0.1979
    126  CA         7.3160 -172.3540   39.1730 C.3    53  GLU53       0.1602
    127  C          8.0970 -173.5820   38.7940 C.2    53  GLU53       0.2287
    128  O          7.7050 -174.6750   39.1170 O.2    53  GLU53      -0.2864
    129  CB         6.5480 -171.7990   37.9850 C.3    53  GLU53       0.0415
    130  CG         5.3260 -172.5810   37.5720 C.3    53  GLU53       0.1163
    131  CD         4.1520 -172.3980   38.4990 C.2    53  GLU53       0.3649
    132  OE1        3.9880 -171.3050   39.0610 O.co2  53  GLU53      -0.2457
    133  OE2        3.3870 -173.3600   38.6540 O.co2  53  GLU53      -0.2457
    134  N          8.2020 -160.9070   48.9220 N.3   128  GLY128     -0.1210
    135  CA         7.7060 -160.1900   47.7470 C.3   128  GLY128      0.1956
    136  C          7.8580 -158.6880   47.8790 C.2   128  GLY128      0.2612
    137  O          8.3790 -158.1970   48.8790 O.2   128  GLY128     -0.2717
    138  N          7.4010 -157.9570   46.8640 N.am  129  SER129     -0.1952
    139  CA         7.5100 -156.4920   46.8510 C.3   129  SER129      0.1924
    140  C          6.5940 -155.8390   47.8790 C.2   129  SER129      0.2314
    141  O          6.8690 -154.7340   48.3500 O.2   129  SER129     -0.2863
    142  CB         7.1980 -155.9280   45.4620 C.3   129  SER129      0.2116
    143  OG         5.9030 -156.3090   45.0310 O.3   129  SER129     -0.2180
    144  N          3.1080 -153.5300   42.9910 N.3   168  GLY168     -0.1225
    145  CA         3.4870 -154.8230   42.4320 C.3   168  GLY168      0.1811
    146  C          2.4650 -155.9090   42.7160 C.2   168  GLY168      0.2280
    147  O          2.5060 -156.9770   42.1020 O.2   168  GLY168     -0.2866
@<TRIPOS>BOND
     1    39    38    2
     2    40    38   am
     3    38    37    1
     4    37    36    1
     5    48    47    2
     6    36    33    1
     7    46    49    1
     8    46    47    1
     9    46    45    1
    10    35    34    2
    11    47    50   am
    12    33    34    1
    13    33    32    1
    14    34    41   am
    15    50    51    1
    16    41    42    1
    17    32    27   am
    18    42    43    1
    19    51    54    1
    20    51    52    1
    21   117   114    1
    22    56    55   ar
    23    54    55    1
    24    55    57   ar
    25    43    44    2
    26    27    28    2
    27    27    26    1
    28    52    53    2
    29   114   113    1
    30   114   115    1
    31    22    21    2
    32    26    25    1
    33    26    29    1
    34    24    23    1
    35   113   110   am
    36    23    20    1
    37   116   115    2
    38    21    25   am
    39    21    20    1
    40   107   105    1
    41    29    31    1
    42    29    30    1
    43   112   109    1
    44   110   111    2
    45   110   109    1
    46    20    19    1
    47   130   129    1
    48   130   131    1
    49   129   126    1
    50    62    59    1
    51    62    63    1
    52   109   108    1
    53   108   103   am
    54    19    10   am
    55   105   106    1
    56   105   102    1
    57    59    58    1
    58    59    60    1
    59   131   133   ar
    60   131   132   ar
    61   103   102    1
    62   103   104    2
    63   127   128    2
    64   127   126    1
    65   102   101    1
    66   126   125    1
    67    10     9    1
    68    10    11    2
    69    13    14    1
    70    13    12    1
    71    60    64   am
    72    60    61    2
    73    64    65    1
    74   125   120   am
    75    14    15    1
    76     9    12    1
    77     9     8    1
    78    15    16    2
    79   118   119    1
    80   101    99   am
    81   100    99    2
    82    18    16    1
    83    16    17    1
    84    68    65    1
    85    67    66    2
    86    65    66    1
    87   120   119    1
    88   120   121    2
    89    99    98    1
    90   123   122    1
    91    87    85   ar
    92    87    86   ar
    93   119   122    1
    94    66    69   am
    95    85    83   ar
    96   122   124    1
    97    86    84   ar
    98   147   146    2
    99    76    77    1
   100    76    75    1
   101    98    97    1
   102   145   146    1
   103   145   144    1
   104    69    70    1
   105    74    75    1
   106    74    73    1
   107    83    84   ar
   108    83    82    1
   109     6     5    1
   110    70    73    1
   111    70    71    1
   112    97    94   am
   113    82    79    1
   114    94    95    2
   115    94    93    1
   116     1     2    1
   117    71    72    2
   118    79    78    1
   119    79    80    1
   120     5     2    1
   121     5     7    1
   122    91    90    2
   123    93    92    1
   124    93    96    1
   125     2     3    1
   126    90    92   am
   127    90    89    1
   128   143   142    1
   129    80    81    2
   130    89    88    1
   131   142   139    1
   132     3     4    2
   133   139   138    1
   134   139   140    1
   135   138   136   am
   136   135   136    1
   137   135   134    1
   138   136   137    2
   139   140   141    2
