@<TRIPOS>MOLECULE
tmp/6hw8V00.pdb
 139 131 0 0 0
SMALL
GASTEIGER

@<TRIPOS>ATOM
      1  N          5.1290 -159.0760   44.0960 N.3     1  THR1       -0.1218
      2  CA         4.4750 -160.2750   44.6740 C.3     1  THR1        0.1862
      3  C          4.3920 -160.0000   46.1600 C.2     1  THR1        0.2287
      4  O          5.2570 -159.3350   46.7320 O.2     1  THR1       -0.2866
      5  CB         5.2610 -161.5140   44.3650 C.3     1  THR1        0.1770
      6  OG1        5.0730 -161.7870   42.9760 O.3     1  THR1       -0.2211
      7  CG2        4.7220 -162.7500   45.0870 C.3     1  THR1        0.0375
      8  N         -1.0390 -161.1150   41.0340 N.3    19  ARG19      -0.1231
      9  CA        -0.5200 -160.2210   39.9880 C.3    19  ARG19       0.1694
     10  C          0.8250 -160.7070   39.4430 C.2    19  ARG19       0.2593
     11  O          1.7120 -161.0840   40.2020 O.2    19  ARG19      -0.2718
     12  CB        -0.3610 -158.7890   40.5130 C.3    19  ARG19       0.0321
     13  CG         0.1320 -157.8020   39.4550 C.3    19  ARG19       0.0489
     14  CD         0.1520 -156.3710   39.9630 C.3    19  ARG19       0.2205
     15  NE        -1.1750 -155.7560   39.9640 N.pl3  19  ARG19      -0.0865
     16  CZ        -1.4310 -154.5000   40.3290 C.cat  19  ARG19       0.5346
     17  NH1       -0.4540 -153.6900   40.7340 N.pl3  19  ARG19       0.1354
     18  NH2       -2.6780 -154.0450   40.2920 N.pl3  19  ARG19       0.1354
     19  N          0.9710 -160.6600   38.1230 N.am   20  SER20      -0.1938
     20  CA         2.2330 -160.9580   37.4520 C.3    20  SER20       0.2055
     21  C          2.5960 -159.7550   36.5840 C.2    20  SER20       0.2644
     22  O          1.7680 -159.2900   35.7970 O.2    20  SER20      -0.2714
     23  CB         2.0860 -162.2180   36.5960 C.3    20  SER20       0.2130
     24  OG         3.3410 -162.6740   36.1280 O.3    20  SER20      -0.2179
     25  N          3.8180 -159.2450   36.7310 N.am   21  THR21      -0.1936
     26  CA         4.2340 -158.0250   36.0340 C.3    21  THR21       0.2028
     27  C          5.3200 -158.2640   34.9950 C.2    21  THR21       0.2642
     28  O          6.0730 -159.2270   35.0760 O.2    21  THR21      -0.2714
     29  CB         4.7510 -156.9490   37.0120 C.3    21  THR21       0.1808
     30  OG1        5.8370 -157.4720   37.7860 O.3    21  THR21      -0.2208
     31  CG2        3.6370 -156.4710   37.9350 C.3    21  THR21       0.0379
     32  N          5.3770 -157.3610   34.0220 N.am   22  GLN22      -0.1963
     33  CA         6.4870 -157.2650   33.0750 C.3    22  GLN22       0.1733
     34  C          6.8700 -155.7910   32.9290 C.2    22  GLN22       0.2616
     35  O          6.3560 -155.0690   32.0690 O.2    22  GLN22      -0.2715
     36  CB         6.1330 -157.9240   31.7350 C.3    22  GLN22       0.0408
     37  CG         6.6710 -159.3440   31.6380 C.3    22  GLN22       0.0908
     38  CD         6.5350 -159.9570   30.2600 C.2    22  GLN22       0.2608
     39  OE1        5.4370 -160.3210   29.8350 O.2    22  GLN22      -0.2717
     40  NE2        7.6610 -160.1050   29.5650 N.am   22  GLN22      -0.0878
     41  N          7.7740 -155.3600   33.8070 N.am   23  GLY23      -0.1955
     42  CA         8.1000 -153.9550   33.9690 C.3    23  GLY23       0.1869
     43  C          6.9550 -153.3100   34.7300 C.2    23  GLY23       0.2309
     44  O          6.5630 -153.8170   35.7870 O.2    23  GLY23      -0.2863
     45  N          1.0600 -158.4280   33.3070 N.3    27  ALA27      -0.1245
     46  CA         0.9750 -159.5200   32.3310 C.3    27  ALA27       0.1562
     47  C         -0.2230 -160.4290   32.6010 C.2    27  ALA27       0.2260
     48  O         -1.0190 -160.7000   31.6990 O.2    27  ALA27      -0.2867
     49  CB         2.2590 -160.3390   32.3370 C.3    27  ALA27       0.0290
     50  N         -2.7590 -164.8330   38.1780 N.3    31  CYS31      -0.1221
     51  CA        -1.8090 -165.9560   38.1420 C.3    31  CYS31       0.1808
     52  C         -1.7730 -166.6710   39.4930 C.2    31  CYS31       0.2601
     53  O         -2.0230 -166.0660   40.5390 O.2    31  CYS31      -0.2717
     54  CB        -0.4010 -165.5060   37.7260 C.3    31  CYS31       0.0970
     55  SG         0.7210 -165.0620   39.0710 S.3    31  CYS31      -0.0800
     56  N         -1.4590 -167.9620   39.4540 N.am   32  ALA32      -0.1965
     57  CA        -1.4640 -168.8150   40.6420 C.3    32  ALA32       0.1728
     58  C         -0.0500 -168.9270   41.1950 C.2    32  ALA32       0.2616
     59  O          0.8050 -169.5820   40.5950 O.2    32  ALA32      -0.2715
     60  CB        -2.0130 -170.1900   40.3000 C.3    32  ALA32       0.0334
     61  N          0.1890 -168.2790   42.3340 N.am   33  LYS33      -0.1977
     62  CA         1.5070 -168.2730   42.9770 C.3    33  LYS33       0.1596
     63  C          1.6690 -169.3610   44.0340 C.2    33  LYS33       0.2287
     64  O          2.7790 -169.5900   44.5200 O.2    33  LYS33      -0.2864
     65  CB         1.7770 -166.9030   43.5860 C.3    33  LYS33       0.0298
     66  CG         1.6520 -165.7860   42.5660 C.3    33  LYS33       0.0038
     67  CD         2.0290 -164.4460   43.1490 C.3    33  LYS33       0.0206
     68  CE         1.7320 -163.3440   42.1560 C.3    33  LYS33       0.1093
     69  NZ         2.3570 -162.0740   42.5860 N.3    33  LYS33      -0.1314
     70  N          1.8260 -173.1680   44.8290 N.3    35  HIS35      -0.1241
     71  CA         2.1660 -174.3930   44.1100 C.3    35  HIS35       0.1621
     72  C          2.3750 -175.5700   45.0380 C.2    35  HIS35       0.2264
     73  O          2.8310 -175.4230   46.1680 O.2    35  HIS35      -0.2867
     74  CB         3.4150 -174.1950   43.2450 C.3    35  HIS35       0.0745
     75  CG         3.1630 -173.4220   41.9870 C.ar   35  HIS35       0.0817
     76  ND1        1.8980 -173.2250   41.4700 N.ar   35  HIS35      -0.2268
     77  CD2        4.0180 -172.8220   41.1250 C.ar   35  HIS35       0.1154
     78  CE1        1.9840 -172.5250   40.3540 C.ar   35  HIS35       0.1986
     79  NE2        3.2590 -172.2680   40.1220 N.ar   35  HIS35      -0.2212
     80  N          5.5940 -168.6110   45.9310 N.3    45  GLY45      -0.1210
     81  CA         6.7680 -168.1400   45.1860 C.3    45  GLY45       0.1956
     82  C          6.7570 -166.6620   44.8450 C.2    45  GLY45       0.2612
     83  O          5.7010 -166.0680   44.6340 O.2    45  GLY45      -0.2717
     84  N          7.9530 -166.0800   44.8030 N.am   46  ALA46      -0.1965
     85  CA         8.1680 -164.7060   44.3670 C.3    46  ALA46       0.1728
     86  C          9.5090 -164.6360   43.6690 C.2    46  ALA46       0.2617
     87  O         10.3760 -165.4630   43.9180 O.2    46  ALA46      -0.2715
     88  CB         8.1640 -163.7740   45.5600 C.3    46  ALA46       0.0334
     89  N          9.6870 -163.6330   42.8180 N.am   47  GLY47      -0.1940
     90  CA        10.9360 -163.4540   42.0700 C.3    47  GLY47       0.2014
     91  C         10.7300 -163.7800   40.6110 C.2    47  GLY47       0.2640
     92  O          9.6290 -163.6010   40.0830 O.2    47  GLY47      -0.2714
     93  N         11.7910 -164.2580   39.9620 N.am   48  THR48      -0.1936
     94  CA        11.7470 -164.5970   38.5380 C.3    48  THR48       0.2028
     95  C         10.7420 -165.7320   38.3170 C.2    48  THR48       0.2642
     96  O         10.9350 -166.8440   38.8030 O.2    48  THR48      -0.2714
     97  CB        13.1390 -164.9920   38.0080 C.3    48  THR48       0.1808
     98  OG1       14.0770 -163.9440   38.2870 O.3    48  THR48      -0.2208
     99  CG2       13.0970 -165.2340   36.5060 C.3    48  THR48       0.0379
    100  N          9.6740 -165.4260   37.5850 N.am   49  ALA49      -0.1963
    101  CA         8.4780 -166.2820   37.5240 C.3    49  ALA49       0.1728
    102  C          8.7290 -167.6920   36.9980 C.2    49  ALA49       0.2616
    103  O          8.2220 -168.6640   37.5540 O.2    49  ALA49      -0.2715
    104  CB         7.4010 -165.6080   36.6910 C.3    49  ALA49       0.0334
    105  N          9.5000 -167.7940   35.9240 N.am   50  ALA50      -0.1977
    106  CA         9.8530 -169.0920   35.3570 C.3    50  ALA50       0.1597
    107  C         10.7920 -169.9010   36.2530 C.2    50  ALA50       0.2287
    108  O         10.7210 -171.1310   36.2680 O.2    50  ALA50      -0.2864
    109  CB        10.4920 -168.9090   34.0050 C.3    50  ALA50       0.0319
    110  N         11.0820 -169.7370   39.7320 N.3    52  THR52      -0.1203
    111  CA        10.3880 -170.2260   40.9270 C.3    52  THR52       0.1994
    112  C          9.4490 -171.3760   40.5810 C.2    52  THR52       0.2617
    113  O          9.2280 -172.2660   41.4000 O.2    52  THR52      -0.2717
    114  CB         9.5350 -169.1380   41.5960 C.3    52  THR52       0.1784
    115  OG1        8.5740 -168.6560   40.6560 O.3    52  THR52      -0.2211
    116  CG2       10.3760 -167.9900   42.0680 C.3    52  THR52       0.0376
    117  N          8.8910 -171.3280   39.3730 N.am   53  GLU53      -0.1979
    118  CA         7.9860 -172.3610   38.8740 C.3    53  GLU53       0.1602
    119  C          8.7480 -173.6430   38.5470 C.2    53  GLU53       0.2287
    120  O          8.3940 -174.7230   39.0190 O.2    53  GLU53      -0.2864
    121  CB         7.2620 -171.8590   37.6210 C.3    53  GLU53       0.0415
    122  CG         6.1690 -172.7890   37.0920 C.3    53  GLU53       0.1163
    123  CD         4.7510 -172.2720   37.3080 C.2    53  GLU53       0.3649
    124  OE1        4.5180 -171.0460   37.2000 O.co2  53  GLU53      -0.2457
    125  OE2        3.8530 -173.1060   37.5670 O.co2  53  GLU53      -0.2457
    126  N          8.7330 -161.1300   48.8180 N.3   128  GLY128     -0.1210
    127  CA         8.2870 -160.3930   47.6290 C.3   128  GLY128      0.1956
    128  C          8.3630 -158.8850   47.7900 C.2   128  GLY128      0.2612
    129  O          8.7630 -158.3840   48.8370 O.2   128  GLY128     -0.2717
    130  N          7.9740 -158.1630   46.7400 N.am  129  SER129     -0.1952
    131  CA         7.9980 -156.6900   46.7430 C.3   129  SER129      0.1924
    132  C          7.0880 -156.0880   47.8120 C.2   129  SER129      0.2314
    133  O          7.3890 -155.0270   48.3540 O.2   129  SER129     -0.2863
    134  CB         7.6090 -156.1280   45.3720 C.3   129  SER129      0.2116
    135  OG         6.3410 -156.6090   44.9670 O.3   129  SER129     -0.2180
    136  N          3.6510 -153.6210   42.8800 N.3   168  GLY168     -0.1225
    137  CA         4.0210 -154.9310   42.3570 C.3   168  GLY168      0.1811
    138  C          2.9970 -156.0180   42.6550 C.2   168  GLY168      0.2280
    139  O          3.0720 -157.1000   42.0930 O.2   168  GLY168     -0.2866
@<TRIPOS>BOND
     1    40    38   am
     2    39    38    2
     3    38    37    1
     4    37    36    1
     5    48    47    2
     6    36    33    1
     7    35    34    2
     8    46    49    1
     9    46    47    1
    10    46    45    1
    11    34    33    1
    12    34    41   am
    13    33    32    1
    14    41    42    1
    15    42    43    1
    16   109   106    1
    17    32    27   am
    18    43    44    2
    19    27    28    2
    20    27    26    1
    21   106   105    1
    22   106   107    1
    23    22    21    2
    24   105   102   am
    25    26    25    1
    26    26    29    1
    27    24    23    1
    28   107   108    2
    29    99    97    1
    30    21    25   am
    31    21    20    1
    32    23    20    1
    33   104   101    1
    34   102   101    1
    35   102   103    2
    36    29    30    1
    37    29    31    1
    38   122   123    1
    39   122   121    1
    40   124   123   ar
    41   123   125   ar
    42    20    19    1
    43   101   100    1
    44   100    95   am
    45   121   118    1
    46    54    51    1
    47    54    55    1
    48    97    98    1
    49    97    94    1
    50    19    10   am
    51    51    50    1
    52    51    52    1
    53    95    94    1
    54    95    96    2
    55    94    93    1
    56   119   118    1
    57   119   120    2
    58   118   117    1
    59   117   112   am
    60    10     9    1
    61    10    11    2
    62    56    52   am
    63    56    57    1
    64    13    14    1
    65    13    12    1
    66    52    53    2
    67   110   111    1
    68    93    91   am
    69    14    15    1
    70    15    16    2
    71     9    12    1
    72     9     8    1
    73    92    91    2
    74    79    78   ar
    75    79    77   ar
    76    18    16    1
    77    60    57    1
    78    16    17    1
    79    78    76   ar
    80   112   111    1
    81   112   113    2
    82    59    58    2
    83    91    90    1
    84    57    58    1
    85   115   114    1
    86   111   114    1
    87    77    75   ar
    88    58    61   am
    89    76    75   ar
    90   114   116    1
    91    75    74    1
    92    90    89    1
    93   139   138    2
    94    68    69    1
    95    68    67    1
    96    61    62    1
    97   137   138    1
    98   137   136    1
    99    66    67    1
   100    66    65    1
   101    89    86   am
   102     6     5    1
   103    62    65    1
   104    62    63    1
   105    74    71    1
   106    86    87    2
   107    86    85    1
   108    63    64    2
   109     1     2    1
   110    71    70    1
   111    71    72    1
   112     5     2    1
   113     5     7    1
   114    85    84    1
   115    85    88    1
   116    83    82    2
   117     2     3    1
   118    84    82   am
   119    82    81    1
   120   135   134    1
   121    72    73    2
   122    81    80    1
   123   134   131    1
   124     3     4    2
   125   130   131    1
   126   130   128   am
   127   131   132    1
   128   127   128    1
   129   127   126    1
   130   128   129    2
   131   132   133    2
