@<TRIPOS>MOLECULE
tmp/6hwbV00.pdb
 143 135 0 0 0
SMALL
GASTEIGER

@<TRIPOS>ATOM
      1  N          4.8840 -159.1260   43.9470 N.3     1  THR1       -0.1218
      2  CA         4.1710 -160.2800   44.5680 C.3     1  THR1        0.1862
      3  C          4.0800 -160.0110   46.0680 C.2     1  THR1        0.2287
      4  O          4.9350 -159.3310   46.6410 O.2     1  THR1       -0.2866
      5  CB         4.9220 -161.5560   44.2980 C.3     1  THR1        0.1770
      6  OG1        4.8010 -161.8310   42.8810 O.3     1  THR1       -0.2211
      7  CG2        4.3500 -162.7770   45.0340 C.3     1  THR1        0.0375
      8  N         -1.4280 -161.1880   41.0430 N.3    19  ARG19      -0.1231
      9  CA        -0.9220 -160.3050   39.9790 C.3    19  ARG19       0.1694
     10  C          0.4290 -160.7740   39.4360 C.2    19  ARG19       0.2593
     11  O          1.3590 -161.0310   40.1980 O.2    19  ARG19      -0.2718
     12  CB        -0.7760 -158.8610   40.4720 C.3    19  ARG19       0.0321
     13  CG        -0.2510 -157.9040   39.4010 C.3    19  ARG19       0.0489
     14  CD        -0.1920 -156.4730   39.8900 C.3    19  ARG19       0.2205
     15  NE        -1.5130 -155.8510   39.9470 N.pl3  19  ARG19      -0.0865
     16  CZ        -1.7440 -154.5880   40.3050 C.cat  19  ARG19       0.5346
     17  NH1       -0.7420 -153.7790   40.6470 N.pl3  19  ARG19       0.1354
     18  NH2       -2.9900 -154.1260   40.3230 N.pl3  19  ARG19       0.1354
     19  N          0.5320 -160.8360   38.1110 N.am   20  SER20      -0.1938
     20  CA         1.7920 -161.0930   37.4210 C.3    20  SER20       0.2055
     21  C          2.1340 -159.8570   36.5960 C.2    20  SER20       0.2644
     22  O          1.2690 -159.3300   35.8810 O.2    20  SER20      -0.2714
     23  CB         1.6580 -162.3120   36.5130 C.3    20  SER20       0.2130
     24  OG         2.9170 -162.7120   36.0020 O.3    20  SER20      -0.2179
     25  N          3.3810 -159.3930   36.6990 N.am   21  THR21      -0.1936
     26  CA         3.8170 -158.1690   36.0170 C.3    21  THR21       0.2028
     27  C          4.9030 -158.4300   34.9820 C.2    21  THR21       0.2642
     28  O          5.6000 -159.4440   35.0290 O.2    21  THR21      -0.2714
     29  CB         4.3570 -157.1100   37.0030 C.3    21  THR21       0.1808
     30  OG1        5.5060 -157.6230   37.6960 O.3    21  THR21      -0.2208
     31  CG2        3.2860 -156.7060   38.0060 C.3    21  THR21       0.0379
     32  N          5.0180 -157.4880   34.0490 N.am   22  GLN22      -0.1976
     33  CA         6.1200 -157.4150   33.0910 C.3    22  GLN22       0.1601
     34  C          6.5200 -155.9460   32.9930 C.2    22  GLN22       0.2287
     35  O          5.9770 -155.1900   32.1860 O.2    22  GLN22      -0.2864
     36  CB         5.7100 -157.9990   31.7310 C.3    22  GLN22       0.0394
     37  CG         6.2800 -159.3900   31.4810 C.3    22  GLN22       0.0908
     38  CD         5.8310 -160.0040   30.1630 C.2    22  GLN22       0.2608
     39  OE1        4.6810 -159.8380   29.7370 O.2    22  GLN22      -0.2717
     40  NE2        6.7400 -160.7330   29.5150 N.am   22  GLN22      -0.0878
     41  N          0.7060 -158.5170   33.2450 N.3    27  ALA27      -0.1231
     42  CA         0.6410 -159.6020   32.2590 C.3    27  ALA27       0.1694
     43  C         -0.5470 -160.5310   32.5170 C.2    27  ALA27       0.2592
     44  O         -1.3360 -160.8040   31.6090 O.2    27  ALA27      -0.2718
     45  CB         1.9390 -160.3970   32.2620 C.3    27  ALA27       0.0304
     46  N         -0.6570 -161.0050   33.7590 N.am   28  ASP28      -0.1974
     47  CA        -1.7240 -161.9230   34.1850 C.3    28  ASP28       0.1709
     48  C         -2.4160 -161.3550   35.4190 C.2    28  ASP28       0.2293
     49  O         -1.7770 -161.1410   36.4500 O.2    28  ASP28      -0.2864
     50  CB        -1.1520 -163.3160   34.5000 C.3    28  ASP28       0.1436
     51  CG        -2.2300 -164.4040   34.6260 C.2    28  ASP28       0.3671
     52  OD1       -1.8500 -165.5980   34.6190 O.co2  28  ASP28      -0.2456
     53  OD2       -3.4400 -164.0920   34.7430 O.co2  28  ASP28      -0.2456
     54  N         -3.0980 -164.9780   38.1670 N.3    31  CYS31      -0.1221
     55  CA        -2.1560 -166.1030   38.1490 C.3    31  CYS31       0.1808
     56  C         -2.2220 -166.8690   39.4700 C.2    31  CYS31       0.2601
     57  O         -2.7300 -166.3600   40.4740 O.2    31  CYS31      -0.2717
     58  CB        -0.7270 -165.6300   37.8740 C.3    31  CYS31       0.0970
     59  SG         0.0470 -164.7580   39.2470 S.3    31  CYS31      -0.0800
     60  N         -1.7130 -168.0970   39.4490 N.am   32  ALA32      -0.1965
     61  CA        -1.7260 -168.9870   40.6080 C.3    32  ALA32       0.1728
     62  C         -0.3150 -169.1100   41.1640 C.2    32  ALA32       0.2616
     63  O          0.5140 -169.8330   40.6080 O.2    32  ALA32      -0.2715
     64  CB        -2.2660 -170.3530   40.2150 C.3    32  ALA32       0.0334
     65  N         -0.0510 -168.3970   42.2570 N.am   33  LYS33      -0.1977
     66  CA         1.2800 -168.3600   42.8760 C.3    33  LYS33       0.1596
     67  C          1.4930 -169.4480   43.9340 C.2    33  LYS33       0.2287
     68  O          2.6240 -169.6650   44.3810 O.2    33  LYS33      -0.2864
     69  CB         1.5250 -166.9820   43.4890 C.3    33  LYS33       0.0298
     70  CG         1.3380 -165.8490   42.4960 C.3    33  LYS33       0.0038
     71  CD         1.7460 -164.5180   43.0830 C.3    33  LYS33       0.0206
     72  CE         1.4340 -163.3940   42.1130 C.3    33  LYS33       0.1093
     73  NZ         2.0390 -162.1170   42.5570 N.3    33  LYS33      -0.1314
     74  N          1.7790 -173.1860   44.8480 N.3    35  HIS35      -0.1241
     75  CA         2.1880 -174.4000   44.1490 C.3    35  HIS35       0.1621
     76  C          2.2870 -175.5890   45.0610 C.2    35  HIS35       0.2264
     77  O          2.5900 -175.4580   46.2430 O.2    35  HIS35      -0.2867
     78  CB         3.5280 -174.1840   43.4550 C.3    35  HIS35       0.0745
     79  CG         3.4440 -173.2100   42.3330 C.ar   35  HIS35       0.0817
     80  ND1        2.3810 -173.2060   41.4570 N.ar   35  HIS35      -0.2268
     81  CD2        4.2620 -172.2050   41.9470 C.ar   35  HIS35       0.1154
     82  CE1        2.5460 -172.2390   40.5790 C.ar   35  HIS35       0.1986
     83  NE2        3.6830 -171.6190   40.8490 N.ar   35  HIS35      -0.2212
     84  N          5.6690 -168.6380   45.8530 N.3    45  GLY45      -0.1210
     85  CA         6.8700 -168.1770   45.1550 C.3    45  GLY45       0.1956
     86  C          6.8480 -166.7160   44.7490 C.2    45  GLY45       0.2612
     87  O          5.8070 -166.1730   44.3830 O.2    45  GLY45      -0.2717
     88  N          8.0160 -166.0870   44.8240 N.am   46  ALA46      -0.1965
     89  CA         8.2240 -164.7290   44.3380 C.3    46  ALA46       0.1728
     90  C          9.5920 -164.6430   43.6750 C.2    46  ALA46       0.2617
     91  O         10.4500 -165.4990   43.8930 O.2    46  ALA46      -0.2715
     92  CB         8.1310 -163.7390   45.4840 C.3    46  ALA46       0.0334
     93  N          9.7880 -163.6030   42.8730 N.am   47  GLY47      -0.1940
     94  CA        11.0220 -163.4210   42.0970 C.3    47  GLY47       0.2014
     95  C         10.7930 -163.7710   40.6380 C.2    47  GLY47       0.2640
     96  O          9.6980 -163.5510   40.1070 O.2    47  GLY47      -0.2714
     97  N         11.8220 -164.3180   39.9900 N.am   48  THR48      -0.1936
     98  CA        11.7370 -164.7270   38.5850 C.3    48  THR48       0.2028
     99  C         10.7120 -165.8600   38.4160 C.2    48  THR48       0.2642
    100  O         10.9140 -166.9690   38.8990 O.2    48  THR48      -0.2714
    101  CB        13.1110 -165.1740   38.0450 C.3    48  THR48       0.1808
    102  OG1       14.0870 -164.1550   38.3070 O.3    48  THR48      -0.2208
    103  CG2       13.0450 -165.4300   36.5440 C.3    48  THR48       0.0379
    104  N          9.6240 -165.5540   37.7160 N.am   49  ALA49      -0.1963
    105  CA         8.4300 -166.4090   37.6580 C.3    49  ALA49       0.1728
    106  C          8.6900 -167.8320   37.1800 C.2    49  ALA49       0.2616
    107  O          8.1980 -168.7930   37.7740 O.2    49  ALA49      -0.2715
    108  CB         7.3830 -165.7640   36.7640 C.3    49  ALA49       0.0334
    109  N          9.4400 -167.9510   36.0920 N.am   50  ALA50      -0.1977
    110  CA         9.7680 -169.2530   35.5150 C.3    50  ALA50       0.1597
    111  C         10.6730 -170.0820   36.4170 C.2    50  ALA50       0.2287
    112  O         10.5770 -171.3110   36.4280 O.2    50  ALA50      -0.2864
    113  CB        10.4300 -169.0740   34.1710 C.3    50  ALA50       0.0319
    114  N         10.7340 -169.9460   39.8180 N.3    52  THR52      -0.1203
    115  CA         9.9660 -170.4360   40.9680 C.3    52  THR52       0.1994
    116  C          9.0950 -171.6280   40.5840 C.2    52  THR52       0.2617
    117  O          8.9890 -172.5820   41.3490 O.2    52  THR52      -0.2717
    118  CB         9.0670 -169.3530   41.5940 C.3    52  THR52       0.1784
    119  OG1        8.0980 -168.9150   40.6350 O.3    52  THR52      -0.2211
    120  CG2        9.8980 -168.1720   42.0860 C.3    52  THR52       0.0376
    121  N          8.4840 -171.5670   39.4000 N.am   53  GLU53      -0.1979
    122  CA         7.6710 -172.6750   38.8790 C.3    53  GLU53       0.1602
    123  C          8.5340 -173.8950   38.5220 C.2    53  GLU53       0.2287
    124  O          8.1670 -175.0270   38.8270 O.2    53  GLU53      -0.2864
    125  CB         6.8520 -172.2200   37.6580 C.3    53  GLU53       0.0415
    126  CG         6.0040 -173.3040   36.9850 C.3    53  GLU53       0.1163
    127  CD         4.8230 -173.7860   37.8210 C.2    53  GLU53       0.3649
    128  OE1        3.7340 -173.2040   37.7070 O.co2  53  GLU53      -0.2457
    129  OE2        4.9580 -174.7860   38.5550 O.co2  53  GLU53      -0.2457
    130  N          8.4430 -161.1310   48.7630 N.3   128  GLY128     -0.1210
    131  CA         7.9670 -160.3990   47.5840 C.3   128  GLY128      0.1956
    132  C          8.0640 -158.8910   47.7290 C.2   128  GLY128      0.2612
    133  O          8.4890 -158.3800   48.7640 O.2   128  GLY128     -0.2717
    134  N          7.6640 -158.1770   46.6800 N.am  129  SER129     -0.1952
    135  CA         7.6890 -156.7090   46.6760 C.3   129  SER129      0.1924
    136  C          6.7560 -156.0930   47.7220 C.2   129  SER129      0.2314
    137  O          7.0120 -154.9890   48.2110 O.2   129  SER129     -0.2863
    138  CB         7.3410 -156.1510   45.2910 C.3   129  SER129      0.2116
    139  OG         6.0500 -156.5600   44.8760 O.3   129  SER129     -0.2180
    140  N          3.3140 -153.7260   42.8460 N.3   168  GLY168     -0.1225
    141  CA         3.6880 -155.0270   42.3040 C.3   168  GLY168      0.1811
    142  C          2.6850 -156.1290   42.6020 C.2   168  GLY168      0.2280
    143  O          2.7590 -157.2010   42.0100 O.2   168  GLY168     -0.2866
@<TRIPOS>BOND
     1    40    38   am
     2    39    38    2
     3    38    37    1
     4    37    36    1
     5    44    43    2
     6    36    33    1
     7    35    34    2
     8    42    45    1
     9    42    43    1
    10    42    41    1
    11    43    46   am
    12    34    33    1
    13    33    32    1
    14    46    47    1
    15    32    27   am
    16   113   110    1
    17    47    50    1
    18    47    48    1
    19    50    51    1
    20    52    51   ar
    21    51    53   ar
    22    27    28    2
    23    27    26    1
    24    48    49    2
    25   110   109    1
    26   110   111    1
    27    22    21    2
    28    24    23    1
    29    26    25    1
    30    26    29    1
    31   109   106   am
    32   111   112    2
    33    23    20    1
    34   103   101    1
    35    21    25   am
    36    21    20    1
    37   108   105    1
    38   126   125    1
    39   126   127    1
    40    29    30    1
    41    29    31    1
    42   106   105    1
    43   106   107    2
    44    20    19    1
    45   105   104    1
    46   125   122    1
    47   128   127   ar
    48   104    99   am
    49   127   129   ar
    50    58    55    1
    51    58    59    1
    52   101   102    1
    53   101    98    1
    54    19    10   am
    55    55    54    1
    56    55    56    1
    57    99    98    1
    58    99   100    2
    59   123   124    2
    60   123   122    1
    61    98    97    1
    62   122   121    1
    63   121   116   am
    64    13    14    1
    65    13    12    1
    66    10     9    1
    67    10    11    2
    68    60    56   am
    69    60    61    1
    70    56    57    2
    71   114   115    1
    72    14    15    1
    73    15    16    2
    74     9    12    1
    75     9     8    1
    76    97    95   am
    77    96    95    2
    78    64    61    1
    79    16    18    1
    80    16    17    1
    81    82    83   ar
    82    82    80   ar
    83   116   115    1
    84   116   117    2
    85    61    62    1
    86    63    62    2
    87   119   118    1
    88    95    94    1
    89    83    81   ar
    90   115   118    1
    91    62    65   am
    92    80    79   ar
    93   118   120    1
    94    81    79   ar
    95   143   142    2
    96    94    93    1
    97    72    73    1
    98    72    71    1
    99    65    66    1
   100   141   142    1
   101   141   140    1
   102    79    78    1
   103    70    71    1
   104    70    69    1
   105    93    90   am
   106    66    69    1
   107    66    67    1
   108     6     5    1
   109    78    75    1
   110    90    91    2
   111    90    89    1
   112    67    68    2
   113     1     2    1
   114    75    74    1
   115    75    76    1
   116     5     2    1
   117     5     7    1
   118    89    88    1
   119    89    92    1
   120    87    86    2
   121     2     3    1
   122    86    88   am
   123    86    85    1
   124   139   138    1
   125    76    77    2
   126    85    84    1
   127   138   135    1
   128     3     4    2
   129   135   134    1
   130   135   136    1
   131   134   132   am
   132   131   132    1
   133   131   130    1
   134   136   137    2
   135   132   133    2
