@<TRIPOS>MOLECULE
tmp/6hwhX01.pdb
 99 98 0 0 0
SMALL
GASTEIGER

@<TRIPOS>ATOM
      1  N        188.8230  251.3240  223.8870 N.3    88  HIS88      -0.1241
      2  CA       189.7750  250.8130  222.9100 C.3    88  HIS88       0.1621
      3  C        189.1070  249.7170  222.1000 C.2    88  HIS88       0.2264
      4  O        188.3140  248.9480  222.6430 O.2    88  HIS88      -0.2867
      5  CB       191.0340  250.2640  223.5880 C.3    88  HIS88       0.0745
      6  CG       190.7640  249.1530  224.5490 C.ar   88  HIS88       0.0817
      7  ND1      190.3700  249.3760  225.8490 N.ar   88  HIS88      -0.2268
      8  CD2      190.8200  247.8110  224.3980 C.ar   88  HIS88       0.1154
      9  CE1      190.2020  248.2190  226.4600 C.ar   88  HIS88       0.1986
     10  NE2      190.4680  247.2530  225.6010 N.ar   88  HIS88      -0.2212
     11  N        190.1720  247.2350  218.3920 N.3    90  TRP90      -0.1227
     12  CA       190.9020  246.8980  217.1760 C.3    90  TRP90       0.1737
     13  C        189.9970  246.4650  216.0470 C.2    90  TRP90       0.2595
     14  O        190.4570  245.8030  215.1170 O.2    90  TRP90      -0.2718
     15  CB       191.9240  245.7990  217.4520 C.3    90  TRP90       0.0564
     16  CG       191.3940  244.6610  218.2330 C.ar   90  TRP90       0.0003
     17  CD1      191.3730  244.5550  219.5870 C.ar   90  TRP90       0.0946
     18  CD2      190.8250  243.4570  217.7280 C.ar   90  TRP90       0.0152
     19  NE1      190.8190  243.3670  219.9570 N.ar   90  TRP90      -0.2442
     20  CE2      190.4780  242.6720  218.8300 C.ar   90  TRP90       0.0810
     21  CE3      190.5800  242.9630  216.4510 C.ar   90  TRP90       0.0012
     22  CZ2      189.8910  241.4300  218.6950 C.ar   90  TRP90       0.0191
     23  CZ3      189.9990  241.7340  216.3220 C.ar   90  TRP90       0.0001
     24  CH2      189.6680  240.9770  217.4310 C.ar   90  TRP90       0.0015
     25  N        188.7310  246.7640  216.1300 N.am   91  TRP91      -0.1976
     26  CA       187.8370  246.5190  215.0130 C.3    91  TRP91       0.1640
     27  C        187.8280  247.5890  213.9150 C.2    91  TRP91       0.2290
     28  O        187.6900  247.1990  212.7520 O.2    91  TRP91      -0.2864
     29  CB       186.4340  246.2500  215.5400 C.3    91  TRP91       0.0576
     30  CG       186.3730  244.9590  216.2720 C.ar   91  TRP91       0.0006
     31  CD1      186.3410  244.7840  217.6140 C.ar   91  TRP91       0.0946
     32  CD2      186.3920  243.6490  215.6990 C.ar   91  TRP91       0.0152
     33  NE1      186.3070  243.4510  217.9170 N.ar   91  TRP91      -0.2442
     34  CE2      186.3410  242.7330  216.7540 C.ar   91  TRP91       0.0810
     35  CE3      186.4360  243.1650  214.3920 C.ar   91  TRP91       0.0012
     36  CZ2      186.3310  241.3650  216.5470 C.ar   91  TRP91       0.0191
     37  CZ3      186.4270  241.8100  214.1910 C.ar   91  TRP91       0.0001
     38  CH2      186.3750  240.9250  215.2590 C.ar   91  TRP91       0.0015
     39  N        190.2900  249.1650  212.5810 N.3    93  ILE93      -0.1231
     40  CA       191.3680  248.8620  211.6460 C.3    93  ILE93       0.1692
     41  C        190.9810  247.6940  210.7460 C.2    93  ILE93       0.2591
     42  O        191.4020  247.6320  209.5860 O.2    93  ILE93      -0.2718
     43  CB       192.6860  248.6360  212.4240 C.3    93  ILE93       0.0266
     44  CG1      193.8480  248.1940  211.5400 C.3    93  ILE93       0.0019
     45  CG2      192.5080  247.6940  213.5410 C.3    93  ILE93       0.0020
     46  CD1      194.3330  249.2190  210.6260 C.3    93  ILE93       0.0001
     47  N        190.1120  246.8000  211.2160 N.am   94  LEU94      -0.1980
     48  CA       189.7420  245.6550  210.3940 C.3    94  LEU94       0.1596
     49  C        188.6030  245.9540  209.4370 C.2    94  LEU94       0.2287
     50  O        188.5090  245.3080  208.3940 O.2    94  LEU94      -0.2864
     51  CB       189.3610  244.4660  211.2610 C.3    94  LEU94       0.0297
     52  CG       190.4790  243.8120  212.0510 C.3    94  LEU94       0.0022
     53  CD1      189.8840  242.7260  212.8780 C.3    94  LEU94       0.0001
     54  CD2      191.5200  243.2660  211.1150 C.3    94  LEU94       0.0001
     55  N        190.3090  247.7580  206.5010 N.3    97  LEU97      -0.1231
     56  CA       190.9640  246.7670  205.6540 C.3    97  LEU97       0.1693
     57  C        189.9590  245.9660  204.8550 C.2    97  LEU97       0.2592
     58  O        190.2320  245.5960  203.7140 O.2    97  LEU97      -0.2718
     59  CB       191.8090  245.8100  206.4870 C.3    97  LEU97       0.0284
     60  CG       193.1630  246.2520  207.0020 C.3    97  LEU97       0.0019
     61  CD1      193.6810  245.2350  207.9720 C.3    97  LEU97       0.0001
     62  CD2      194.0820  246.3290  205.8270 C.3    97  LEU97       0.0001
     63  N        188.7980  245.6880  205.4360 N.am   98  SER98      -0.1952
     64  CA       187.8050  244.8680  204.7610 C.3    98  SER98       0.1924
     65  C        187.1090  245.6410  203.6550 C.2    98  SER98       0.2314
     66  O        186.8050  245.0850  202.5970 O.2    98  SER98      -0.2863
     67  CB       186.7910  244.3790  205.7750 C.3    98  SER98       0.2116
     68  OG       187.4190  243.5820  206.7560 O.3    98  SER98      -0.2180
     69  N        189.6800  246.0670  200.7500 N.3   101  THR101     -0.1218
     70  CA       189.8140  244.8670  199.9370 C.3   101  THR101      0.1862
     71  C        188.5080  244.4500  199.2800 C.2   101  THR101      0.2287
     72  O        188.5000  243.4800  198.5290 O.2   101  THR101     -0.2866
     73  CB       190.3670  243.7030  200.7590 C.3   101  THR101      0.1770
     74  OG1      190.7240  242.6410  199.8740 O.3   101  THR101     -0.2211
     75  CG2      189.3380  243.1720  201.7120 C.3   101  THR101      0.0375
     76  N        184.3850  239.9190  204.3580 N.3   120  PHE120     -0.1241
     77  CA       185.2460  240.4830  205.3880 C.3   120  PHE120      0.1605
     78  C        184.6100  241.7000  206.0400 C.2   120  PHE120      0.2264
     79  O        184.9080  241.9980  207.1990 O.2   120  PHE120     -0.2867
     80  CB       186.6000  240.8720  204.8000 C.3   120  PHE120      0.0534
     81  CG       187.4940  239.7140  204.4640 C.ar  120  PHE120     -0.0203
     82  CD1      187.2680  238.4570  204.9800 C.ar  120  PHE120     -0.0042
     83  CD2      188.5770  239.9010  203.6210 C.ar  120  PHE120     -0.0042
     84  CE1      188.1040  237.4120  204.6590 C.ar  120  PHE120     -0.0003
     85  CE2      189.4070  238.8600  203.2980 C.ar  120  PHE120     -0.0003
     86  CZ       189.1700  237.6160  203.8180 C.ar  120  PHE120     -0.0000
     87  N        181.8250  240.3260  208.7450 N.3   123  THR123     -0.1203
     88  CA       182.4170  239.7480  209.9510 C.3   123  THR123      0.1994
     89  C        183.2080  240.7560  210.7690 C.2   123  THR123      0.2618
     90  O        183.4020  240.5400  211.9670 O.2   123  THR123     -0.2717
     91  CB       183.3430  238.5880  209.6180 C.3   123  THR123      0.1784
     92  OG1      184.4490  239.0730  208.8570 O.3   123  THR123     -0.2211
     93  CG2      182.6150  237.5540  208.8190 C.3   123  THR123      0.0376
     94  N        183.6790  241.8380  210.1610 N.am  124  SER124     -0.1951
     95  CA       184.3240  242.8980  210.9170 C.3   124  SER124      0.1924
     96  C        183.3450  243.9520  211.4030 C.2   124  SER124      0.2314
     97  O        183.6540  244.6650  212.3600 O.2   124  SER124     -0.2863
     98  CB       185.4150  243.5490  210.0760 C.3   124  SER124      0.2116
     99  OG       184.8600  244.1050  208.9060 O.3   124  SER124     -0.2180
@<TRIPOS>BOND
     1    72    71    2
     2    71    70    1
     3    74    73    1
     4    70    69    1
     5    70    73    1
     6    73    75    1
     7    66    65    2
     8    85    83   ar
     9    85    86   ar
    10    83    81   ar
    11    65    64    1
    12    58    57    2
    13    86    84   ar
    14    76    77    1
    15    81    80    1
    16    81    82   ar
    17    84    82   ar
    18    64    63    1
    19    64    67    1
    20    80    77    1
    21    57    63   am
    22    57    56    1
    23    77    78    1
    24    56    59    1
    25    56    55    1
    26    67    68    1
    27    62    60    1
    28    78    79    2
    29    59    60    1
    30    60    61    1
    31    50    49    2
    32    87    88    1
    33    93    91    1
    34    92    91    1
    35    99    98    1
    36    49    48    1
    37    42    41    2
    38    91    88    1
    39    88    89    1
    40    98    95    1
    41    94    89   am
    42    94    95    1
    43    48    47    1
    44    48    51    1
    45    46    44    1
    46    41    47   am
    47    41    40    1
    48    89    90    2
    49    95    96    1
    50    54    52    1
    51    51    52    1
    52    96    97    2
    53    44    43    1
    54    40    43    1
    55    40    39    1
    56    52    53    1
    57    43    45    1
    58    28    27    2
    59    27    26    1
    60    37    35   ar
    61    37    38   ar
    62    35    32   ar
    63    26    29    1
    64    26    25    1
    65    14    13    2
    66    38    36   ar
    67    29    30    1
    68    32    30   ar
    69    32    34   ar
    70    13    25   am
    71    13    12    1
    72    30    31   ar
    73    23    21   ar
    74    23    24   ar
    75    21    18   ar
    76    36    34   ar
    77    34    33   ar
    78    12    15    1
    79    12    11    1
    80    24    22   ar
    81    15    16    1
    82    31    33   ar
    83    18    16   ar
    84    18    20   ar
    85    16    17   ar
    86    22    20   ar
    87    20    19   ar
    88    17    19   ar
    89     3     4    2
    90     3     2    1
    91     2     5    1
    92     2     1    1
    93     5     6    1
    94     8     6   ar
    95     8    10   ar
    96     6     7   ar
    97    10     9   ar
    98     7     9   ar
