@<TRIPOS>MOLECULE
tmp/6hwhM00.pdb
 246 241 0 0 0
SMALL
GASTEIGER

@<TRIPOS>ATOM
      1  N        201.3460  177.5210  209.7510 N.3   120  MET120     -0.1230
      2  CA       200.7000  176.2200  209.8410 C.3   120  MET120      0.1702
      3  C        201.3460  175.3570  210.9100 C.2   120  MET120      0.2592
      4  O        200.6560  174.6100  211.6090 O.2   120  MET120     -0.2718
      5  CB       200.7760  175.5170  208.4930 C.3   120  MET120      0.0401
      6  CG       199.9930  176.1660  207.3850 C.3   120  MET120      0.0596
      7  SD       200.2980  175.3240  205.8270 S.3   120  MET120     -0.1393
      8  CE       199.2950  176.2950  204.7310 C.3   120  MET120      0.0692
      9  N        202.6720  175.4260  211.0350 N.am  121  VAL121     -0.1980
     10  CA       203.3550  174.7100  212.1050 C.3   121  VAL121      0.1595
     11  C        203.0070  175.3340  213.4460 C.2   121  VAL121      0.2287
     12  O        202.8620  174.6380  214.4560 O.2   121  VAL121     -0.2864
     13  CB       204.8710  174.7020  211.8480 C.3   121  VAL121      0.0276
     14  CG1      205.6120  173.9820  212.9390 C.3   121  VAL121      0.0022
     15  CG2      205.1590  174.0380  210.5440 C.3   121  VAL121      0.0022
     16  N        200.0910  176.8770  214.1000 N.3   123  LEU123     -0.1231
     17  CA       198.7260  176.4620  214.4140 C.3   123  LEU123      0.1693
     18  C        198.7130  175.0820  215.0430 C.2   123  LEU123      0.2591
     19  O        197.8800  174.7930  215.9050 O.2   123  LEU123     -0.2718
     20  CB       197.8550  176.4700  213.1540 C.3   123  LEU123      0.0284
     21  CG       196.3310  176.3100  213.2760 C.3   123  LEU123      0.0019
     22  CD1      195.6150  177.0850  212.2110 C.3   123  LEU123      0.0001
     23  CD2      195.8820  174.8830  213.1470 C.3   123  LEU123      0.0001
     24  N        199.6160  174.2090  214.6080 N.am  124  ALA124     -0.1980
     25  CA       199.6550  172.8670  215.1570 C.3   124  ALA124      0.1597
     26  C        200.2260  172.8560  216.5630 C.2   124  ALA124      0.2287
     27  O        199.8920  171.9760  217.3550 O.2   124  ALA124     -0.2864
     28  CB       200.4610  171.9640  214.2410 C.3   124  ALA124      0.0319
     29  N        197.1280  174.1340  218.5880 N.3   127  PHE127     -0.1227
     30  CA       195.9870  173.2360  218.6320 C.3   127  PHE127      0.1736
     31  C        196.2400  172.0680  219.5700 C.2   127  PHE127      0.2595
     32  O        195.4410  171.8050  220.4730 O.2   127  PHE127     -0.2718
     33  CB       195.6720  172.7260  217.2350 C.3   127  PHE127      0.0547
     34  CG       194.4030  171.9710  217.1610 C.ar  127  PHE127     -0.0202
     35  CD1      193.2110  172.6420  217.0940 C.ar  127  PHE127     -0.0042
     36  CD2      194.3910  170.5980  217.1910 C.ar  127  PHE127     -0.0042
     37  CE1      192.0420  171.9600  217.0290 C.ar  127  PHE127     -0.0003
     38  CE2      193.2180  169.9210  217.1440 C.ar  127  PHE127     -0.0003
     39  CZ       192.0430  170.6000  217.0600 C.ar  127  PHE127     -0.0000
     40  N        197.3480  171.3570  219.3740 N.am  128  PHE128     -0.1976
     41  CA       197.5510  170.1100  220.0980 C.3   128  PHE128      0.1639
     42  C        197.9160  170.3580  221.5520 C.2   128  PHE128      0.2290
     43  O        197.4340  169.6520  222.4410 O.2   128  PHE128     -0.2864
     44  CB       198.6120  169.2650  219.4030 C.3   128  PHE128      0.0560
     45  CG       198.1630  168.6930  218.0940 C.ar  128  PHE128     -0.0200
     46  CD1      197.2840  167.6400  218.0570 C.ar  128  PHE128     -0.0042
     47  CD2      198.6340  169.1940  216.9070 C.ar  128  PHE128     -0.0042
     48  CE1      196.8750  167.1230  216.8630 C.ar  128  PHE128     -0.0003
     49  CE2      198.2290  168.6790  215.7170 C.ar  128  PHE128     -0.0003
     50  CZ       197.3510  167.6440  215.6940 C.ar  128  PHE128     -0.0000
     51  N        193.2460  183.0970  219.5020 N.3   140  TRP140     -0.1241
     52  CA       193.0520  182.1690  218.3950 C.3   140  TRP140      0.1605
     53  C        192.3360  182.8450  217.2390 C.2   140  TRP140      0.2264
     54  O        192.6600  182.6020  216.0750 O.2   140  TRP140     -0.2867
     55  CB       192.2480  180.9610  218.8710 C.3   140  TRP140      0.0550
     56  CG       191.8630  179.9710  217.8080 C.ar  140  TRP140      0.0003
     57  CD1      190.7340  179.9960  217.0610 C.ar  140  TRP140      0.0946
     58  CD2      192.5410  178.7600  217.4560 C.ar  140  TRP140      0.0152
     59  NE1      190.6880  178.9170  216.2260 N.ar  140  TRP140     -0.2442
     60  CE2      191.7860  178.1370  216.4530 C.ar  140  TRP140      0.0810
     61  CE3      193.7240  178.1590  217.8720 C.ar  140  TRP140      0.0012
     62  CZ2      192.1730  176.9460  215.8630 C.ar  140  TRP140      0.0191
     63  CZ3      194.1050  176.9790  217.2830 C.ar  140  TRP140      0.0001
     64  CH2      193.3350  176.3850  216.2910 C.ar  140  TRP140      0.0015
     65  N        196.1120  183.6290  209.3960 N.3   147  LEU147     -0.1245
     66  CA       196.3640  182.5180  208.4900 C.3   147  LEU147      0.1561
     67  C        195.5340  182.6470  207.2240 C.2   147  LEU147      0.2260
     68  O        196.0150  182.3420  206.1320 O.2   147  LEU147     -0.2867
     69  CB       196.1000  181.1920  209.1990 C.3   147  LEU147      0.0270
     70  CG       196.2820  179.9020  208.4080 C.3   147  LEU147      0.0019
     71  CD1      196.9630  178.8940  209.2580 C.3   147  LEU147      0.0001
     72  CD2      194.9310  179.3430  208.0250 C.3   147  LEU147      0.0001
     73  N        196.9200  183.3420  203.2640 N.3   151  MET151     -0.1245
     74  CA       196.5890  182.6060  202.0530 C.3   151  MET151      0.1570
     75  C        196.3940  183.5570  200.8870 C.2   151  MET151      0.2261
     76  O        196.9100  183.3230  199.7910 O.2   151  MET151     -0.2867
     77  CB       195.3120  181.7920  202.2510 C.3   151  MET151      0.0387
     78  CG       195.3280  180.7600  203.3500 C.3   151  MET151      0.0595
     79  SD       196.5340  179.4640  203.1250 S.3   151  MET151     -0.1393
     80  CE       196.2700  178.5150  204.6120 C.3   151  MET151      0.0692
     81  N        202.0410  175.9700  198.0530 N.3   302  PHE302     -0.1241
     82  CA       201.5730  174.8850  198.9180 C.3   302  PHE302      0.1605
     83  C        200.5160  175.3350  199.9180 C.2   302  PHE302      0.2264
     84  O        199.7140  174.5080  200.3660 O.2   302  PHE302     -0.2867
     85  CB       202.7480  174.2260  199.6500 C.3   302  PHE302      0.0534
     86  CG       203.3810  175.0840  200.7020 C.ar  302  PHE302     -0.0203
     87  CD1      204.3650  175.9900  200.3680 C.ar  302  PHE302     -0.0042
     88  CD2      203.0300  174.9530  202.0380 C.ar  302  PHE302     -0.0042
     89  CE1      204.9500  176.7730  201.3330 C.ar  302  PHE302     -0.0003
     90  CE2      203.6110  175.7390  202.9980 C.ar  302  PHE302     -0.0003
     91  CZ       204.5730  176.6470  202.6410 C.ar  302  PHE302     -0.0000
     92  N        197.5650  175.0720  197.7450 N.3   305  MET305     -0.1230
     93  CA       197.4350  173.8180  197.0140 C.3   305  MET305      0.1702
     94  C        196.2110  173.0220  197.4300 C.2   305  MET305      0.2592
     95  O        195.6420  172.3030  196.6050 O.2   305  MET305     -0.2718
     96  CB       198.6850  172.9650  197.1820 C.3   305  MET305      0.0401
     97  CG       199.7770  173.2550  196.1810 C.3   305  MET305      0.0596
     98  SD       201.1610  172.1340  196.3820 S.3   305  MET305     -0.1393
     99  CE       202.2410  172.7500  195.1100 C.3   305  MET305      0.0692
    100  N        195.7890  173.1270  198.6900 N.am  306  TRP306     -0.1976
    101  CA       194.6150  172.3890  199.1380 C.3   306  TRP306      0.1640
    102  C        193.3310  172.9350  198.5330 C.2   306  TRP306      0.2290
    103  O        192.3170  172.2360  198.5290 O.2   306  TRP306     -0.2864
    104  CB       194.5260  172.4170  200.6620 C.3   306  TRP306      0.0576
    105  CG       194.2810  173.7770  201.2110 C.ar  306  TRP306      0.0006
    106  CD1      195.2110  174.7300  201.4730 C.ar  306  TRP306      0.0946
    107  CD2      193.0180  174.3350  201.5810 C.ar  306  TRP306      0.0152
    108  NE1      194.6090  175.8570  201.9690 N.ar  306  TRP306     -0.2442
    109  CE2      193.2600  175.6380  202.0470 C.ar  306  TRP306      0.0810
    110  CE3      191.7050  173.8600  201.5580 C.ar  306  TRP306      0.0012
    111  CZ2      192.2410  176.4700  202.4900 C.ar  306  TRP306      0.0191
    112  CZ3      190.6950  174.6880  201.9980 C.ar  306  TRP306      0.0001
    113  CH2      190.9680  175.9770  202.4580 C.ar  306  TRP306      0.0015
    114  N        185.7510  175.2340  206.0700 N.3   339  VAL339     -0.1231
    115  CA       187.0500  175.0150  206.6970 C.3   339  VAL339      0.1692
    116  C        187.4880  176.2640  207.4470 C.2   339  VAL339      0.2592
    117  O        187.9660  176.1880  208.5840 O.2   339  VAL339     -0.2718
    118  CB       188.0800  174.5920  205.6340 C.3   339  VAL339      0.0266
    119  CG1      189.4790  174.5690  206.2060 C.3   339  VAL339      0.0020
    120  CG2      187.7240  173.2280  205.0920 C.3   339  VAL339      0.0020
    121  N        187.2800  177.4360  206.8510 N.am  340  PHE340     -0.1976
    122  CA       187.5930  178.6830  207.5340 C.3   340  PHE340      0.1639
    123  C        186.6130  179.0060  208.6540 C.2   340  PHE340      0.2290
    124  O        186.8840  179.9200  209.4340 O.2   340  PHE340     -0.2864
    125  CB       187.6200  179.8430  206.5380 C.3   340  PHE340      0.0560
    126  CG       188.7890  179.8160  205.5900 C.ar  340  PHE340     -0.0200
    127  CD1      189.9210  179.0600  205.8640 C.ar  340  PHE340     -0.0042
    128  CD2      188.7510  180.5460  204.4170 C.ar  340  PHE340     -0.0042
    129  CE1      190.9890  179.0380  204.9850 C.ar  340  PHE340     -0.0003
    130  CE2      189.8170  180.5290  203.5380 C.ar  340  PHE340     -0.0003
    131  CZ       190.9340  179.7720  203.8220 C.ar  340  PHE340     -0.0000
    132  N        185.2270  176.3820  210.7600 N.3   342  LEU342     -0.1231
    133  CA       185.5600  175.4620  211.8350 C.3   342  LEU342      0.1693
    134  C        186.9800  175.6380  212.3410 C.2   342  LEU342      0.2591
    135  O        187.3620  174.9750  213.3080 O.2   342  LEU342     -0.2718
    136  CB       185.3700  174.0140  211.3850 C.3   342  LEU342      0.0284
    137  CG       183.9330  173.5750  211.1310 C.3   342  LEU342      0.0019
    138  CD1      183.9000  172.1620  210.5860 C.3   342  LEU342      0.0001
    139  CD2      183.1300  173.6760  212.4080 C.3   342  LEU342      0.0001
    140  N        187.7710  176.4960  211.7070 N.am  343  LEU343     -0.1980
    141  CA       189.1080  176.8050  212.1840 C.3   343  LEU343      0.1596
    142  C        189.1560  178.1070  212.9630 C.2   343  LEU343      0.2287
    143  O        190.0200  178.2660  213.8280 O.2   343  LEU343     -0.2864
    144  CB       190.0840  176.8560  211.0030 C.3   343  LEU343      0.0297
    145  CG       191.5990  176.8830  211.1960 C.3   343  LEU343      0.0022
    146  CD1      192.2290  176.0890  210.0830 C.3   343  LEU343      0.0001
    147  CD2      192.1290  178.2890  211.1410 C.3   343  LEU343      0.0001
    148  N        186.8390  177.1910  216.4680 N.3   346  TYR346     -0.1241
    149  CA       187.1020  175.9530  217.1990 C.3   346  TYR346      0.1605
    150  C        187.0210  176.0890  218.7210 C.2   346  TYR346      0.2264
    151  O        186.3790  175.2230  219.3390 O.2   346  TYR346     -0.2867
    152  CB       188.4350  175.3280  216.7750 C.3   346  TYR346      0.0534
    153  CG       188.6040  173.9930  217.4570 C.ar  346  TYR346     -0.0201
    154  CD1      187.8880  172.8920  217.0240 C.ar  346  TYR346     -0.0009
    155  CD2      189.4260  173.8430  218.5640 C.ar  346  TYR346     -0.0009
    156  CE1      188.0000  171.6780  217.6540 C.ar  346  TYR346      0.0417
    157  CE2      189.5270  172.6410  219.2090 C.ar  346  TYR346      0.0417
    158  CZ       188.8260  171.5590  218.7420 C.ar  346  TYR346      0.1957
    159  OH       188.9470  170.3510  219.3760 O.3   346  TYR346     -0.2866
    160  N        191.4260  164.4180  216.4850 N.3   375  ILE375     -0.1231
    161  CA       190.7330  165.3340  215.5820 C.3   375  ILE375      0.1692
    162  C        191.7450  166.1770  214.8250 C.2   375  ILE375      0.2592
    163  O        191.5730  166.4690  213.6360 O.2   375  ILE375     -0.2718
    164  CB       189.7260  166.2010  216.3630 C.3   375  ILE375      0.0266
    165  CG1      188.5860  165.3430  216.8960 C.3   375  ILE375      0.0019
    166  CG2      189.1360  167.3040  215.5180 C.3   375  ILE375      0.0020
    167  CD1      187.6700  166.0850  217.8290 C.3   375  ILE375      0.0001
    168  N        192.8460  166.5320  215.4850 N.am  376  GLY376     -0.1957
    169  CA       193.8540  167.3540  214.8380 C.3   376  GLY376      0.1869
    170  C        194.6190  166.6070  213.7690 C.2   376  GLY376      0.2309
    171  O        194.7580  167.0890  212.6460 O.2   376  GLY376     -0.2863
    172  N        192.9170  166.2530  210.6530 N.3   379  ALA379     -0.1231
    173  CA       192.9190  167.4300  209.7970 C.3   379  ALA379      0.1694
    174  C        194.2320  167.6110  209.0450 C.2   379  ALA379      0.2591
    175  O        194.2220  168.1520  207.9370 O.2   379  ALA379     -0.2718
    176  CB       192.6100  168.6740  210.6240 C.3   379  ALA379      0.0304
    177  N        195.3660  167.2060  209.6270 N.am  380  ILE380     -0.1980
    178  CA       196.6110  167.1660  208.8630 C.3   380  ILE380      0.1595
    179  C        196.5160  166.1330  207.7490 C.2   380  ILE380      0.2287
    180  O        196.8810  166.4050  206.5990 O.2   380  ILE380     -0.2864
    181  CB       197.8170  166.8960  209.7850 C.3   380  ILE380      0.0276
    182  CG1      198.2100  168.1350  210.5780 C.3   380  ILE380      0.0022
    183  CG2      199.0210  166.4250  209.0110 C.3   380  ILE380      0.0022
    184  CD1      197.7210  168.1760  211.9580 C.3   380  ILE380      0.0001
    185  N        193.8920  165.1550  206.2650 N.3   382  LEU382     -0.1231
    186  CA       193.0070  165.6500  205.2220 C.3   382  LEU382      0.1693
    187  C        193.6360  166.8100  204.4650 C.2   382  LEU382      0.2592
    188  O        193.3730  166.9800  203.2720 O.2   382  LEU382     -0.2718
    189  CB       191.6660  166.0620  205.8260 C.3   382  LEU382      0.0284
    190  CG       190.5580  166.5060  204.8770 C.3   382  LEU382      0.0019
    191  CD1      190.2140  165.3870  203.9280 C.3   382  LEU382      0.0001
    192  CD2      189.3340  166.9350  205.6530 C.3   382  LEU382      0.0001
    193  N        194.4760  167.6040  205.1270 N.am  383  TYR383     -0.1962
    194  CA       195.2240  168.6350  204.4180 C.3   383  TYR383      0.1771
    195  C        196.2890  168.0310  203.5160 C.2   383  TYR383      0.2619
    196  O        196.4740  168.4840  202.3830 O.2   383  TYR383     -0.2715
    197  CB       195.8650  169.6040  205.4030 C.3   383  TYR383      0.0574
    198  CG       196.7720  170.5980  204.7320 C.ar  383  TYR383     -0.0198
    199  CD1      196.2530  171.6310  203.9750 C.ar  383  TYR383     -0.0009
    200  CD2      198.1500  170.5040  204.8570 C.ar  383  TYR383     -0.0009
    201  CE1      197.0770  172.5400  203.3560 C.ar  383  TYR383      0.0417
    202  CE2      198.9800  171.4030  204.2360 C.ar  383  TYR383      0.0417
    203  CZ       198.4380  172.4210  203.4920 C.ar  383  TYR383      0.1957
    204  OH       199.2640  173.3250  202.8760 O.3   383  TYR383     -0.2866
    205  N        197.0110  167.0220  204.0060 N.am  384  LEU384     -0.1977
    206  CA       198.0510  166.3820  203.2090 C.3   384  LEU384      0.1596
    207  C        197.4830  165.6050  202.0360 C.2   384  LEU384      0.2287
    208  O        198.1990  165.3660  201.0620 O.2   384  LEU384     -0.2864
    209  CB       198.8990  165.4460  204.0700 C.3   384  LEU384      0.0297
    210  CG       200.2050  165.9550  204.6680 C.3   384  LEU384      0.0022
    211  CD1      201.1550  166.2560  203.5400 C.3   384  LEU384      0.0001
    212  CD2      199.9970  167.1790  205.5100 C.3   384  LEU384      0.0001
    213  N        194.6840  166.6080  200.2360 N.3   386  LEU386     -0.1231
    214  CA       194.2820  167.5760  199.2230 C.3   386  LEU386      0.1693
    215  C        195.4920  168.1710  198.5130 C.2   386  LEU386      0.2593
    216  O        195.4590  168.3820  197.2970 O.2   386  LEU386     -0.2718
    217  CB       193.4410  168.6780  199.8580 C.3   386  LEU386      0.0284
    218  CG       192.0940  168.2450  200.4240 C.3   386  LEU386      0.0019
    219  CD1      191.4260  169.4020  201.1240 C.3   386  LEU386      0.0001
    220  CD2      191.2150  167.7260  199.3250 C.3   386  LEU386      0.0001
    221  N        196.5770  168.4230  199.2440 N.am  387  THR387     -0.1939
    222  CA       197.7770  168.9700  198.6270 C.3   387  THR387      0.2028
    223  C        198.6110  167.9200  197.9090 C.2   387  THR387      0.2642
    224  O        199.6000  168.2790  197.2660 O.2   387  THR387     -0.2714
    225  CB       198.6490  169.6690  199.6640 C.3   387  THR387      0.1808
    226  OG1      199.6990  170.3710  198.9950 O.3   387  THR387     -0.2208
    227  CG2      199.2790  168.6670  200.5770 C.3   387  THR387      0.0379
    228  N        198.2590  166.6420  198.0150 N.am  388  PHE388     -0.1973
    229  CA       198.8600  165.6040  197.1900 C.3   388  PHE388      0.1639
    230  C        197.9040  165.1140  196.1170 C.2   388  PHE388      0.2290
    231  O        198.1700  164.0900  195.4810 O.2   388  PHE388     -0.2864
    232  CB       199.3330  164.4270  198.0430 C.3   388  PHE388      0.0560
    233  CG       200.5580  164.7170  198.8560 C.ar  388  PHE388     -0.0200
    234  CD1      201.3540  165.8150  198.5750 C.ar  388  PHE388     -0.0042
    235  CD2      200.9170  163.8860  199.9000 C.ar  388  PHE388     -0.0042
    236  CE1      202.4800  166.0810  199.3250 C.ar  388  PHE388     -0.0003
    237  CE2      202.0410  164.1480  200.6530 C.ar  388  PHE388     -0.0003
    238  CZ       202.8230  165.2460  200.3650 C.ar  388  PHE388     -0.0000
    239  N        198.7790  168.1120  192.9110 N.3   391  MET391     -0.1245
    240  CA       199.9950  167.8830  192.1520 C.3   391  MET391      0.1570
    241  C        200.0270  166.4760  191.5700 C.2   391  MET391      0.2261
    242  O        201.0990  165.9170  191.3380 O.2   391  MET391     -0.2867
    243  CB       201.2170  168.1660  193.0240 C.3   391  MET391      0.0387
    244  CG       201.2970  167.3470  194.2890 C.3   391  MET391      0.0595
    245  SD       202.6910  167.8520  195.3070 S.3   391  MET391     -0.1393
    246  CE       204.0580  167.2160  194.3480 C.3   391  MET391      0.0692
@<TRIPOS>BOND
     1   242   241    2
     2   241   240    1
     3   240   239    1
     4   240   243    1
     5   243   244    1
     6   244   245    1
     7   246   245    1
     8    99    98    1
     9   231   230    2
    10   230   229    1
    11    97    98    1
    12    97    96    1
    13    95    94    2
    14    93    96    1
    15    93    94    1
    16    93    92    1
    17   229   228    1
    18   229   232    1
    19   224   223    2
    20   216   215    2
    21    94   100   am
    22   223   228   am
    23   223   222    1
    24   232   233    1
    25    81    82    1
    26   215   214    1
    27   215   221   am
    28   103   102    2
    29   102   101    1
    30   234   233   ar
    31   234   236   ar
    32   222   221    1
    33   222   225    1
    34   100   101    1
    35   233   235   ar
    36    82    85    1
    37    82    83    1
    38   226   225    1
    39   101   104    1
    40   214   217    1
    41   214   213    1
    42   220   218    1
    43   236   238   ar
    44    85    86    1
    45   225   227    1
    46    76    75    2
    47   217   218    1
    48   235   237   ar
    49    83    84    2
    50   238   237   ar
    51    87    86   ar
    52    87    89   ar
    53   218   219    1
    54   104   105    1
    55    86    88   ar
    56    75    74    1
    57   208   207    2
    58   105   106   ar
    59   105   107   ar
    60    89    91   ar
    61   106   108   ar
    62   110   107   ar
    63   110   112   ar
    64   107   109   ar
    65   108   109   ar
    66   112   113   ar
    67   207   206    1
    68    88    90   ar
    69   109   111   ar
    70    74    77    1
    71    74    73    1
    72    77    78    1
    73   196   195    2
    74   113   111   ar
    75    91    90   ar
    76   204   203    1
    77    79    78    1
    78    79    80    1
    79   206   205    1
    80   206   209    1
    81   188   187    2
    82   201   203   ar
    83   201   199   ar
    84   203   202   ar
    85   195   205   am
    86   195   194    1
    87   130   131   ar
    88   130   128   ar
    89   211   210    1
    90   131   129   ar
    91   191   190    1
    92   199   198   ar
    93   209   210    1
    94   202   200   ar
    95   128   126   ar
    96   194   193    1
    97   194   197    1
    98   187   193   am
    99   187   186    1
   100   210   212    1
   101     8     7    1
   102   198   200   ar
   103   198   197    1
   104   190   192    1
   105   190   189    1
   106   129   127   ar
   107   120   118    1
   108   186   189    1
   109   186   185    1
   110   126   127   ar
   111   126   125    1
   112   118   119    1
   113   118   115    1
   114     7     6    1
   115   114   115    1
   116    68    67    2
   117   125   122    1
   118   180   179    2
   119   115   116    1
   120   121   116   am
   121   121   122    1
   122    67    66    1
   123     6     5    1
   124   116   117    2
   125   122   123    1
   126   179   178    1
   127   175   174    2
   128    72    70    1
   129    70    69    1
   130    70    71    1
   131    66    69    1
   132    66    65    1
   133     5     2    1
   134   123   124    2
   135   178   177    1
   136   178   181    1
   137   183   181    1
   138   174   177   am
   139   174   173    1
   140     1     2    1
   141   181   182    1
   142   173   176    1
   143   173   172    1
   144     2     3    1
   145   146   145    1
   146    15    13    1
   147   182   184    1
   148   138   137    1
   149   132   133    1
   150     3     9   am
   151     3     4    2
   152   144   145    1
   153   144   141    1
   154     9    10    1
   155   137   136    1
   156   137   139    1
   157   147   145    1
   158   136   133    1
   159   140   141    1
   160   140   134   am
   161   133   134    1
   162    13    10    1
   163    13    14    1
   164    10    11    1
   165   141   142    1
   166    22    21    1
   167   134   135    2
   168   171   170    2
   169   142   143    2
   170    23    21    1
   171    20    21    1
   172    20    17    1
   173    11    12    2
   174   163   162    2
   175   170   169    1
   176    16    17    1
   177    28    25    1
   178    17    18    1
   179    24    18   am
   180    24    25    1
   181   162   168   am
   182   162   161    1
   183   169   168    1
   184    18    19    2
   185    25    26    1
   186   166   164    1
   187   161   164    1
   188   161   160    1
   189    50    49   ar
   190    50    48   ar
   191    49    47   ar
   192    62    64   ar
   193    62    60   ar
   194    54    53    2
   195    59    60   ar
   196    59    57   ar
   197    64    63   ar
   198   164   165    1
   199    60    58   ar
   200   148   149    1
   201    26    27    2
   202   152   149    1
   203   152   153    1
   204    48    46   ar
   205   165   167    1
   206    47    45   ar
   207   154   153   ar
   208   154   156   ar
   209    37    39   ar
   210    37    35   ar
   211    39    38   ar
   212    57    56   ar
   213    35    34   ar
   214    38    36   ar
   215    34    36   ar
   216    34    33    1
   217   149   150    1
   218    33    30    1
   219    53    52    1
   220    63    61   ar
   221    58    56   ar
   222    58    61   ar
   223   153   155   ar
   224   156   158   ar
   225    56    55    1
   226    46    45   ar
   227    45    44    1
   228    52    55    1
   229    52    51    1
   230   155   157   ar
   231    29    30    1
   232    30    31    1
   233   150   151    2
   234   158   157   ar
   235   158   159    1
   236    40    31   am
   237    40    41    1
   238    44    41    1
   239    31    32    2
   240    41    42    1
   241    42    43    2
