@<TRIPOS>MOLECULE
tmp/6hwhL00.pdb
 172 163 0 0 0
SMALL
GASTEIGER

@<TRIPOS>ATOM
      1  N        230.7080  140.6130  221.6300 N.3     5  MET5       -0.1230
      2  CA       229.5640  140.4260  220.7280 C.3     5  MET5        0.1702
      3  C        229.5250  141.3420  219.5070 C.2     5  MET5        0.2592
      4  O        229.2500  140.8880  218.3920 O.2     5  MET5       -0.2718
      5  CB       228.2750  140.6190  221.5200 C.3     5  MET5        0.0401
      6  CG       227.0330  140.4310  220.6970 C.3     5  MET5        0.0596
      7  SD       225.5680  140.9490  221.5760 S.3     5  MET5       -0.1393
      8  CE       225.7050  142.7200  221.5070 C.3     5  MET5        0.0692
      9  N        229.8110  142.6320  219.6960 N.am    6  VAL6       -0.1980
     10  CA       229.7400  143.5800  218.5880 C.3     6  VAL6        0.1595
     11  C        230.8540  143.3140  217.5860 C.2     6  VAL6        0.2287
     12  O        230.6650  143.4750  216.3750 O.2     6  VAL6       -0.2864
     13  CB       229.7840  145.0190  219.1310 C.3     6  VAL6        0.0276
     14  CG1      229.6030  146.0300  218.0250 C.3     6  VAL6        0.0022
     15  CG2      228.7300  145.2120  220.1840 C.3     6  VAL6        0.0022
     16  N        229.5600  140.3640  215.7470 N.3     9  GLY9       -0.1210
     17  CA       228.4740  140.7780  214.8790 C.3     9  GLY9        0.1956
     18  C        228.8930  141.6170  213.6950 C.2     9  GLY9        0.2612
     19  O        228.0980  141.8030  212.7720 O.2     9  GLY9       -0.2717
     20  N        230.1140  142.1350  213.6960 N.am   10  THR10      -0.1952
     21  CA       230.5740  142.8790  212.5370 C.3    10  THR10       0.1897
     22  C        231.2830  141.9830  211.5350 C.2    10  THR10       0.2313
     23  O        231.0190  142.0760  210.3350 O.2    10  THR10      -0.2863
     24  CB       231.4840  144.0210  212.9790 C.3    10  THR10       0.1794
     25  OG1      230.7540  144.8690  213.8680 O.3    10  THR10      -0.2208
     26  CG2      231.9320  144.8470  211.7900 C.3    10  THR10       0.0378
     27  N        229.0090  140.0950  209.6900 N.3    13  TRP13      -0.1241
     28  CA       228.4420  140.9320  208.6370 C.3    13  TRP13       0.1605
     29  C        229.4600  141.2330  207.5460 C.2    13  TRP13       0.2264
     30  O        229.1090  141.2620  206.3650 O.2    13  TRP13      -0.2867
     31  CB       227.9040  142.2420  209.1970 C.3    13  TRP13       0.0550
     32  CG       227.4010  143.1100  208.1030 C.ar   13  TRP13       0.0003
     33  CD1      226.3120  142.8880  207.3260 C.ar   13  TRP13       0.0946
     34  CD2      228.0100  144.3030  207.6060 C.ar   13  TRP13       0.0152
     35  NE1      226.1780  143.8850  206.3980 N.ar   13  TRP13      -0.2442
     36  CE2      227.2140  144.7650  206.5470 C.ar   13  TRP13       0.0810
     37  CE3      229.1420  145.0360  207.9650 C.ar   13  TRP13       0.0012
     38  CZ2      227.5100  145.9270  205.8470 C.ar   13  TRP13       0.0191
     39  CZ3      229.4350  146.1870  207.2650 C.ar   13  TRP13       0.0001
     40  CH2      228.6260  146.6190  206.2170 C.ar   13  TRP13       0.0015
     41  N        229.5810  141.3890  202.8480 N.3    17  GLU17      -0.1245
     42  CA       230.0300  142.3760  201.8800 C.3    17  GLU17       0.1567
     43  C        231.1310  141.8470  200.9790 C.2    17  GLU17       0.2260
     44  O        231.3330  142.3940  199.8950 O.2    17  GLU17      -0.2867
     45  CB       230.5040  143.6240  202.6030 C.3    17  GLU17       0.0388
     46  CG       229.3920  144.3660  203.2630 C.3    17  GLU17       0.1160
     47  CD       228.4890  145.0450  202.2660 C.2    17  GLU17       0.3649
     48  OE1      228.9980  145.5400  201.2420 O.co2  17  GLU17      -0.2457
     49  OE2      227.2650  145.0750  202.4960 O.co2  17  GLU17      -0.2457
     50  N        229.0940  140.5680  198.3720 N.3    20  PHE20      -0.1241
     51  CA       228.6010  141.6430  197.5230 C.3    20  PHE20       0.1605
     52  C        229.6280  142.0120  196.4700 C.2    20  PHE20       0.2264
     53  O        229.2630  142.3680  195.3480 O.2    20  PHE20      -0.2867
     54  CB       228.2340  142.8600  198.3650 C.3    20  PHE20       0.0534
     55  CG       227.6970  144.0030  197.5680 C.ar   20  PHE20      -0.0203
     56  CD1      226.4280  143.9540  197.0390 C.ar   20  PHE20      -0.0042
     57  CD2      228.4600  145.1340  197.3580 C.ar   20  PHE20      -0.0042
     58  CE1      225.9310  145.0080  196.3060 C.ar   20  PHE20      -0.0003
     59  CE2      227.9680  146.1900  196.6280 C.ar   20  PHE20      -0.0003
     60  CZ       226.7040  146.1260  196.1010 C.ar   20  PHE20      -0.0000
     61  N        231.5360  153.6360  197.0380 N.3   130  LEU130     -0.1231
     62  CA       230.4620  153.8600  197.9880 C.3   130  LEU130      0.1693
     63  C        230.6790  153.1260  199.3010 C.2   130  LEU130      0.2592
     64  O        229.9570  153.3900  200.2650 O.2   130  LEU130     -0.2718
     65  CB       229.1230  153.4420  197.3820 C.3   130  LEU130      0.0284
     66  CG       228.7330  154.2440  196.1430 C.3   130  LEU130      0.0019
     67  CD1      227.4400  153.7230  195.5620 C.3   130  LEU130      0.0001
     68  CD2      228.6270  155.7180  196.4620 C.3   130  LEU130      0.0001
     69  N        231.6390  152.2130  199.3640 N.am  131  HIS131     -0.1976
     70  CA       232.0440  151.6320  200.6310 C.3   131  HIS131      0.1656
     71  C        233.1800  152.3970  201.2920 C.2   131  HIS131      0.2291
     72  O        233.5760  152.0400  202.4040 O.2   131  HIS131     -0.2864
     73  CB       232.4370  150.1670  200.4530 C.3   131  HIS131      0.0771
     74  CG       231.2710  149.2420  200.3080 C.ar  131  HIS131      0.0820
     75  ND1      230.6960  148.9500  199.0920 N.ar  131  HIS131     -0.2267
     76  CD2      230.5760  148.5380  201.2300 C.ar  131  HIS131      0.1154
     77  CE1      229.6920  148.1110  199.2710 C.ar  131  HIS131      0.1986
     78  NE2      229.5990  147.8440  200.5600 N.ar  131  HIS131     -0.2212
     79  N        232.9760  156.1260  200.9690 N.3   133  ILE133     -0.1231
     80  CA       232.0930  157.2160  201.3810 C.3   133  ILE133      0.1692
     81  C        231.1610  156.7510  202.4870 C.2   133  ILE133      0.2592
     82  O        230.9340  157.4630  203.4690 O.2   133  ILE133     -0.2718
     83  CB       231.3090  157.7570  200.1730 C.3   133  ILE133      0.0266
     84  CG1      232.2580  158.3770  199.1600 C.3   133  ILE133      0.0019
     85  CG2      230.3070  158.8040  200.5940 C.3   133  ILE133      0.0020
     86  CD1      231.5850  158.7470  197.8660 C.3   133  ILE133      0.0001
     87  N        230.6550  155.5240  202.3790 N.am  134  GLY134     -0.1957
     88  CA       229.9140  154.9430  203.4790 C.3   134  GLY134      0.1869
     89  C        230.7620  154.6210  204.6870 C.2   134  GLY134      0.2309
     90  O        230.2160  154.4200  205.7730 O.2   134  GLY134     -0.2863
     91  N        231.5280  158.1890  206.5750 N.3   137  VAL137     -0.1231
     92  CA       230.3710  158.5420  207.3890 C.3   137  VAL137      0.1692
     93  C        230.4910  157.9130  208.7670 C.2   137  VAL137      0.2591
     94  O        230.2320  158.5610  209.7860 O.2   137  VAL137     -0.2718
     95  CB       229.0800  158.1170  206.6680 C.3   137  VAL137      0.0266
     96  CG1      227.8870  158.2110  207.5760 C.3   137  VAL137      0.0020
     97  CG2      228.8580  158.9980  205.4630 C.3   137  VAL137      0.0020
     98  N        230.9590  156.6650  208.8250 N.am  138  ALA138     -0.1980
     99  CA       231.0940  155.9640  210.0940 C.3   138  ALA138      0.1597
    100  C        232.2390  156.4910  210.9460 C.2   138  ALA138      0.2287
    101  O        232.3120  156.1470  212.1260 O.2   138  ALA138     -0.2864
    102  CB       231.2800  154.4700  209.8530 C.3   138  ALA138      0.0319
    103  N        230.3240  159.6640  212.5590 N.3   141  LEU141     -0.1231
    104  CA       229.3730  159.1830  213.5530 C.3   141  LEU141      0.1693
    105  C        230.0300  158.4560  214.7130 C.2   141  LEU141      0.2591
    106  O        229.3220  158.0130  215.6190 O.2   141  LEU141     -0.2718
    107  CB       228.3450  158.2550  212.9060 C.3   141  LEU141      0.0284
    108  CG       227.0830  158.8410  212.2780 C.3   141  LEU141      0.0019
    109  CD1      227.3550  159.6180  211.0150 C.3   141  LEU141      0.0001
    110  CD2      226.1040  157.7250  211.9940 C.3   141  LEU141      0.0001
    111  N        231.3450  158.2990  214.7040 N.am  142  LEU142     -0.1980
    112  CA       232.0710  157.7170  215.8210 C.3   142  LEU142      0.1596
    113  C        232.8940  158.7350  216.5800 C.2   142  LEU142      0.2287
    114  O        232.9180  158.7090  217.8100 O.2   142  LEU142     -0.2864
    115  CB       232.9870  156.6030  215.3280 C.3   142  LEU142      0.0297
    116  CG       233.8060  155.9060  216.3980 C.3   142  LEU142      0.0022
    117  CD1      232.8950  155.2540  217.4070 C.3   142  LEU142      0.0001
    118  CD2      234.6820  154.8970  215.7360 C.3   142  LEU142      0.0001
    119  N        230.5730  160.7160  218.4470 N.3   145  ARG145     -0.1245
    120  CA       230.0470  159.9290  219.5520 C.3   145  ARG145      0.1563
    121  C        231.0180  159.8850  220.7250 C.2   145  ARG145      0.2260
    122  O        230.5930  159.7160  221.8710 O.2   145  ARG145     -0.2867
    123  CB       229.7200  158.5280  219.0460 C.3   145  ARG145      0.0307
    124  CG       229.0910  157.5680  220.0150 C.3   145  ARG145      0.0489
    125  CD       228.8490  156.2910  219.2710 C.3   145  ARG145      0.2205
    126  NE       228.4670  155.1730  220.1110 N.pl3 145  ARG145     -0.0865
    127  CZ       228.2230  153.9700  219.6220 C.cat 145  ARG145      0.5346
    128  NH1      228.3240  153.7760  218.3250 N.pl3 145  ARG145      0.1354
    129  NH2      227.8880  152.9660  220.4090 N.pl3 145  ARG145      0.1354
    130  N        232.3620  150.4260  225.9870 N.3   154  ALA154     -0.1245
    131  CA       231.4520  150.3590  224.8510 C.3   154  ALA154      0.1562
    132  C        231.7740  151.4060  223.7950 C.2   154  ALA154      0.2260
    133  O        231.4650  151.2020  222.6180 O.2   154  ALA154     -0.2867
    134  CB       230.0110  150.5250  225.3190 C.3   154  ALA154      0.0290
    135  N        234.6790  149.6010  222.0780 N.3   157  THR157     -0.1203
    136  CA       234.1820  148.5000  221.2560 C.3   157  THR157      0.1994
    137  C        233.5820  149.0090  219.9530 C.2   157  THR157      0.2617
    138  O        233.7680  148.3980  218.8960 O.2   157  THR157     -0.2717
    139  CB       233.1500  147.7030  222.0520 C.3   157  THR157      0.1784
    140  OG1      233.7710  147.1640  223.2230 O.3   157  THR157     -0.2211
    141  CG2      232.5670  146.5730  221.2460 C.3   157  THR157      0.0376
    142  N        232.9000  150.1530  220.0010 N.am  158  ALA158     -0.1979
    143  CA       232.4030  150.7810  218.7860 C.3   158  ALA158      0.1597
    144  C        233.5230  151.2880  217.8930 C.2   158  ALA158      0.2287
    145  O        233.3020  151.4600  216.6950 O.2   158  ALA158     -0.2864
    146  CB       231.4660  151.9330  219.1320 C.3   158  ALA158      0.0319
    147  N        235.0470  147.9950  215.8660 N.3   161  VAL161     -0.1231
    148  CA       234.2940  147.4740  214.7320 C.3   161  VAL161      0.1692
    149  C        234.2610  148.4290  213.5450 C.2   161  VAL161      0.2591
    150  O        234.0650  147.9780  212.4130 O.2   161  VAL161     -0.2718
    151  CB       232.8710  147.1130  215.1790 C.3   161  VAL161      0.0266
    152  CG1      232.9340  146.0590  216.2340 C.3   161  VAL161      0.0020
    153  CG2      232.1520  148.3160  215.7320 C.3   161  VAL161      0.0020
    154  N        234.4390  149.7320  213.7630 N.am  162  VAL162     -0.1980
    155  CA       234.6040  150.6460  212.6390 C.3   162  VAL162      0.1595
    156  C        235.9830  150.4560  212.0220 C.2   162  VAL162      0.2287
    157  O        236.1520  150.5770  210.8020 O.2   162  VAL162     -0.2864
    158  CB       234.3440  152.0910  213.1070 C.3   162  VAL162      0.0276
    159  CG1      234.6380  153.1050  212.0240 C.3   162  VAL162      0.0022
    160  CG2      232.9080  152.2300  213.5310 C.3   162  VAL162      0.0022
    161  N        235.8140  147.4770  209.6910 N.3   165  TYR165     -0.1241
    162  CA       235.2030  147.8160  208.4140 C.3   165  TYR165      0.1605
    163  C        236.2020  148.4900  207.4930 C.2   165  TYR165      0.2264
    164  O        236.1870  148.2610  206.2810 O.2   165  TYR165     -0.2867
    165  CB       233.9940  148.7170  208.6250 C.3   165  TYR165      0.0534
    166  CG       233.3340  149.1230  207.3380 C.ar  165  TYR165     -0.0201
    167  CD1      232.5700  148.2240  206.6220 C.ar  165  TYR165     -0.0009
    168  CD2      233.4730  150.4040  206.8360 C.ar  165  TYR165     -0.0009
    169  CE1      231.9660  148.5870  205.4400 C.ar  165  TYR165      0.0417
    170  CE2      232.8740  150.7710  205.6550 C.ar  165  TYR165      0.0417
    171  CZ       232.1230  149.8620  204.9660 C.ar  165  TYR165      0.1957
    172  OH       231.5210  150.2300  203.7940 O.3   165  TYR165     -0.2866
@<TRIPOS>BOND
     1    53    52    2
     2    67    66    1
     3    60    58   ar
     4    60    59   ar
     5    66    68    1
     6    66    65    1
     7    58    56   ar
     8    52    51    1
     9    59    57   ar
    10    61    62    1
    11    56    55   ar
    12    57    55   ar
    13    65    62    1
    14    51    54    1
    15    51    50    1
    16    55    54    1
    17    86    84    1
    18    62    63    1
    19    75    77   ar
    20    75    74   ar
    21    84    83    1
    22    77    78   ar
    23    63    69   am
    24    63    64    2
    25    69    70    1
    26    44    43    2
    27    83    85    1
    28    83    80    1
    29    74    73    1
    30    74    76   ar
    31    73    70    1
    32    78    76   ar
    33    70    71    1
    34    79    80    1
    35    43    42    1
    36    48    47   ar
    37    71    72    2
    38    80    81    1
    39    42    45    1
    40    42    41    1
    41    47    49   ar
    42    47    46    1
    43    87    81   am
    44    87    88    1
    45    81    82    2
    46    45    46    1
    47    88    89    1
    48   172   171    1
    49    89    90    2
    50   171   169   ar
    51   171   170   ar
    52   169   167   ar
    53    97    95    1
    54   170   168   ar
    55    38    40   ar
    56    38    36   ar
    57    40    39   ar
    58   164   163    2
    59    30    29    2
    60    35    36   ar
    61    35    33   ar
    62    36    34   ar
    63    91    92    1
    64   167   166   ar
    65    95    92    1
    66    95    96    1
    67   168   166   ar
    68    39    37   ar
    69    33    32   ar
    70   166   165    1
    71    92    93    1
    72   163   162    1
    73    29    28    1
    74    34    37   ar
    75    34    32   ar
    76    32    31    1
    77   162   165    1
    78   162   161    1
    79    28    31    1
    80    28    27    1
    81    93    98   am
    82    93    94    2
    83    98    99    1
    84   102    99    1
    85    99   100    1
    86    23    22    2
    87   157   156    2
    88   100   101    2
    89   109   108    1
    90    22    21    1
    91    26    24    1
    92   110   108    1
    93   156   155    1
    94   159   158    1
    95   108   107    1
    96   150   149    2
    97    21    24    1
    98    21    20    1
    99   103   104    1
   100   155   158    1
   101   155   154    1
   102    19    18    2
   103   107   104    1
   104    24    25    1
   105   158   160    1
   106   149   154   am
   107   149   148    1
   108   104   105    1
   109    18    20   am
   110    18    17    1
   111   111   105   am
   112   111   112    1
   113   105   106    2
   114   148   151    1
   115   148   147    1
   116    17    16    1
   117   151   153    1
   118   151   152    1
   119   115   112    1
   120   115   116    1
   121   118   116    1
   122   112   113    1
   123    12    11    2
   124   116   117    1
   125   113   114    2
   126   145   144    2
   127    11    10    1
   128   144   143    1
   129    14    13    1
   130   128   127    1
   131     4     3    2
   132   119   120    1
   133    10    13    1
   134    10     9    1
   135   143   146    1
   136   143   142    1
   137   138   137    2
   138   123   120    1
   139   123   124    1
   140    13    15    1
   141   125   124    1
   142   125   126    1
   143     3     9   am
   144     3     2    1
   145   120   121    1
   146   127   126    2
   147   127   129    1
   148   137   142   am
   149   137   136    1
   150     6     5    1
   151     6     7    1
   152   121   122    2
   153     2     5    1
   154     2     1    1
   155   141   139    1
   156   136   139    1
   157   136   135    1
   158     8     7    1
   159   139   140    1
   160   133   132    2
   161   132   131    1
   162   131   134    1
   163   131   130    1
