@<TRIPOS>MOLECULE
tmp/6hwhM01.pdb
 238 230 0 0 0
SMALL
GASTEIGER

@<TRIPOS>ATOM
      1  N        209.8190  184.8020  230.0640 N.3    33  PHE33      -0.1241
      2  CA       209.2730  183.9600  229.0280 C.3    33  PHE33       0.1605
      3  C        209.7820  182.5400  229.1790 C.2    33  PHE33       0.2264
      4  O        210.9530  182.3380  229.5080 O.2    33  PHE33      -0.2867
      5  CB       209.6320  184.4710  227.6400 C.3    33  PHE33       0.0534
      6  CG       208.8680  185.6770  227.2440 C.ar   33  PHE33      -0.0203
      7  CD1      207.5380  185.5640  226.8790 C.ar   33  PHE33      -0.0042
      8  CD2      209.4670  186.9170  227.2250 C.ar   33  PHE33      -0.0042
      9  CE1      206.8130  186.6640  226.5160 C.ar   33  PHE33      -0.0003
     10  CE2      208.7490  188.0260  226.8550 C.ar   33  PHE33      -0.0003
     11  CZ       207.4180  187.8950  226.5020 C.ar   33  PHE33      -0.0000
     12  N        207.9830  177.2540  221.5130 N.3    39  PHE39      -0.1241
     13  CA       207.5440  178.6170  221.7180 C.3    39  PHE39       0.1605
     14  C        208.2980  179.5800  220.8230 C.2    39  PHE39       0.2264
     15  O        208.0440  180.7840  220.8700 O.2    39  PHE39      -0.2867
     16  CB       207.7110  179.0070  223.1860 C.3    39  PHE39       0.0534
     17  CG       206.8520  178.2090  224.1420 C.ar   39  PHE39      -0.0203
     18  CD1      205.7650  177.4720  223.7100 C.ar   39  PHE39      -0.0042
     19  CD2      207.1420  178.2060  225.4860 C.ar   39  PHE39      -0.0042
     20  CE1      205.0090  176.7560  224.5940 C.ar   39  PHE39      -0.0003
     21  CE2      206.3820  177.4850  226.3670 C.ar   39  PHE39      -0.0003
     22  CZ       205.3200  176.7650  225.9190 C.ar   39  PHE39      -0.0000
     23  N        206.2900  180.4770  216.6600 N.3    42  GLY42      -0.1210
     24  CA       205.6070  181.6770  216.2400 C.3    42  GLY42       0.1956
     25  C        206.5280  182.8000  215.8670 C.2    42  GLY42       0.2611
     26  O        206.1010  183.7300  215.1810 O.2    42  GLY42      -0.2717
     27  N        207.7800  182.7430  216.3070 N.am   43  GLU43      -0.1979
     28  CA       208.7270  183.7730  215.9320 C.3    43  GLU43       0.1602
     29  C        209.2340  183.5980  214.5160 C.2    43  GLU43       0.2287
     30  O        209.7050  184.5720  213.9280 O.2    43  GLU43      -0.2864
     31  CB       209.9100  183.7980  216.8910 C.3    43  GLU43       0.0415
     32  CG       209.5540  184.2220  218.2890 C.3    43  GLU43       0.1163
     33  CD       210.7640  184.2990  219.1850 C.2    43  GLU43       0.3649
     34  OE1      211.8770  184.0150  218.7020 O.co2  43  GLU43      -0.2457
     35  OE2      210.6030  184.6150  220.3800 O.co2  43  GLU43      -0.2457
     36  N        207.2730  182.8440  211.9650 N.3    45  ALA45      -0.1231
     37  CA       206.2890  183.5990  211.2050 C.3    45  ALA45       0.1694
     38  C        206.3520  185.0860  211.5030 C.2    45  ALA45       0.2591
     39  O        205.8360  185.8830  210.7190 O.2    45  ALA45      -0.2718
     40  CB       204.8870  183.0770  211.4950 C.3    45  ALA45       0.0304
     41  N        206.9540  185.4800  212.6210 N.am   46  LEU46      -0.1980
     42  CA       207.1640  186.8940  212.8920 C.3    46  LEU46       0.1596
     43  C        208.4260  187.4020  212.2190 C.2    46  LEU46       0.2287
     44  O        208.5060  188.5850  211.8800 O.2    46  LEU46      -0.2864
     45  CB       207.2170  187.1300  214.4060 C.3    46  LEU46       0.0297
     46  CG       207.2230  188.5170  215.0630 C.3    46  LEU46       0.0022
     47  CD1      208.5960  189.1310  215.2070 C.3    46  LEU46       0.0001
     48  CD2      206.3320  189.4510  214.2810 C.3    46  LEU46       0.0001
     49  N        207.0080  181.9840  205.7460 N.3   115  PHE115     -0.1241
     50  CA       205.9190  182.6160  206.4750 C.3   115  PHE115      0.1605
     51  C        204.7170  181.6900  206.5410 C.2   115  PHE115      0.2264
     52  O        204.3730  181.1890  207.6100 O.2   115  PHE115     -0.2867
     53  CB       205.5730  183.9400  205.8050 C.3   115  PHE115      0.0534
     54  CG       204.5020  184.7200  206.4870 C.ar  115  PHE115     -0.0203
     55  CD1      204.7150  185.2770  207.7290 C.ar  115  PHE115     -0.0042
     56  CD2      203.3110  184.9740  205.8450 C.ar  115  PHE115     -0.0042
     57  CE1      203.7370  186.0230  208.3380 C.ar  115  PHE115     -0.0003
     58  CE2      202.3360  185.7240  206.4510 C.ar  115  PHE115     -0.0003
     59  CZ       202.5500  186.2450  207.7000 C.ar  115  PHE115     -0.0000
     60  N        203.2330  179.4920  209.8800 N.3   119  ILE119     -0.1245
     61  CA       201.9350  179.7560  210.4800 C.3   119  ILE119      0.1561
     62  C        201.2030  178.4460  210.7000 C.2   119  ILE119      0.2260
     63  O        200.5230  178.2570  211.7120 O.2   119  ILE119     -0.2867
     64  CB       201.1250  180.7040  209.5860 C.3   119  ILE119      0.0252
     65  CG1      201.8750  181.9880  209.3590 C.3   119  ILE119      0.0019
     66  CG2      199.8520  181.0920  210.2290 C.3   119  ILE119      0.0019
     67  CD1      201.2330  182.8660  208.3660 C.3   119  ILE119      0.0001
     68  N        202.8020  176.6480  213.4640 N.3   122  HIS122     -0.1226
     69  CA       202.4330  177.3080  214.7030 C.3   122  HIS122      0.1752
     70  C        200.9860  177.0540  215.0780 C.2   122  HIS122      0.2595
     71  O        200.6790  177.0110  216.2660 O.2   122  HIS122     -0.2718
     72  CB       202.6780  178.8050  214.6120 C.3   122  HIS122      0.0759
     73  CG       202.5440  179.4990  215.9210 C.ar  122  HIS122      0.0818
     74  ND1      203.4230  179.2780  216.9570 N.ar  122  HIS122     -0.2268
     75  CD2      201.6470  180.4000  216.3730 C.ar  122  HIS122      0.1154
     76  CE1      203.0710  180.0090  217.9950 C.ar  122  HIS122      0.1986
     77  NE2      201.9960  180.6990  217.6660 N.ar  122  HIS122     -0.2212
     78  N        200.0910  176.8770  214.1000 N.am  123  LEU123     -0.1980
     79  CA       198.7260  176.4620  214.4140 C.3   123  LEU123      0.1596
     80  C        198.7130  175.0820  215.0430 C.2   123  LEU123      0.2287
     81  O        197.8800  174.7930  215.9050 O.2   123  LEU123     -0.2864
     82  CB       197.8550  176.4700  213.1540 C.3   123  LEU123      0.0297
     83  CG       196.3310  176.3100  213.2760 C.3   123  LEU123      0.0022
     84  CD1      195.6150  177.0850  212.2110 C.3   123  LEU123      0.0001
     85  CD2      195.8820  174.8830  213.1470 C.3   123  LEU123      0.0001
     86  N        201.0740  173.8180  216.9070 N.3   125  ARG125     -0.1231
     87  CA       201.5210  173.8890  218.2890 C.3   125  ARG125      0.1694
     88  C        200.4000  174.3920  219.1740 C.2   125  ARG125      0.2591
     89  O        200.2470  173.9380  220.3090 O.2   125  ARG125     -0.2718
     90  CB       202.7370  174.7990  218.4160 C.3   125  ARG125      0.0321
     91  CG       203.5810  174.5140  219.6400 C.3   125  ARG125      0.0489
     92  CD       203.2060  175.2610  220.9160 C.3   125  ARG125      0.2205
     93  NE       203.3160  176.7050  220.8080 N.pl3 125  ARG125     -0.0865
     94  CZ       202.7360  177.5440  221.6550 C.cat 125  ARG125      0.5346
     95  NH1      202.0060  177.0710  222.6480 N.pl3 125  ARG125      0.1354
     96  NH2      202.8700  178.8490  221.5020 N.pl3 125  ARG125      0.1354
     97  N        199.6100  175.3330  218.6660 N.am  126  ILE126     -0.1980
     98  CA       198.5320  175.9160  219.4510 C.3   126  ILE126      0.1595
     99  C        197.3950  174.9250  219.6190 C.2   126  ILE126      0.2287
    100  O        196.7800  174.8370  220.6880 O.2   126  ILE126     -0.2864
    101  CB       198.0670  177.2200  218.7850 C.3   126  ILE126      0.0276
    102  CG1      199.1930  178.2350  218.7840 C.3   126  ILE126      0.0022
    103  CG2      196.8840  177.7840  219.4630 C.3   126  ILE126      0.0022
    104  CD1      199.7490  178.4880  220.1000 C.3   126  ILE126      0.0001
    105  N        196.7220  175.7920  223.6270 N.3   131  ALA131     -0.1231
    106  CA       196.9830  177.1610  224.0390 C.3   131  ALA131      0.1694
    107  C        195.8510  178.1050  223.6920 C.2   131  ALA131      0.2592
    108  O        195.9850  179.3100  223.9000 O.2   131  ALA131     -0.2718
    109  CB       198.2750  177.6700  223.4080 C.3   131  ALA131      0.0304
    110  N        194.7440  177.5890  223.1770 N.am  132  PHE132     -0.1976
    111  CA       193.5950  178.3860  222.7900 C.3   132  PHE132      0.1639
    112  C        192.5110  178.4100  223.8510 C.2   132  PHE132      0.2290
    113  O        191.4030  178.8660  223.5690 O.2   132  PHE132     -0.2864
    114  CB       193.0190  177.8710  221.4690 C.3   132  PHE132      0.0560
    115  CG       192.6280  176.4190  221.4950 C.ar  132  PHE132     -0.0200
    116  CD1      191.3650  176.0300  221.8730 C.ar  132  PHE132     -0.0042
    117  CD2      193.5270  175.4450  221.1220 C.ar  132  PHE132     -0.0042
    118  CE1      191.0190  174.7270  221.9010 C.ar  132  PHE132     -0.0003
    119  CE2      193.1760  174.1310  221.1510 C.ar  132  PHE132     -0.0003
    120  CZ       191.9210  173.7770  221.5380 C.ar  132  PHE132     -0.0000
    121  N        192.6520  182.7870  226.0960 N.3   136  ARG136     -0.1245
    122  CA       193.2800  182.9590  224.7960 C.3   136  ARG136      0.1563
    123  C        192.3520  182.5220  223.6740 C.2   136  ARG136      0.2260
    124  O        192.8080  182.1340  222.6020 O.2   136  ARG136     -0.2867
    125  CB       194.5850  182.1790  224.7640 C.3   136  ARG136      0.0307
    126  CG       195.5190  182.6750  225.8140 C.3   136  ARG136      0.0489
    127  CD       196.6960  181.7840  226.0690 C.3   136  ARG136      0.2205
    128  NE       197.5020  182.3350  227.1460 N.pl3 136  ARG136     -0.0865
    129  CZ       197.2800  182.0970  228.4300 C.cat 136  ARG136      0.5346
    130  NH1      196.2900  181.3020  228.7850 N.pl3 136  ARG136      0.1354
    131  NH2      198.0570  182.6280  229.3570 N.pl3 136  ARG136      0.1354
    132  N        192.6350  185.1860  221.1080 N.3   139  ASN139     -0.1225
    133  CA       193.9440  185.2200  220.4780 C.3   139  ASN139      0.1785
    134  C        194.0530  184.1550  219.3970 C.2   139  ASN139      0.2597
    135  O        194.8680  184.2830  218.4810 O.2   139  ASN139     -0.2718
    136  CB       195.0270  185.0370  221.5300 C.3   139  ASN139      0.1169
    137  CG       196.3340  185.6060  221.1040 C.2   139  ASN139      0.2627
    138  OD1      196.4440  186.1910  220.0370 O.2   139  ASN139     -0.2716
    139  ND2      197.3380  185.4630  221.9420 N.am  139  ASN139     -0.0877
    140  N        193.2460  183.0970  219.5020 N.am  140  TRP140     -0.1976
    141  CA       193.0520  182.1690  218.3950 C.3   140  TRP140      0.1640
    142  C        192.3360  182.8450  217.2390 C.2   140  TRP140      0.2290
    143  O        192.6600  182.6020  216.0750 O.2   140  TRP140     -0.2864
    144  CB       192.2480  180.9610  218.8710 C.3   140  TRP140      0.0576
    145  CG       191.8630  179.9710  217.8080 C.ar  140  TRP140      0.0006
    146  CD1      190.7340  179.9960  217.0610 C.ar  140  TRP140      0.0946
    147  CD2      192.5410  178.7600  217.4560 C.ar  140  TRP140      0.0152
    148  NE1      190.6880  178.9170  216.2260 N.ar  140  TRP140     -0.2442
    149  CE2      191.7860  178.1370  216.4530 C.ar  140  TRP140      0.0810
    150  CE3      193.7240  178.1590  217.8720 C.ar  140  TRP140      0.0012
    151  CZ2      192.1730  176.9460  215.8630 C.ar  140  TRP140      0.0191
    152  CZ3      194.1050  176.9790  217.2830 C.ar  140  TRP140      0.0001
    153  CH2      193.3350  176.3850  216.2910 C.ar  140  TRP140      0.0015
    154  N        194.4450  185.2580  215.7000 N.3   143  GLY143     -0.1210
    155  CA       195.4410  184.4580  215.0180 C.3   143  GLY143      0.1956
    156  C        194.9240  183.8640  213.7240 C.2   143  GLY143      0.2612
    157  O        195.5200  184.0600  212.6670 O.2   143  GLY143     -0.2717
    158  N        193.7990  183.1490  213.7830 N.am  144  SER144     -0.1952
    159  CA       193.3110  182.3970  212.6310 C.3   144  SER144      0.1924
    160  C        192.8560  183.2740  211.4760 C.2   144  SER144      0.2314
    161  O        192.6740  182.7540  210.3750 O.2   144  SER144     -0.2863
    162  CB       192.1640  181.4950  213.0470 C.3   144  SER144      0.2116
    163  OG       191.0690  182.2790  213.4600 O.3   144  SER144     -0.2180
    164  N        194.9160  185.7760  210.6270 N.3   146  LEU146     -0.1231
    165  CA       196.2240  185.9890  210.0150 C.3   146  LEU146      0.1693
    166  C        196.6230  184.8280  209.1240 C.2   146  LEU146      0.2591
    167  O        197.4140  185.0110  208.1960 O.2   146  LEU146     -0.2718
    168  CB       197.2930  186.1980  211.0820 C.3   146  LEU146      0.0284
    169  CG       197.3350  187.5060  211.8390 C.3   146  LEU146      0.0019
    170  CD1      198.2200  187.3690  213.0310 C.3   146  LEU146      0.0001
    171  CD2      197.9370  188.4850  210.9020 C.3   146  LEU146      0.0001
    172  N        196.1120  183.6290  209.3960 N.am  147  LEU147     -0.1980
    173  CA       196.3640  182.5180  208.4900 C.3   147  LEU147      0.1596
    174  C        195.5340  182.6470  207.2240 C.2   147  LEU147      0.2287
    175  O        196.0150  182.3420  206.1320 O.2   147  LEU147     -0.2864
    176  CB       196.1000  181.1920  209.1990 C.3   147  LEU147      0.0297
    177  CG       196.2820  179.9020  208.4080 C.3   147  LEU147      0.0022
    178  CD1      196.9630  178.8940  209.2580 C.3   147  LEU147      0.0001
    179  CD2      194.9310  179.3430  208.0250 C.3   147  LEU147      0.0001
    180  N        198.8680  191.4330  213.6990 N.3   222  ILE222     -0.1245
    181  CA       200.0600  190.9760  214.4190 C.3   222  ILE222      0.1561
    182  C        200.3410  191.8790  215.6100 C.2   222  ILE222      0.2260
    183  O        200.6590  191.4070  216.7080 O.2   222  ILE222     -0.2867
    184  CB       201.2680  190.9060  213.4630 C.3   222  ILE222      0.0252
    185  CG1      201.1430  189.7300  212.5080 C.3   222  ILE222      0.0019
    186  CG2      202.5730  190.8020  214.1980 C.3   222  ILE222      0.0019
    187  CD1      202.1780  189.7310  211.4250 C.3   222  ILE222      0.0001
    188  N        198.2730  190.9420  218.3600 N.3   225  HIS225     -0.1226
    189  CA       198.4420  189.5130  218.5830 C.3   225  HIS225      0.1752
    190  C        199.6500  189.2150  219.4460 C.2   225  HIS225      0.2595
    191  O        199.5680  188.3990  220.3670 O.2   225  HIS225     -0.2718
    192  CB       198.5940  188.8210  217.2350 C.3   225  HIS225      0.0759
    193  CG       198.6290  187.3410  217.3040 C.ar  225  HIS225      0.0818
    194  ND1      197.4970  186.5800  217.4760 N.ar  225  HIS225     -0.2268
    195  CD2      199.6550  186.4770  217.1930 C.ar  225  HIS225      0.1154
    196  CE1      197.8280  185.3060  217.4680 C.ar  225  HIS225      0.1986
    197  NE2      199.1310  185.2200  217.3040 N.ar  225  HIS225     -0.2212
    198  N        200.7810  189.8430  219.1490 N.am  226  LEU226     -0.1980
    199  CA       201.9330  189.8140  220.0290 C.3   226  LEU226      0.1596
    200  C        201.7410  190.7060  221.2430 C.2   226  LEU226      0.2287
    201  O        202.4560  190.5430  222.2330 O.2   226  LEU226     -0.2864
    202  CB       203.1860  190.2390  219.2670 C.3   226  LEU226      0.0297
    203  CG       203.9640  189.2130  218.4450 C.3   226  LEU226      0.0022
    204  CD1      203.2460  188.7350  217.2160 C.3   226  LEU226      0.0001
    205  CD2      205.2640  189.8300  218.0340 C.3   226  LEU226      0.0001
    206  N        199.9070  188.1630  223.8000 N.3   229  VAL229     -0.1245
    207  CA       200.8150  187.2470  224.4820 C.3   229  VAL229      0.1561
    208  C        201.8190  187.9630  225.3670 C.2   229  VAL229      0.2260
    209  O        202.4710  187.3190  226.1880 O.2   229  VAL229     -0.2867
    210  CB       201.5970  186.3680  223.4870 C.3   229  VAL229      0.0252
    211  CG1      200.6560  185.6190  222.5940 C.3   229  VAL229      0.0019
    212  CG2      202.5460  187.1970  222.6710 C.3   229  VAL229      0.0019
    213  N        200.0380  186.5750  229.9380 N.3   233  LYS233     -0.1231
    214  CA       201.3930  186.0900  229.7580 C.3   233  LYS233      0.1693
    215  C        201.3950  184.7290  229.0770 C.2   233  LYS233      0.2592
    216  O        200.3570  184.0990  228.8780 O.2   233  LYS233     -0.2718
    217  CB       202.1150  186.0330  231.0950 C.3   233  LYS233      0.0285
    218  CG       202.2890  187.3870  231.7190 C.3   233  LYS233      0.0035
    219  CD       202.9810  187.3000  233.0480 C.3   233  LYS233      0.0206
    220  CE       203.1680  188.6790  233.6160 C.3   233  LYS233      0.1093
    221  NZ       201.8510  189.2970  233.8950 N.3   233  LYS233     -0.1314
    222  N        202.5820  184.2950  228.6890 N.am  234  HIS234     -0.1962
    223  CA       202.7070  183.1130  227.8610 C.3   234  HIS234      0.1787
    224  C        202.4510  181.8620  228.6910 C.2   234  HIS234      0.2620
    225  O        202.6830  181.8380  229.8980 O.2   234  HIS234     -0.2715
    226  CB       204.1000  183.0750  227.2490 C.3   234  HIS234      0.0785
    227  CG       204.2110  182.1950  226.0540 C.ar  234  HIS234      0.0821
    228  ND1      204.3640  180.8320  226.1490 N.ar  234  HIS234     -0.2267
    229  CD2      204.2220  182.4850  224.7360 C.ar  234  HIS234      0.1154
    230  CE1      204.4380  180.3170  224.9380 C.ar  234  HIS234      0.1986
    231  NE2      204.3590  181.2990  224.0630 N.ar  234  HIS234     -0.2212
    232  N        201.9350  180.8240  228.0390 N.am  235  THR235     -0.1951
    233  CA       201.6540  179.5690  228.7160 C.3   235  THR235      0.1897
    234  C        202.9370  178.7840  228.9380 C.2   235  THR235      0.2313
    235  O        204.0200  179.1790  228.5110 O.2   235  THR235     -0.2863
    236  CB       200.6770  178.7300  227.9110 C.3   235  THR235      0.1794
    237  OG1      201.2130  178.5220  226.6060 O.3   235  THR235     -0.2208
    238  CG2      199.3800  179.4100  227.7860 C.3   235  THR235      0.0378
@<TRIPOS>BOND
     1    49    50    1
     2    53    50    1
     3    53    54    1
     4    56    58   ar
     5    56    54   ar
     6   175   174    2
     7    58    59   ar
     8    50    51    1
     9    54    55   ar
    10    51    52    2
    11   174   173    1
    12    59    57   ar
    13    55    57   ar
    14   179   177    1
    15   167   166    2
    16    67    65    1
    17   177   176    1
    18   177   178    1
    19   173   176    1
    20   173   172    1
    21   166   172   am
    22   166   165    1
    23    65    64    1
    24    64    66    1
    25    64    61    1
    26    60    61    1
    27   165   164    1
    28   165   168    1
    29   161   160    2
    30    61    62    1
    31    62    63    2
    32    39    38    2
    33   171   169    1
    34   168   169    1
    35    37    40    1
    36    37    38    1
    37    37    36    1
    38   187   185    1
    39   160   159    1
    40    38    41   am
    41   169   170    1
    42    44    43    2
    43    84    83    1
    44    43    42    1
    45   185   184    1
    46    41    42    1
    47   159   162    1
    48   159   158    1
    49   157   156    2
    50    42    45    1
    51   162   163    1
    52    85    83    1
    53    82    83    1
    54    82    79    1
    55   184   186    1
    56   184   181    1
    57    68    69    1
    58   180   181    1
    59   156   158   am
    60   156   155    1
    61    30    29    2
    62    78    79    1
    63    78    70   am
    64    48    46    1
    65    45    46    1
    66    79    80    1
    67   181   182    1
    68    29    28    1
    69    72    69    1
    70    72    73    1
    71    69    70    1
    72   155   154    1
    73    80    81    2
    74    46    47    1
    75    70    71    2
    76    26    25    2
    77   182   183    2
    78   151   153   ar
    79   151   149   ar
    80    25    24    1
    81    25    27   am
    82    73    75   ar
    83    73    74   ar
    84    28    27    1
    85    28    31    1
    86   143   142    2
    87   148   149   ar
    88   148   146   ar
    89    24    23    1
    90   153   152   ar
    91    75    77   ar
    92   149   147   ar
    93    31    32    1
    94    86    87    1
    95    74    76   ar
    96   146   145   ar
    97   195   197   ar
    98   195   193   ar
    99   204   203    1
   100   192   193    1
   101   192   189    1
   102   142   141    1
   103   152   150   ar
   104   197   196   ar
   105   193   194   ar
   106   147   145   ar
   107   147   150   ar
   108   196   194   ar
   109    77    76   ar
   110   145   144    1
   111   205   203    1
   112    32    33    1
   113    87    90    1
   114    87    88    1
   115   188   189    1
   116   141   144    1
   117   141   140    1
   118    90    91    1
   119   203   202    1
   120   135   134    2
   121   189   190    1
   122    97    88   am
   123    97    98    1
   124    34    33   ar
   125   102   101    1
   126   102   104    1
   127   101    98    1
   128   101   103    1
   129   198   190   am
   130   198   199    1
   131    88    89    2
   132    33    35   ar
   133   202   199    1
   134   134   140   am
   135   134   133    1
   136   190   191    2
   137    98    99    1
   138    99   100    2
   139    91    92    1
   140   199   200    1
   141   138   137    2
   142   133   132    1
   143   133   136    1
   144    93    92    1
   145    93    94    2
   146    14    15    2
   147    14    13    1
   148   137   136    1
   149   137   139   am
   150   117   119   ar
   151   117   115   ar
   152   119   120   ar
   153   200   201    2
   154   114   115    1
   155   114   111    1
   156   115   116   ar
   157    96    94    1
   158    12    13    1
   159   120   118   ar
   160    94    95    1
   161    13    16    1
   162   116   118   ar
   163   211   210    1
   164   124   123    2
   165   212   210    1
   166   111   110    1
   167   111   112    1
   168   110   107   am
   169    16    17    1
   170   109   106    1
   171   210   207    1
   172   113   112    2
   173   105   106    1
   174   123   122    1
   175   107   108    2
   176   107   106    1
   177    18    17   ar
   178    18    20   ar
   179   206   207    1
   180   231   229   ar
   181   231   230   ar
   182    17    19   ar
   183   207   208    1
   184    20    22   ar
   185   229   227   ar
   186   125   122    1
   187   125   126    1
   188   122   121    1
   189   230   228   ar
   190   208   209    2
   191    19    21   ar
   192   126   127    1
   193    22    21   ar
   194   227   228   ar
   195   227   226    1
   196   127   128    1
   197    11     9   ar
   198    11    10   ar
   199     9     7   ar
   200   237   236    1
   201    10     8   ar
   202     7     6   ar
   203   128   129    2
   204     8     6   ar
   205     6     5    1
   206   226   223    1
   207     5     2    1
   208   238   236    1
   209   223   222    1
   210   223   224    1
   211   236   233    1
   212   232   224   am
   213   232   233    1
   214   129   130    1
   215   129   131    1
   216   235   234    2
   217   222   215   am
   218   224   225    2
   219   233   234    1
   220   216   215    2
   221     2     3    1
   222     2     1    1
   223   215   214    1
   224     3     4    2
   225   214   213    1
   226   214   217    1
   227   217   218    1
   228   218   219    1
   229   219   220    1
   230   220   221    1
