@<TRIPOS>MOLECULE
tmp/6hwhT00.pdb
 66 60 0 0 0
SMALL
GASTEIGER

@<TRIPOS>ATOM
      1  N        189.8760  296.7670  184.4410 N.3    25  GLY25      -0.1210
      2  CA       189.0300  296.8530  185.6160 C.3    25  GLY25       0.1956
      3  C        189.5160  296.0430  186.8060 C.2    25  GLY25       0.2612
      4  O        188.8190  295.9740  187.8210 O.2    25  GLY25      -0.2717
      5  N        190.6670  295.3790  186.6740 N.am   26  SER26      -0.1952
      6  CA       191.4730  294.9710  187.8180 C.3    26  SER26       0.1924
      7  C        191.9900  296.1670  188.6080 C.2    26  SER26       0.2314
      8  O        192.1670  296.0750  189.8250 O.2    26  SER26      -0.2863
      9  CB       192.6480  294.1310  187.3300 C.3    26  SER26       0.2116
     10  OG       193.5680  293.8780  188.3640 O.3    26  SER26      -0.2180
     11  N        189.1300  297.7980  190.7700 N.3    29  ALA29      -0.1231
     12  CA       188.5340  296.8800  191.7240 C.3    29  ALA29       0.1694
     13  C        189.5430  296.0710  192.5250 C.2    29  ALA29       0.2592
     14  O        189.4910  296.0800  193.7550 O.2    29  ALA29      -0.2718
     15  CB       187.5790  295.9460  190.9770 C.3    29  ALA29       0.0304
     16  N        190.4600  295.3570  191.8730 N.am   30  SER30      -0.1952
     17  CA       191.3020  294.4170  192.6090 C.3    30  SER30       0.1924
     18  C        192.4990  295.1090  193.2490 C.2    30  SER30       0.2314
     19  O        192.6640  295.0730  194.4710 O.2    30  SER30      -0.2863
     20  CB       191.7700  293.2930  191.6900 C.3    30  SER30       0.2116
     21  OG       192.6690  293.7920  190.7250 O.3    30  SER30      -0.2180
     22  N        191.3900  297.6800  196.0090 N.3    33  VAL33      -0.1245
     23  CA       191.0110  297.0900  197.2890 C.3    33  VAL33       0.1561
     24  C        192.1590  296.2740  197.8640 C.2    33  VAL33       0.2260
     25  O        192.4070  296.3030  199.0750 O.2    33  VAL33      -0.2867
     26  CB       189.7260  296.2570  197.1180 C.3    33  VAL33       0.0252
     27  CG1      189.3660  295.5230  198.3890 C.3    33  VAL33       0.0019
     28  CG2      188.5770  297.1610  196.7190 C.3    33  VAL33       0.0019
     29  N        193.6910  296.5830  201.8910 N.3    37  VAL37      -0.1245
     30  CA       193.8600  295.5250  202.8780 C.3    37  VAL37       0.1561
     31  C        195.3350  295.3570  203.2310 C.2    37  VAL37       0.2260
     32  O        195.6800  295.0860  204.3850 O.2    37  VAL37      -0.2867
     33  CB       193.2200  294.2270  202.3590 C.3    37  VAL37       0.0252
     34  CG1      193.3560  293.0980  203.3590 C.3    37  VAL37       0.0019
     35  CG2      191.7660  294.4700  202.0450 C.3    37  VAL37       0.0019
     36  N        181.8960  296.2990  199.9140 N.3    75  PRO75      -0.2116
     37  CA       182.2020  295.1440  199.0510 C.3    75  PRO75       0.1372
     38  C        181.0260  294.6680  198.2210 C.2    75  PRO75       0.2244
     39  O        181.2450  293.9590  197.2350 O.2    75  PRO75      -0.2868
     40  CB       182.6500  294.0610  200.0410 C.3    75  PRO75       0.0268
     41  CG       183.1410  294.7930  201.1920 C.3    75  PRO75       0.0207
     42  CD       182.2320  295.9700  201.3150 C.3    75  PRO75       0.0892
     43  N        180.7360  297.0110  194.8620 N.3    78  ILE78      -0.1231
     44  CA       181.7780  296.7630  193.8730 C.3    78  ILE78       0.1692
     45  C        181.4340  295.5330  193.0380 C.2    78  ILE78       0.2591
     46  O        181.7210  295.4860  191.8370 O.2    78  ILE78      -0.2718
     47  CB       183.1450  296.6430  194.5760 C.3    78  ILE78       0.0266
     48  CG1      183.4970  297.9560  195.2640 C.3    78  ILE78       0.0019
     49  CG2      184.2580  296.3190  193.6050 C.3    78  ILE78       0.0020
     50  CD1      184.7070  297.8610  196.1590 C.3    78  ILE78       0.0001
     51  N        180.7600  294.5490  193.6260 N.am   79  ILE79      -0.1980
     52  CA       180.2710  293.4200  192.8430 C.3    79  ILE79       0.1595
     53  C        178.8420  293.7040  192.3940 C.2    79  ILE79       0.2287
     54  O        178.1480  292.8150  191.8930 O.2    79  ILE79      -0.2864
     55  CB       180.3970  292.0950  193.6230 C.3    79  ILE79       0.0276
     56  CG1      179.6630  292.1330  194.9680 C.3    79  ILE79       0.0022
     57  CG2      181.8590  291.7470  193.8350 C.3    79  ILE79       0.0022
     58  CD1      178.2790  291.4990  194.9770 C.3    79  ILE79       0.0001
     59  N        180.3340  295.4650  189.1400 N.3    82  LEU82      -0.1245
     60  CA       180.4100  294.2370  188.3730 C.3    82  LEU82       0.1561
     61  C        179.0780  293.5080  188.4720 C.2    82  LEU82       0.2260
     62  O        178.1890  293.8980  189.2240 O.2    82  LEU82      -0.2867
     63  CB       181.5480  293.3450  188.8440 C.3    82  LEU82       0.0270
     64  CG       182.9440  293.7700  188.4220 C.3    82  LEU82       0.0019
     65  CD1      183.9630  292.8210  188.9970 C.3    82  LEU82       0.0001
     66  CD2      183.0220  293.7640  186.9200 C.3    82  LEU82       0.0001
@<TRIPOS>BOND
     1     1     2    1
     2     2     3    1
     3     5     3   am
     4     5     6    1
     5     3     4    2
     6    66    64    1
     7     9     6    1
     8     9    10    1
     9     6     7    1
    10    60    61    1
    11    60    63    1
    12    60    59    1
    13    64    63    1
    14    64    65    1
    15    61    62    2
    16     7     8    2
    17    21    20    1
    18    11    12    1
    19    15    12    1
    20    20    17    1
    21    12    13    1
    22    46    45    2
    23    16    13   am
    24    16    17    1
    25    54    53    2
    26    53    52    1
    27    13    14    2
    28    17    18    1
    29    52    55    1
    30    52    51    1
    31    45    51   am
    32    45    44    1
    33    18    19    2
    34    49    47    1
    35    55    57    1
    36    55    56    1
    37    44    47    1
    38    44    43    1
    39    47    48    1
    40    56    58    1
    41    48    50    1
    42    22    23    1
    43    28    26    1
    44    26    23    1
    45    26    27    1
    46    39    38    2
    47    23    24    1
    48    24    25    2
    49    38    37    1
    50    37    36    1
    51    37    40    1
    52    36    42    1
    53    40    41    1
    54    41    42    1
    55    29    30    1
    56    35    33    1
    57    33    30    1
    58    33    34    1
    59    30    31    1
    60    31    32    2
