@<TRIPOS>MOLECULE
tmp/6hwhX00.pdb
 126 118 0 0 0
SMALL
GASTEIGER

@<TRIPOS>ATOM
      1  N        178.2600  255.5750  227.6390 N.3    84  PHE84      -0.1241
      2  CA       179.2790  254.6160  227.2540 C.3    84  PHE84       0.1605
      3  C        180.1340  255.1430  226.1130 C.2    84  PHE84       0.2264
      4  O        179.6340  255.7670  225.1780 O.2    84  PHE84      -0.2867
      5  CB       178.6420  253.2940  226.8450 C.3    84  PHE84       0.0534
      6  CG       179.6270  252.2420  226.5000 C.ar   84  PHE84      -0.0203
      7  CD1      180.3310  251.5970  227.4900 C.ar   84  PHE84      -0.0042
      8  CD2      179.8540  251.8950  225.1870 C.ar   84  PHE84      -0.0042
      9  CE1      181.2440  250.6310  227.1790 C.ar   84  PHE84      -0.0003
     10  CE2      180.7650  250.9320  224.8720 C.ar   84  PHE84      -0.0003
     11  CZ       181.4600  250.2990  225.8710 C.ar   84  PHE84      -0.0000
     12  N        183.6340  253.5670  223.8140 N.3    86  ALA86      -0.1245
     13  CA       184.5450  252.4540  223.6560 C.3    86  ALA86       0.1562
     14  C        185.9420  252.9000  224.0520 C.2    86  ALA86       0.2260
     15  O        186.4840  253.8150  223.4250 O.2    86  ALA86      -0.2867
     16  CB       184.5290  251.9620  222.2270 C.3    86  ALA86       0.0290
     17  N        187.7170  246.8930  209.7710 N.3    95  ILE95      -0.1245
     18  CA       186.6360  247.2340  208.8500 C.3    95  ILE95       0.1561
     19  C        187.1810  248.0340  207.6820 C.2    95  ILE95       0.2260
     20  O        186.7200  247.8880  206.5440 O.2    95  ILE95      -0.2867
     21  CB       185.5230  248.0000  209.5820 C.3    95  ILE95       0.0252
     22  CG1      185.0180  247.1830  210.7500 C.3    95  ILE95       0.0019
     23  CG2      184.3480  248.2520  208.6790 C.3    95  ILE95       0.0019
     24  CD1      184.0360  247.9080  211.5660 C.3    95  ILE95       0.0001
     25  N        186.8270  246.9150  203.8890 N.3    99  PHE99      -0.1241
     26  CA       186.1910  247.7150  202.8580 C.3    99  PHE99       0.1605
     27  C        187.1800  248.1270  201.7820 C.2    99  PHE99       0.2264
     28  O        186.7760  248.3720  200.6430 O.2    99  PHE99      -0.2867
     29  CB       185.5240  248.9350  203.4850 C.3    99  PHE99       0.0534
     30  CG       184.8120  249.7960  202.5030 C.ar   99  PHE99      -0.0203
     31  CD1      183.6420  249.3670  201.9160 C.ar   99  PHE99      -0.0042
     32  CD2      185.3110  251.0330  202.1640 C.ar   99  PHE99      -0.0042
     33  CE1      182.9850  250.1590  201.0030 C.ar   99  PHE99      -0.0003
     34  CE2      184.6560  251.8300  201.2540 C.ar   99  PHE99      -0.0003
     35  CZ       183.4910  251.3920  200.6730 C.ar   99  PHE99      -0.0000
     36  N        187.4020  245.1260  199.5530 N.3   102  ALA102     -0.1231
     37  CA       186.2440  245.0180  198.6830 C.3   102  ALA102      0.1694
     38  C        186.2350  246.1030  197.6260 C.2   102  ALA102      0.2591
     39  O        185.4140  246.0480  196.7090 O.2   102  ALA102     -0.2718
     40  CB       184.9490  245.0830  199.4920 C.3   102  ALA102      0.0304
     41  N        187.1300  247.0850  197.7400 N.am  103  ALA103     -0.1980
     42  CA       187.2480  248.1630  196.7780 C.3   103  ALA103      0.1597
     43  C        188.4550  248.0380  195.8720 C.2   103  ALA103      0.2287
     44  O        188.4830  248.6830  194.8240 O.2   103  ALA103     -0.2864
     45  CB       187.3150  249.5110  197.4920 C.3   103  ALA103      0.0319
     46  N        186.6840  245.8270  193.3710 N.3   106  ALA106     -0.1245
     47  CA       185.8330  246.5400  192.4350 C.3   106  ALA106      0.1562
     48  C        186.6300  247.4510  191.5190 C.2   106  ALA106      0.2260
     49  O        186.0910  247.9260  190.5150 O.2   106  ALA106     -0.2867
     50  CB       184.7770  247.3500  193.1860 C.3   106  ALA106      0.0290
     51  N        185.7410  240.8740  195.3210 N.3   114  ILE114     -0.1245
     52  CA       184.6290  241.6480  195.8600 C.3   114  ILE114      0.1561
     53  C        183.9030  240.8420  196.9220 C.2   114  ILE114      0.2260
     54  O        183.6930  241.3120  198.0430 O.2   114  ILE114     -0.2867
     55  CB       183.6510  242.0570  194.7470 C.3   114  ILE114      0.0252
     56  CG1      184.3360  242.8960  193.6870 C.3   114  ILE114      0.0019
     57  CG2      182.5090  242.8470  195.3300 C.3   114  ILE114      0.0019
     58  CD1      183.4860  243.1140  192.4670 C.3   114  ILE114      0.0001
     59  N        183.4330  241.6800  200.7430 N.3   118  VAL118     -0.1245
     60  CA       182.1460  241.9350  201.3820 C.3   118  VAL118      0.1561
     61  C        181.9560  241.0150  202.5800 C.2   118  VAL118      0.2260
     62  O        181.4570  241.4350  203.6310 O.2   118  VAL118     -0.2867
     63  CB       181.0160  241.7840  200.3470 C.3   118  VAL118      0.0252
     64  CG1      179.6570  241.8100  200.9970 C.3   118  VAL118      0.0019
     65  CG2      181.1000  242.8950  199.3370 C.3   118  VAL118      0.0019
     66  N        183.7720  242.4400  205.3070 N.3   121  VAL121     -0.1231
     67  CA       183.1300  243.6220  205.8750 C.3   121  VAL121      0.1692
     68  C        182.1090  243.2160  206.9230 C.2   121  VAL121      0.2591
     69  O        182.0630  243.7960  208.0120 O.2   121  VAL121     -0.2718
     70  CB       182.4980  244.4890  204.7700 C.3   121  VAL121      0.0266
     71  CG1      181.6170  245.5560  205.3560 C.3   121  VAL121      0.0020
     72  CG2      183.5670  245.1700  203.9820 C.3   121  VAL121      0.0020
     73  N        181.3200  242.1780  206.6390 N.am  122  ILE122     -0.1980
     74  CA       180.2490  241.7820  207.5470 C.3   122  ILE122      0.1595
     75  C        180.8170  241.2030  208.8370 C.2   122  ILE122      0.2287
     76  O        180.3920  241.5890  209.9270 O.2   122  ILE122     -0.2864
     77  CB       179.2970  240.8020  206.8490 C.3   122  ILE122      0.0276
     78  CG1      178.7200  241.4460  205.5970 C.3   122  ILE122      0.0022
     79  CG2      178.1620  240.4420  207.7600 C.3   122  ILE122      0.0022
     80  CD1      177.9950  240.4800  204.7110 C.3   122  ILE122      0.0001
     81  N        182.1780  244.0710  210.7700 N.3   125  VAL125     -0.1245
     82  CA       181.1030  244.8720  211.3430 C.3   125  VAL125      0.1561
     83  C        180.3230  244.0570  212.3700 C.2   125  VAL125      0.2260
     84  O        179.8900  244.6030  213.3890 O.2   125  VAL125     -0.2867
     85  CB       180.2180  245.4400  210.2200 C.3   125  VAL125      0.0252
     86  CG1      178.9630  246.0720  210.7450 C.3   125  VAL125      0.0019
     87  CG2      180.9880  246.4930  209.4750 C.3   125  VAL125      0.0019
     88  N        182.4990  244.6620  215.4680 N.3   128  LEU128     -0.1231
     89  CA       182.4210  245.9750  216.1010 C.3   128  LEU128      0.1693
     90  C        181.0500  246.2540  216.6970 C.2   128  LEU128      0.2591
     91  O        180.9480  246.9800  217.6900 O.2   128  LEU128     -0.2718
     92  CB       182.8200  247.0520  215.0880 C.3   128  LEU128      0.0284
     93  CG       182.7820  248.5340  215.4580 C.3   128  LEU128      0.0019
     94  CD1      183.9740  249.2620  214.9570 C.3   128  LEU128      0.0001
     95  CD2      181.5840  249.1670  214.8170 C.3   128  LEU128      0.0001
     96  N        179.9970  245.6810  216.1240 N.am  129  VAL129     -0.1980
     97  CA       178.6600  245.8730  216.6640 C.3   129  VAL129      0.1595
     98  C        178.4280  244.9700  217.8680 C.2   129  VAL129      0.2287
     99  O        177.8840  245.4050  218.8870 O.2   129  VAL129     -0.2864
    100  CB       177.6280  245.6490  215.5470 C.3   129  VAL129      0.0276
    101  CG1      176.2460  245.6210  216.0820 C.3   129  VAL129      0.0022
    102  CG2      177.7250  246.7690  214.5570 C.3   129  VAL129      0.0022
    103  N        180.6740  244.9630  222.6240 N.3   132  TYR132     -0.1227
    104  CA       180.3580  245.1780  224.0230 C.3   132  TYR132      0.1736
    105  C        179.0750  244.4810  224.4390 C.2   132  TYR132      0.2595
    106  O        178.5020  244.8210  225.4770 O.2   132  TYR132     -0.2718
    107  CB       180.3070  246.6720  224.3270 C.3   132  TYR132      0.0548
    108  CG       181.6590  247.2990  224.1480 C.ar  132  TYR132     -0.0200
    109  CD1      182.6480  247.1260  225.0950 C.ar  132  TYR132     -0.0009
    110  CD2      181.9550  248.0390  223.0200 C.ar  132  TYR132     -0.0009
    111  CE1      183.8890  247.6820  224.9280 C.ar  132  TYR132      0.0417
    112  CE2      183.1930  248.5950  222.8450 C.ar  132  TYR132      0.0417
    113  CZ       184.1540  248.4120  223.8010 C.ar  132  TYR132      0.1957
    114  OH       185.3930  248.9670  223.6290 O.3   132  TYR132     -0.2866
    115  N        178.6280  243.4930  223.6630 N.am  133  TYR133     -0.1976
    116  CA       177.5370  242.6020  224.0480 C.3   133  TYR133      0.1639
    117  C        177.9760  241.1790  223.7370 C.2   133  TYR133      0.2290
    118  O        177.6440  240.6680  222.6740 O.2   133  TYR133     -0.2864
    119  CB       176.2870  242.9340  223.2910 C.3   133  TYR133      0.0560
    120  CG       175.8080  244.3390  223.4360 C.ar  133  TYR133     -0.0198
    121  CD1      175.0000  244.7150  224.4900 C.ar  133  TYR133     -0.0009
    122  CD2      176.1560  245.2920  222.5030 C.ar  133  TYR133     -0.0009
    123  CE1      174.5600  246.0050  224.6080 C.ar  133  TYR133      0.0417
    124  CE2      175.7320  246.5730  222.6160 C.ar  133  TYR133      0.0417
    125  CZ       174.9280  246.9260  223.6580 C.ar  133  TYR133      0.1957
    126  OH       174.5090  248.2220  223.7500 O.3   133  TYR133     -0.2866
@<TRIPOS>BOND
     1    49    48    2
     2    48    47    1
     3    47    50    1
     4    47    46    1
     5    58    56    1
     6    56    55    1
     7    55    57    1
     8    55    52    1
     9    44    43    2
    10    51    52    1
    11    52    53    1
    12    43    42    1
    13    39    38    2
    14    42    45    1
    15    42    41    1
    16    53    54    2
    17    38    41   am
    18    38    37    1
    19    37    40    1
    20    37    36    1
    21    65    63    1
    22    63    64    1
    23    63    60    1
    24    28    27    2
    25    35    33   ar
    26    35    34   ar
    27    59    60    1
    28    33    31   ar
    29    34    32   ar
    30    60    61    1
    31    27    26    1
    32    31    30   ar
    33    32    30   ar
    34    30    29    1
    35    61    62    2
    36    26    29    1
    37    26    25    1
    38    72    70    1
    39    80    78    1
    40    70    71    1
    41    70    67    1
    42    66    67    1
    43    78    77    1
    44    67    68    1
    45    20    19    2
    46    73    68   am
    47    73    74    1
    48    77    74    1
    49    77    79    1
    50    68    69    2
    51    74    75    1
    52    19    18    1
    53    23    21    1
    54    75    76    2
    55    18    21    1
    56    18    17    1
    57    87    85    1
    58    21    22    1
    59    85    86    1
    60    85    82    1
    61    22    24    1
    62    81    82    1
    63    82    83    1
    64    83    84    2
    65   102   100    1
    66    95    93    1
    67    94    93    1
    68    92    93    1
    69    92    89    1
    70    88    89    1
    71   100   101    1
    72   100    97    1
    73    89    90    1
    74    96    97    1
    75    96    90   am
    76    97    98    1
    77    90    91    2
    78    98    99    2
    79    16    13    1
    80   122   124   ar
    81   122   120   ar
    82   124   125   ar
    83   103   104    1
    84   118   117    2
    85   112   110   ar
    86   112   113   ar
    87   110   108   ar
    88   119   120    1
    89   119   116    1
    90    15    14    2
    91   120   121   ar
    92   114   113    1
    93    13    12    1
    94    13    14    1
    95   125   126    1
    96   125   123   ar
    97   115   116    1
    98   115   105   am
    99   117   116    1
   100   113   111   ar
   101   104   107    1
   102   104   105    1
   103   108   107    1
   104   108   109   ar
   105   105   106    2
   106   121   123   ar
   107    10     8   ar
   108    10    11   ar
   109   111   109   ar
   110     4     3    2
   111     8     6   ar
   112    11     9   ar
   113     3     2    1
   114     6     5    1
   115     6     7   ar
   116     5     2    1
   117     9     7   ar
   118     2     1    1
