@<TRIPOS>MOLECULE
tmp/6hwhM04.pdb
 108 104 0 0 0
SMALL
GASTEIGER

@<TRIPOS>ATOM
      1  N        199.7340  168.3970  227.5240 N.3   365  ARG365     -0.1245
      2  CA       200.6260  167.6840  226.6400 C.3   365  ARG365      0.1563
      3  C        199.7930  166.8930  225.6390 C.2   365  ARG365      0.2260
      4  O        198.8200  166.2480  226.0340 O.2   365  ARG365     -0.2867
      5  CB       201.4860  166.7770  227.5040 C.3   365  ARG365      0.0307
      6  CG       202.7150  166.2330  226.9050 C.3   365  ARG365      0.0489
      7  CD       203.3500  165.3490  227.9350 C.3   365  ARG365      0.2205
      8  NE       204.5590  164.7000  227.4620 N.pl3 365  ARG365     -0.0865
      9  CZ       205.1630  163.7230  228.1190 C.cat 365  ARG365      0.5346
     10  NH1      206.2630  163.1760  227.6380 N.pl3 365  ARG365      0.1354
     11  NH2      204.6410  163.2730  229.2450 N.pl3 365  ARG365      0.1354
     12  N        199.6430  164.1440  224.1730 N.3   367  ARG367     -0.1245
     13  CA       199.2460  162.7600  224.3640 C.3   367  ARG367      0.1563
     14  C        198.1990  162.6140  225.4480 C.2   367  ARG367      0.2260
     15  O        197.5710  161.5570  225.5460 O.2   367  ARG367     -0.2867
     16  CB       200.4480  161.8830  224.7200 C.3   367  ARG367      0.0307
     17  CG       200.9910  162.0890  226.1090 C.3   367  ARG367      0.0489
     18  CD       202.2200  161.2580  226.3370 C.3   367  ARG367      0.2205
     19  NE       203.3520  161.7780  225.5890 N.pl3 367  ARG367     -0.0865
     20  CZ       204.5210  161.1620  225.4720 C.cat 367  ARG367      0.5346
     21  NH1      204.7160  159.9900  226.0490 N.pl3 367  ARG367      0.1354
     22  NH2      205.4940  161.7150  224.7680 N.pl3 367  ARG367      0.1354
     23  N        194.2040  155.4770  214.3360 N.3   424  VAL424     -0.1245
     24  CA       195.6120  155.1910  214.5740 C.3   424  VAL424      0.1561
     25  C        196.2930  156.3200  215.3370 C.2   424  VAL424      0.2260
     26  O        197.4950  156.2390  215.6180 O.2   424  VAL424     -0.2867
     27  CB       196.3090  154.8810  213.2300 C.3   424  VAL424      0.0252
     28  CG1      196.6700  156.1440  212.4790 C.3   424  VAL424      0.0019
     29  CG2      197.4950  153.9390  213.4020 C.3   424  VAL424      0.0019
     30  N        197.1130  155.7490  219.4920 N.3   428  TRP428     -0.1241
     31  CA       198.5210  156.0540  219.6770 C.3   428  TRP428      0.1605
     32  C        198.7350  156.9630  220.8690 C.2   428  TRP428      0.2264
     33  O        199.6710  156.7560  221.6410 O.2   428  TRP428     -0.2867
     34  CB       199.0870  156.7280  218.4280 C.3   428  TRP428      0.0550
     35  CG       200.5510  156.9980  218.4620 C.ar  428  TRP428      0.0003
     36  CD1      201.1570  158.0880  218.9900 C.ar  428  TRP428      0.0946
     37  CD2      201.5810  156.2440  217.8290 C.ar  428  TRP428      0.0152
     38  NE1      202.5070  158.0250  218.8030 N.ar  428  TRP428     -0.2442
     39  CE2      202.7940  156.9030  218.0810 C.ar  428  TRP428      0.0810
     40  CE3      201.6010  155.0600  217.1000 C.ar  428  TRP428      0.0012
     41  CZ2      204.0090  156.4260  217.6350 C.ar  428  TRP428      0.0191
     42  CZ3      202.8120  154.5800  216.6590 C.ar  428  TRP428      0.0001
     43  CH2      204.0020  155.2640  216.9270 C.ar  428  TRP428      0.0015
     44  N        200.7940  156.1710  224.3340 N.3   432  LEU432     -0.1245
     45  CA       201.8740  156.9820  224.8680 C.3   432  LEU432      0.1561
     46  C        201.6450  157.3090  226.3290 C.2   432  LEU432      0.2260
     47  O        202.6100  157.4970  227.0730 O.2   432  LEU432     -0.2867
     48  CB       202.0160  158.2660  224.0710 C.3   432  LEU432      0.0270
     49  CG       202.5450  158.1480  222.6590 C.3   432  LEU432      0.0019
     50  CD1      202.4050  159.4670  222.0290 C.3   432  LEU432      0.0001
     51  CD2      203.9780  157.8130  222.7360 C.3   432  LEU432      0.0001
     52  N        202.8420  154.3470  228.2380 N.3   435  SER435     -0.1217
     53  CA       204.2910  154.2970  228.3310 C.3   435  SER435      0.1889
     54  C        204.8090  155.2260  229.4170 C.2   435  SER435      0.2288
     55  O        205.8960  154.9970  229.9540 O.2   435  SER435     -0.2866
     56  CB       204.9130  154.6560  226.9900 C.3   435  SER435      0.2089
     57  OG       204.6370  156.0040  226.6700 O.3   435  SER435     -0.2183
     58  N        207.3180  165.4150  231.5620 N.3   482  PRO482     -0.2102
     59  CA       207.7870  164.7290  230.3490 C.3   482  PRO482      0.1504
     60  C        208.3350  163.3270  230.5770 C.2   482  PRO482      0.2576
     61  O        208.2810  162.5260  229.6360 O.2   482  PRO482     -0.2718
     62  CB       208.8660  165.6760  229.8120 C.3   482  PRO482      0.0282
     63  CG       208.4730  166.9980  230.3280 C.3   482  PRO482      0.0208
     64  CD       207.9310  166.7440  231.6970 C.3   482  PRO482      0.0893
     65  N        208.8740  163.0120  231.7740 N.am  483  LEU483     -0.1967
     66  CA       209.2620  161.6580  232.1910 C.3   483  LEU483      0.1713
     67  C        210.3230  160.9920  231.3230 C.2   483  LEU483      0.2458
     68  O        209.9610  160.2750  230.3860 O.2   483  LEU483     -0.2730
     69  CB       208.0470  160.7360  232.2630 C.3   483  LEU483      0.0310
     70  CG       207.0650  161.1250  233.3450 C.3   483  LEU483      0.0022
     71  CD1      205.8930  160.1890  233.3270 C.3   483  LEU483      0.0001
     72  CD2      207.7700  161.0950  234.6700 C.3   483  LEU483      0.0001
     73  N        211.6120  161.2650  231.5420 N.am  484  PRO484     -0.2716
     74  CA       212.6670  160.7100  230.6770 C.3   484  PRO484      0.1536
     75  C        212.7070  159.1860  230.6620 C.2   484  PRO484      0.2598
     76  O        212.6860  158.5350  231.7050 O.2   484  PRO484     -0.2715
     77  CB       213.9460  161.2850  231.2870 C.3   484  PRO484      0.0310
     78  CG       213.6060  161.5020  232.7090 C.3   484  PRO484      0.0237
     79  CD       212.1710  161.9160  232.7360 C.3   484  PRO484      0.0939
     80  N        212.7690  158.6230  229.4540 N.am  485  LYS485     -0.1964
     81  CA       212.7260  157.1820  229.2420 C.3   485  LYS485      0.1728
     82  C        214.0980  156.5360  229.1690 C.2   485  LYS485      0.2616
     83  O        214.1900  155.3120  229.2780 O.2   485  LYS485     -0.2715
     84  CB       211.9780  156.8460  227.9490 C.3   485  LYS485      0.0311
     85  CG       210.5270  156.4410  228.1160 C.3   485  LYS485      0.0038
     86  CD       209.6790  157.5710  228.6330 C.3   485  LYS485      0.0206
     87  CE       208.2870  157.1060  228.9740 C.3   485  LYS485      0.1093
     88  NZ       207.6090  156.5490  227.7870 N.3   485  LYS485     -0.1314
     89  N        215.1560  157.3050  228.9630 N.am  486  ARG486     -0.1977
     90  CA       216.4800  156.7500  228.7530 C.3   486  ARG486      0.1597
     91  C        217.4020  157.1670  229.8880 C.2   486  ARG486      0.2287
     92  O        217.2400  158.2390  230.4720 O.2   486  ARG486     -0.2864
     93  CB       217.0580  157.2210  227.4230 C.3   486  ARG486      0.0334
     94  CG       216.2990  156.8010  226.1880 C.3   486  ARG486      0.0492
     95  CD       216.9340  157.4060  224.9530 C.3   486  ARG486      0.2205
     96  NE       216.7810  158.8550  224.9280 N.pl3 486  ARG486     -0.0865
     97  CZ       217.3630  159.6510  224.0400 C.cat 486  ARG486      0.5346
     98  NH1      217.1730  160.9570  224.0870 N.pl3 486  ARG486      0.1354
     99  NH2      218.1400  159.1390  223.1040 N.pl3 486  ARG486      0.1354
    100  N        219.9960  160.3330  229.3870 N.3   489  LYS489     -0.1245
    101  CA       219.4360  161.6560  229.6110 C.3   489  LYS489      0.1561
    102  C        219.4210  162.0160  231.0860 C.2   489  LYS489      0.2260
    103  O        219.4080  163.2020  231.4220 O.2   489  LYS489     -0.2867
    104  CB       218.0280  161.7330  229.0330 C.3   489  LYS489      0.0271
    105  CG       217.9620  161.3930  227.5610 C.3   489  LYS489      0.0035
    106  CD       218.7950  162.3350  226.7230 C.3   489  LYS489      0.0206
    107  CE       218.1500  163.6900  226.6220 C.3   489  LYS489      0.1093
    108  NZ       218.9190  164.5810  225.7340 N.3   489  LYS489     -0.1314
@<TRIPOS>BOND
     1    28    27    1
     2    27    29    1
     3    27    24    1
     4    23    24    1
     5    24    25    1
     6    25    26    2
     7    42    43   ar
     8    42    40   ar
     9    43    41   ar
    10    40    37   ar
    11    41    39   ar
    12    37    39   ar
    13    37    35   ar
    14    39    38   ar
    15    34    35    1
    16    34    31    1
    17    35    36   ar
    18    38    36   ar
    19    30    31    1
    20    31    32    1
    21    32    33    2
    22    50    49    1
    23    49    51    1
    24    49    48    1
    25    99    97    1
    26    97    98    1
    27    97    96    2
    28    48    45    1
    29    12    13    1
    30    44    45    1
    31    13    16    1
    32    13    14    1
    33    16    17    1
    34    22    20    1
    35    45    46    1
    36    96    95    1
    37    95    94    1
    38    14    15    2
    39    20    19    2
    40    20    21    1
    41    19    18    1
    42     3     4    2
    43     3     2    1
    44   108   107    1
    45    17    18    1
    46    94    93    1
    47    46    47    2
    48   107   106    1
    49     2     5    1
    50     2     1    1
    51    57    56    1
    52   106   105    1
    53     6     5    1
    54     6     7    1
    55    56    53    1
    56    93    90    1
    57     8     7    1
    58     8     9    2
    59   105   104    1
    60    10     9    1
    61    88    87    1
    62    84    85    1
    63    84    81    1
    64    85    86    1
    65     9    11    1
    66    52    53    1
    67    53    54    1
    68    86    87    1
    69    90    89    1
    70    90    91    1
    71    89    82   am
    72   104   101    1
    73    82    81    1
    74    82    83    2
    75    81    80    1
    76   100   101    1
    77    54    55    2
    78    80    75   am
    79   101   102    1
    80    61    60    2
    81    62    63    1
    82    62    59    1
    83    91    92    2
    84    63    64    1
    85    59    60    1
    86    59    58    1
    87    68    67    2
    88    60    65   am
    89    75    74    1
    90    75    76    2
    91    74    77    1
    92    74    73    1
    93   102   103    2
    94    77    78    1
    95    67    73   am
    96    67    66    1
    97    73    79    1
    98    58    64    1
    99    65    66    1
   100    66    69    1
   101    69    70    1
   102    78    79    1
   103    71    70    1
   104    70    72    1
