@<TRIPOS>MOLECULE
tmp/6hwhJ02.pdb
 118 112 0 0 0
SMALL
GASTEIGER

@<TRIPOS>ATOM
      1  N        220.8320  139.1120  220.0290 N.3   107  ALA107     -0.1231
      2  CA       222.1070  139.7650  220.2920 C.3   107  ALA107      0.1694
      3  C        222.0320  141.2670  220.0540 C.2   107  ALA107      0.2592
      4  O        222.4340  142.0600  220.9100 O.2   107  ALA107     -0.2718
      5  CB       223.1930  139.1350  219.4330 C.3   107  ALA107      0.0304
      6  N        221.5130  141.6810  218.9060 N.am  108  PHE108     -0.1963
      7  CA       221.3990  143.1010  218.5800 C.3   108  PHE108      0.1756
      8  C        219.9220  143.4250  218.4790 C.2   108  PHE108      0.2461
      9  O        219.3120  143.2050  217.4190 O.2   108  PHE108     -0.2730
     10  CB       222.1200  143.4150  217.2770 C.3   108  PHE108      0.0574
     11  CG       223.5310  142.9430  217.2600 C.ar  108  PHE108     -0.0200
     12  CD1      224.5080  143.6220  217.9460 C.ar  108  PHE108     -0.0042
     13  CD2      223.8770  141.8020  216.5690 C.ar  108  PHE108     -0.0042
     14  CE1      225.7960  143.1770  217.9380 C.ar  108  PHE108     -0.0003
     15  CE2      225.1670  141.3550  216.5620 C.ar  108  PHE108     -0.0003
     16  CZ       226.1230  142.0420  217.2500 C.ar  108  PHE108     -0.0000
     17  N        219.3030  143.9330  219.5450 N.am  109  PRO109     -0.2716
     18  CA       217.8400  144.0240  219.5700 C.3   109  PRO109      0.1536
     19  C        217.2630  145.0950  218.6700 C.2   109  PRO109      0.2598
     20  O        216.0710  145.0280  218.3570 O.2   109  PRO109     -0.2715
     21  CB       217.5390  144.3240  221.0390 C.3   109  PRO109      0.0310
     22  CG       218.7230  143.8760  221.7640 C.3   109  PRO109      0.0237
     23  CD       219.8730  144.1590  220.8760 C.3   109  PRO109      0.0939
     24  N        218.0460  146.0760  218.2470 N.am  110  ARG110     -0.1964
     25  CA       217.5410  147.0510  217.2980 C.3   110  ARG110      0.1729
     26  C        217.8160  146.6690  215.8540 C.2   110  ARG110      0.2616
     27  O        217.3140  147.3420  214.9550 O.2   110  ARG110     -0.2715
     28  CB       218.1200  148.4350  217.5840 C.3   110  ARG110      0.0348
     29  CG       217.6170  149.0530  218.8670 C.3   110  ARG110      0.0492
     30  CD       218.1890  150.4410  219.0790 C.3   110  ARG110      0.2205
     31  NE       219.6150  150.4400  219.3650 N.pl3 110  ARG110     -0.0865
     32  CZ       220.3490  151.5420  219.4150 C.cat 110  ARG110      0.5346
     33  NH1      221.6440  151.4770  219.6790 N.pl3 110  ARG110      0.1354
     34  NH2      219.7840  152.7150  219.1860 N.pl3 110  ARG110      0.1354
     35  N        218.6060  145.6270  215.6030 N.am  111  LEU111     -0.1977
     36  CA       218.6270  145.0060  214.2870 C.3   111  LEU111      0.1596
     37  C        217.6420  143.8630  214.1670 C.2   111  LEU111      0.2287
     38  O        217.5430  143.2660  213.0960 O.2   111  LEU111     -0.2864
     39  CB       220.0070  144.4630  213.9270 C.3   111  LEU111      0.0297
     40  CG       221.1530  145.3970  213.5930 C.3   111  LEU111      0.0022
     41  CD1      222.3350  144.5400  213.2680 C.3   111  LEU111      0.0001
     42  CD2      220.8040  146.2810  212.4310 C.3   111  LEU111      0.0001
     43  N        214.8200  146.3450  213.0720 N.3   114  LEU114     -0.1245
     44  CA       215.1310  146.9350  211.7740 C.3   114  LEU114      0.1561
     45  C        215.0770  145.8980  210.6690 C.2   114  LEU114      0.2260
     46  O        214.7680  146.2360  209.5270 O.2   114  LEU114     -0.2867
     47  CB       216.5010  147.6080  211.8200 C.3   114  LEU114      0.0270
     48  CG       216.9410  148.5550  210.7110 C.3   114  LEU114      0.0019
     49  CD1      217.7570  149.6450  211.3250 C.3   114  LEU114      0.0001
     50  CD2      217.7920  147.8570  209.7140 C.3   114  LEU114      0.0001
     51  N        212.4990  146.5020  207.4620 N.3   118  LEU118     -0.1245
     52  CA       213.0030  146.4800  206.0940 C.3   118  LEU118      0.1561
     53  C        212.1980  145.5300  205.2320 C.2   118  LEU118      0.2260
     54  O        212.0100  145.7860  204.0420 O.2   118  LEU118     -0.2867
     55  CB       214.4750  146.0790  206.0460 C.3   118  LEU118      0.0270
     56  CG       215.5440  147.0730  206.4630 C.3   118  LEU118      0.0019
     57  CD1      216.8640  146.3890  206.3980 C.3   118  LEU118      0.0001
     58  CD2      215.5390  148.2630  205.5470 C.3   118  LEU118      0.0001
     59  N        214.1820  146.9610  193.4340 N.3   163  PHE163     -0.1241
     60  CA       214.4820  147.6040  194.7020 C.3   163  PHE163      0.1605
     61  C        213.4340  147.3370  195.7620 C.2   163  PHE163      0.2264
     62  O        213.2400  148.1640  196.6540 O.2   163  PHE163     -0.2867
     63  CB       214.6550  149.1010  194.5040 C.3   163  PHE163      0.0534
     64  CG       215.8950  149.4590  193.7690 C.ar  163  PHE163     -0.0203
     65  CD1      217.1150  149.4610  194.4140 C.ar  163  PHE163     -0.0042
     66  CD2      215.8470  149.7920  192.4370 C.ar  163  PHE163     -0.0042
     67  CE1      218.2650  149.7820  193.7470 C.ar  163  PHE163     -0.0003
     68  CE2      216.9920  150.1280  191.7610 C.ar  163  PHE163     -0.0003
     69  CZ       218.2070  150.1190  192.4170 C.ar  163  PHE163     -0.0000
     70  N        216.0410  144.3030  197.4220 N.3   166  ILE166     -0.1245
     71  CA       217.3370  144.6250  198.0010 C.3   166  ILE166      0.1561
     72  C        217.0990  145.2580  199.3630 C.2   166  ILE166      0.2260
     73  O        217.9650  145.2060  200.2410 O.2   166  ILE166     -0.2867
     74  CB       218.1720  145.5210  197.0680 C.3   166  ILE166      0.0252
     75  CG1      217.5380  146.8890  196.8300 C.3   166  ILE166      0.0019
     76  CG2      218.3330  144.8540  195.7460 C.3   166  ILE166      0.0019
     77  CD1      218.1340  148.0430  197.6530 C.3   166  ILE166      0.0001
     78  N        218.3620  143.2380  202.1940 N.3   170  LEU170     -0.1245
     79  CA       219.1260  143.6930  203.3480 C.3   170  LEU170      0.1561
     80  C        218.4570  143.2710  204.6450 C.2   170  LEU170      0.2260
     81  O        219.1320  143.0770  205.6590 O.2   170  LEU170     -0.2867
     82  CB       219.2860  145.2120  203.2940 C.3   170  LEU170      0.0270
     83  CG       220.0870  145.9410  204.3680 C.3   170  LEU170      0.0019
     84  CD1      221.5390  145.5150  204.3490 C.3   170  LEU170      0.0001
     85  CD2      219.9640  147.4300  204.1720 C.3   170  LEU170      0.0001
     86  N        220.7680  141.2300  207.6030 N.3   174  LEU174     -0.1245
     87  CA       220.8390  141.7940  208.9440 C.3   174  LEU174      0.1561
     88  C        220.1410  140.9250  209.9740 C.2   174  LEU174      0.2260
     89  O        220.4800  140.9980  211.1570 O.2   174  LEU174     -0.2867
     90  CB       220.2340  143.1930  208.9570 C.3   174  LEU174      0.0270
     91  CG       220.9950  144.2680  208.1900 C.3   174  LEU174      0.0019
     92  CD1      220.2110  145.5460  208.2140 C.3   174  LEU174      0.0001
     93  CD2      222.3780  144.4760  208.7740 C.3   174  LEU174      0.0001
     94  N        222.6740  138.1270  210.8350 N.3   177  VAL177     -0.1245
     95  CA       223.7260  138.5830  211.7320 C.3   177  VAL177      0.1561
     96  C        223.3010  138.3820  213.1790 C.2   177  VAL177      0.2260
     97  O        224.1060  137.9730  214.0240 O.2   177  VAL177     -0.2867
     98  CB       224.0720  140.0490  211.4190 C.3   177  VAL177      0.0252
     99  CG1      224.9990  140.6270  212.4440 C.3   177  VAL177      0.0019
    100  CG2      224.7190  140.1450  210.0590 C.3   177  VAL177      0.0019
    101  N        221.7600  140.6850  195.9000 N.3   218  THR218     -0.1218
    102  CA       221.8020  142.1390  196.0110 C.3   218  THR218      0.1862
    103  C        222.8400  142.7300  195.0670 C.2   218  THR218      0.2287
    104  O        222.6040  143.7700  194.4470 O.2   218  THR218     -0.2866
    105  CB       222.0920  142.5310  197.4590 C.3   218  THR218      0.1770
    106  OG1      221.0880  141.9750  198.3120 O.3   218  THR218     -0.2211
    107  CG2      222.0850  144.0270  197.6310 C.3   218  THR218      0.0375
    108  N        221.6540  145.2300  191.8590 N.3   222  PHE222     -0.1241
    109  CA       222.2940  146.4950  191.5310 C.3   222  PHE222      0.1605
    110  C        223.0010  146.4400  190.1880 C.2   222  PHE222      0.2264
    111  O        223.2600  147.4900  189.5960 O.2   222  PHE222     -0.2867
    112  CB       223.2810  146.9160  192.6140 C.3   222  PHE222      0.0534
    113  CG       222.6360  147.5210  193.8200 C.ar  222  PHE222     -0.0203
    114  CD1      222.1370  148.8100  193.7690 C.ar  222  PHE222     -0.0042
    115  CD2      222.5750  146.8330  195.0130 C.ar  222  PHE222     -0.0042
    116  CE1      221.5540  149.3830  194.8780 C.ar  222  PHE222     -0.0003
    117  CE2      221.9950  147.3950  196.1220 C.ar  222  PHE222     -0.0003
    118  CZ       221.4850  148.6730  196.0570 C.ar  222  PHE222     -0.0000
@<TRIPOS>BOND
     1   111   110    2
     2   110   109    1
     3   109   108    1
     4   109   112    1
     5    68    69   ar
     6    68    66   ar
     7    69    67   ar
     8    66    64   ar
     9   112   113    1
    10    59    60    1
    11    67    65   ar
    12   114   113   ar
    13   114   116   ar
    14    64    65   ar
    15    64    63    1
    16   113   115   ar
    17   104   103    2
    18    63    60    1
    19    60    61    1
    20   116   118   ar
    21   115   117   ar
    22   103   102    1
    23    76    74    1
    24    61    62    2
    25   101   102    1
    26   102   105    1
    27   118   117   ar
    28    75    74    1
    29    75    77    1
    30    74    71    1
    31    70    71    1
    32   105   107    1
    33   105   106    1
    34    71    72    1
    35    72    73    2
    36    78    79    1
    37    82    79    1
    38    82    83    1
    39    79    80    1
    40    54    53    2
    41    85    83    1
    42    84    83    1
    43    80    81    2
    44    53    52    1
    45    58    56    1
    46    55    52    1
    47    55    56    1
    48    52    51    1
    49    57    56    1
    50    86    87    1
    51    91    92    1
    52    91    93    1
    53    91    90    1
    54    87    90    1
    55    87    88    1
    56    46    45    2
    57    50    48    1
    58    88    89    2
    59   100    98    1
    60    45    44    1
    61    48    49    1
    62    48    47    1
    63    94    95    1
    64    98    95    1
    65    98    99    1
    66    95    96    1
    67    44    47    1
    68    44    43    1
    69    42    40    1
    70    38    37    2
    71    96    97    2
    72    41    40    1
    73    40    39    1
    74    39    36    1
    75    37    36    1
    76    36    35    1
    77    27    26    2
    78    35    26   am
    79    26    25    1
    80    15    13   ar
    81    15    16   ar
    82    13    11   ar
    83    16    14   ar
    84    11    10    1
    85    11    12   ar
    86    10     7    1
    87    25    28    1
    88    25    24    1
    89     9     8    2
    90    28    29    1
    91    14    12   ar
    92    24    19   am
    93    20    19    2
    94     8     7    1
    95     8    17   am
    96     7     6    1
    97    19    18    1
    98    29    30    1
    99     6     3   am
   100    30    31    1
   101    34    32    1
   102    31    32    2
   103    32    33    1
   104     5     2    1
   105    17    18    1
   106    17    23    1
   107    18    21    1
   108     1     2    1
   109     3     2    1
   110     3     4    2
   111    23    22    1
   112    21    22    1
