@<TRIPOS>MOLECULE
tmp/6hwhJ03.pdb
 99 98 0 0 0
SMALL
GASTEIGER

@<TRIPOS>ATOM
      1  N        199.5880  149.6560  219.9870 N.3    18  LEU18      -0.1231
      2  CA       199.9100  150.4370  218.7890 C.3    18  LEU18       0.1693
      3  C        201.2960  151.0620  218.8760 C.2    18  LEU18       0.2592
      4  O        202.1610  150.7980  218.0380 O.2    18  LEU18      -0.2718
      5  CB       198.8590  151.5140  218.5460 C.3    18  LEU18       0.0284
      6  CG       199.1220  152.3030  217.2650 C.3    18  LEU18       0.0019
      7  CD1      199.1370  151.3920  216.0610 C.3    18  LEU18       0.0001
      8  CD2      198.0580  153.3380  217.0910 C.3    18  LEU18       0.0001
      9  N        201.5140  151.9130  219.8640 N.am   19  TYR19      -0.1976
     10  CA       202.8550  152.1160  220.3740 C.3    19  TYR19       0.1639
     11  C        203.2180  150.8650  221.1620 C.2    19  TYR19       0.2290
     12  O        202.3290  150.1180  221.5810 O.2    19  TYR19      -0.2864
     13  CB       202.8740  153.3670  221.2380 C.3    19  TYR19       0.0560
     14  CG       204.1890  153.9480  221.6540 C.ar   19  TYR19      -0.0198
     15  CD1      204.8980  154.7730  220.8020 C.ar   19  TYR19      -0.0009
     16  CD2      204.6820  153.7380  222.9270 C.ar   19  TYR19      -0.0009
     17  CE1      206.0710  155.3490  221.1930 C.ar   19  TYR19       0.0417
     18  CE2      205.8630  154.3030  223.3250 C.ar   19  TYR19       0.0417
     19  CZ       206.5550  155.1030  222.4510 C.ar   19  TYR19       0.1957
     20  OH       207.7380  155.6680  222.8490 O.3    19  TYR19      -0.2866
     21  N        204.7520  148.7050  219.5610 N.3    21  LEU21      -0.1231
     22  CA       204.8320  147.9060  218.3200 C.3    21  LEU21       0.1693
     23  C        205.8690  148.6620  217.4990 C.2    21  LEU21       0.2592
     24  O        206.8030  148.0510  217.0190 O.2    21  LEU21      -0.2718
     25  CB       203.4960  147.9730  217.5880 C.3    21  LEU21       0.0284
     26  CG       203.3460  147.0580  216.3840 C.3    21  LEU21       0.0019
     27  CD1      201.9110  146.6060  216.2680 C.3    21  LEU21       0.0001
     28  CD2      203.7300  147.8030  215.1290 C.3    21  LEU21       0.0001
     29  N        205.6880  149.9810  217.4120 N.am   22  VAL22      -0.1966
     30  CA       206.6090  150.9210  216.7100 C.3    22  VAL22       0.1727
     31  C        207.9420  150.9240  217.4680 C.2    22  VAL22       0.2616
     32  O        208.9630  150.7200  216.8160 O.2    22  VAL22      -0.2715
     33  CB       206.0070  152.3360  216.6450 C.3    22  VAL22       0.0290
     34  CG1      207.0270  153.3650  216.2340 C.3    22  VAL22       0.0023
     35  CG2      204.7950  152.4160  215.7420 C.3    22  VAL22       0.0023
     36  N        207.9020  151.0580  218.7980 N.am   23  THR23      -0.1951
     37  CA       209.0410  151.0530  219.7100 C.3    23  THR23       0.1897
     38  C        209.1090  149.7130  220.4220 C.2    23  THR23       0.2313
     39  O        208.7730  149.5890  221.5970 O.2    23  THR23      -0.2863
     40  CB       208.9270  152.1660  220.7260 C.3    23  THR23       0.1794
     41  OG1      207.7700  151.9410  221.5360 O.3    23  THR23      -0.2208
     42  CG2      208.7930  153.4590  220.0370 C.3    23  THR23       0.0378
     43  N        205.0200  139.6670  214.8600 N.3    33  MET33      -0.1245
     44  CA       204.7670  140.5810  213.7550 C.3    33  MET33       0.1570
     45  C        205.2730  140.0620  212.4240 C.2    33  MET33       0.2261
     46  O        204.7210  140.4370  211.3910 O.2    33  MET33      -0.2867
     47  CB       205.4080  141.9420  214.0000 C.3    33  MET33       0.0387
     48  CG       204.7730  142.7620  215.0740 C.3    33  MET33       0.0595
     49  SD       205.4150  144.4310  214.9710 S.3    33  MET33      -0.1393
     50  CE       207.0200  144.2430  215.6780 C.3    33  MET33       0.0692
     51  N        202.1710  139.4690  209.6540 N.3    37  ALA37      -0.1245
     52  CA       202.3350  140.1970  208.4000 C.3    37  ALA37       0.1562
     53  C        202.6200  139.2640  207.2330 C.2    37  ALA37       0.2260
     54  O        202.2910  139.6010  206.0980 O.2    37  ALA37      -0.2867
     55  CB       203.4360  141.2470  208.5110 C.3    37  ALA37       0.0290
     56  N        212.8630  143.5320  210.6080 N.3   116  PHE116     -0.1227
     57  CA       211.4550  143.3470  210.2940 C.3   116  PHE116      0.1736
     58  C        210.9320  144.4760  209.4250 C.2   116  PHE116      0.2595
     59  O        210.2400  144.2350  208.4330 O.2   116  PHE116     -0.2718
     60  CB       210.6210  143.2320  211.5620 C.3   116  PHE116      0.0547
     61  CG       209.1570  143.2590  211.2950 C.ar  116  PHE116     -0.0202
     62  CD1      208.5490  142.2220  210.6410 C.ar  116  PHE116     -0.0042
     63  CD2      208.3920  144.3290  211.6880 C.ar  116  PHE116     -0.0042
     64  CE1      207.2070  142.2480  210.3800 C.ar  116  PHE116     -0.0003
     65  CE2      207.0470  144.3570  211.4280 C.ar  116  PHE116     -0.0003
     66  CZ       206.4580  143.3130  210.7750 C.ar  116  PHE116     -0.0000
     67  N        211.2390  145.7160  209.7850 N.am  117  TRP117     -0.1976
     68  CA       210.6630  146.8370  209.0640 C.3   117  TRP117      0.1640
     69  C        211.3140  147.0600  207.7080 C.2   117  TRP117      0.2290
     70  O        210.7380  147.7570  206.8750 O.2   117  TRP117     -0.2864
     71  CB       210.7480  148.1100  209.9040 C.3   117  TRP117      0.0576
     72  CG       209.9040  148.1050  211.1410 C.ar  117  TRP117      0.0006
     73  CD1      210.3340  148.0140  212.4230 C.ar  117  TRP117      0.0946
     74  CD2      208.4790  148.1630  211.2030 C.ar  117  TRP117      0.0152
     75  NE1      209.2730  148.0300  213.2870 N.ar  117  TRP117     -0.2442
     76  CE2      208.1200  148.1200  212.5580 C.ar  117  TRP117      0.0810
     77  CE3      207.4730  148.2540  210.2430 C.ar  117  TRP117      0.0012
     78  CZ2      206.8040  148.1680  212.9760 C.ar  117  TRP117      0.0191
     79  CZ3      206.1730  148.3010  210.6610 C.ar  117  TRP117      0.0001
     80  CH2      205.8460  148.2580  212.0130 C.ar  117  TRP117      0.0015
     81  N        208.8780  144.7550  205.8050 N.3   120  LEU120     -0.1231
     82  CA       207.5000  145.2130  205.6410 C.3   120  LEU120      0.1693
     83  C        207.3970  146.3790  204.6680 C.2   120  LEU120      0.2592
     84  O        206.3560  146.5510  204.0300 O.2   120  LEU120     -0.2718
     85  CB       206.9120  145.5820  207.0020 C.3   120  LEU120      0.0284
     86  CG       205.4230  145.8560  207.2440 C.3   120  LEU120      0.0019
     87  CD1      204.9880  147.2890  206.9750 C.3   120  LEU120      0.0001
     88  CD2      204.5920  144.8980  206.4230 C.3   120  LEU120      0.0001
     89  N        208.4500  147.1800  204.5290 N.am  121  PHE121     -0.1976
     90  CA       208.4520  148.2080  203.5030 C.3   121  PHE121      0.1639
     91  C        209.1710  147.7760  202.2430 C.2   121  PHE121      0.2290
     92  O        208.9390  148.3660  201.1900 O.2   121  PHE121     -0.2864
     93  CB       209.0730  149.5070  204.0200 C.3   121  PHE121      0.0560
     94  CG       208.3000  150.1270  205.1290 C.ar  121  PHE121     -0.0200
     95  CD1      207.0510  150.6570  204.8970 C.ar  121  PHE121     -0.0042
     96  CD2      208.8290  150.2110  206.3930 C.ar  121  PHE121     -0.0042
     97  CE1      206.3310  151.2230  205.9210 C.ar  121  PHE121     -0.0003
     98  CE2      208.1230  150.7770  207.4130 C.ar  121  PHE121     -0.0003
     99  CZ       206.8730  151.2840  207.1810 C.ar  121  PHE121     -0.0000
@<TRIPOS>BOND
     1    92    91    2
     2    91    90    1
     3    90    93    1
     4    90    89    1
     5    93    94    1
     6    84    83    2
     7    89    83   am
     8    83    82    1
     9    95    94   ar
    10    95    97   ar
    11    94    96   ar
    12    82    81    1
    13    82    85    1
    14    97    99   ar
    15    54    53    2
    16    96    98   ar
    17    88    86    1
    18    70    69    2
    19    87    86    1
    20    85    86    1
    21    99    98   ar
    22    53    52    1
    23    69    68    1
    24    52    55    1
    25    52    51    1
    26    59    58    2
    27    68    67    1
    28    68    71    1
    29    58    67   am
    30    58    57    1
    31    71    72    1
    32    77    79   ar
    33    77    74   ar
    34    57    56    1
    35    57    60    1
    36    64    62   ar
    37    64    66   ar
    38    62    61   ar
    39    79    80   ar
    40    66    65   ar
    41    72    74   ar
    42    72    73   ar
    43    74    76   ar
    44    61    60    1
    45    61    63   ar
    46    46    45    2
    47    65    63   ar
    48    80    78   ar
    49    73    75   ar
    50    45    44    1
    51    76    78   ar
    52    76    75   ar
    53    44    47    1
    54    44    43    1
    55    47    48    1
    56    49    48    1
    57    49    50    1
    58    28    26    1
    59    35    33    1
    60     7     6    1
    61    34    33    1
    62    27    26    1
    63    26    25    1
    64    33    30    1
    65    30    29    1
    66    30    31    1
    67    32    31    2
    68    24    23    2
    69     8     6    1
    70     6     5    1
    71    29    23   am
    72    31    36   am
    73    23    22    1
    74    25    22    1
    75     4     3    2
    76    22    21    1
    77     5     2    1
    78     2     3    1
    79     2     1    1
    80    36    37    1
    81     3     9   am
    82    37    38    1
    83    37    40    1
    84     9    10    1
    85    42    40    1
    86    10    11    1
    87    10    13    1
    88    38    39    2
    89    40    41    1
    90    15    17   ar
    91    15    14   ar
    92    11    12    2
    93    17    19   ar
    94    13    14    1
    95    14    16   ar
    96    19    20    1
    97    19    18   ar
    98    16    18   ar
