@<TRIPOS>MOLECULE
tmp/6hwhM05.pdb
 204 200 0 0 0
SMALL
GASTEIGER

@<TRIPOS>ATOM
      1  N        208.2450  201.6690  234.0320 N.3    24  ALA24      -0.1245
      2  CA       207.6140  201.1070  232.8500 C.3    24  ALA24       0.1562
      3  C        208.5450  200.1620  232.1170 C.2    24  ALA24       0.2260
      4  O        208.1050  199.1220  231.6300 O.2    24  ALA24      -0.2867
      5  CB       207.1650  202.2230  231.9170 C.3    24  ALA24       0.0290
      6  N        209.5720  196.6100  234.2230 N.3    27  ARG27      -0.1231
      7  CA       208.5870  195.5420  234.1800 C.3    27  ARG27       0.1694
      8  C        208.5810  194.8350  232.8350 C.2    27  ARG27       0.2591
      9  O        208.3490  193.6250  232.7800 O.2    27  ARG27      -0.2718
     10  CB       207.2110  196.1030  234.5010 C.3    27  ARG27       0.0321
     11  CG       207.1450  196.6190  235.9140 C.3    27  ARG27       0.0489
     12  CD       205.7870  197.1280  236.2930 C.3    27  ARG27       0.2205
     13  NE       205.4850  198.3540  235.5820 N.pl3  27  ARG27      -0.0865
     14  CZ       204.5740  198.4260  234.6290 C.cat  27  ARG27       0.5346
     15  NH1      203.8990  197.3410  234.2960 N.pl3  27  ARG27       0.1354
     16  NH2      204.3470  199.5680  234.0110 N.pl3  27  ARG27       0.1354
     17  N        208.8350  195.5620  231.7450 N.am   28  GLN28      -0.1979
     18  CA       208.9990  194.9150  230.4490 C.3    28  GLN28       0.1601
     19  C        210.2340  194.0500  230.2760 C.2    28  GLN28       0.2287
     20  O        210.2150  193.0680  229.5310 O.2    28  GLN28      -0.2864
     21  CB       209.0080  195.9480  229.3380 C.3    28  GLN28       0.0394
     22  CG       207.8470  196.8770  229.2930 C.3    28  GLN28       0.0908
     23  CD       208.1160  197.9890  228.3020 C.2    28  GLN28       0.2608
     24  OE1      209.0940  197.9350  227.5570 O.2    28  GLN28      -0.2717
     25  NE2      207.3220  199.0450  228.3570 N.am   28  GLN28      -0.0878
     26  N        209.8190  184.8020  230.0640 N.3    33  PHE33      -0.1241
     27  CA       209.2730  183.9600  229.0280 C.3    33  PHE33       0.1605
     28  C        209.7820  182.5400  229.1790 C.2    33  PHE33       0.2264
     29  O        210.9530  182.3380  229.5080 O.2    33  PHE33      -0.2867
     30  CB       209.6320  184.4710  227.6400 C.3    33  PHE33       0.0534
     31  CG       208.8680  185.6770  227.2440 C.ar   33  PHE33      -0.0203
     32  CD1      207.5380  185.5640  226.8790 C.ar   33  PHE33      -0.0042
     33  CD2      209.4670  186.9170  227.2250 C.ar   33  PHE33      -0.0042
     34  CE1      206.8130  186.6640  226.5160 C.ar   33  PHE33      -0.0003
     35  CE2      208.7490  188.0260  226.8550 C.ar   33  PHE33      -0.0003
     36  CZ       207.4180  187.8950  226.5020 C.ar   33  PHE33      -0.0000
     37  N        207.9830  177.2540  221.5130 N.3    39  PHE39      -0.1241
     38  CA       207.5440  178.6170  221.7180 C.3    39  PHE39       0.1605
     39  C        208.2980  179.5800  220.8230 C.2    39  PHE39       0.2264
     40  O        208.0440  180.7840  220.8700 O.2    39  PHE39      -0.2867
     41  CB       207.7110  179.0070  223.1860 C.3    39  PHE39       0.0534
     42  CG       206.8520  178.2090  224.1420 C.ar   39  PHE39      -0.0203
     43  CD1      205.7650  177.4720  223.7100 C.ar   39  PHE39      -0.0042
     44  CD2      207.1420  178.2060  225.4860 C.ar   39  PHE39      -0.0042
     45  CE1      205.0090  176.7560  224.5940 C.ar   39  PHE39      -0.0003
     46  CE2      206.3820  177.4850  226.3670 C.ar   39  PHE39      -0.0003
     47  CZ       205.3200  176.7650  225.9190 C.ar   39  PHE39      -0.0000
     48  N        207.7800  182.7430  216.3070 N.3    43  GLU43      -0.1245
     49  CA       208.7270  183.7730  215.9320 C.3    43  GLU43       0.1567
     50  C        209.2340  183.5980  214.5160 C.2    43  GLU43       0.2260
     51  O        209.7050  184.5720  213.9280 O.2    43  GLU43      -0.2867
     52  CB       209.9100  183.7980  216.8910 C.3    43  GLU43       0.0388
     53  CG       209.5540  184.2220  218.2890 C.3    43  GLU43       0.1160
     54  CD       210.7640  184.2990  219.1850 C.2    43  GLU43       0.3649
     55  OE1      211.8770  184.0150  218.7020 O.co2  43  GLU43      -0.2457
     56  OE2      210.6030  184.6150  220.3800 O.co2  43  GLU43      -0.2457
     57  N        206.9540  185.4800  212.6210 N.3    46  LEU46      -0.1231
     58  CA       207.1640  186.8940  212.8920 C.3    46  LEU46       0.1693
     59  C        208.4260  187.4020  212.2190 C.2    46  LEU46       0.2592
     60  O        208.5060  188.5850  211.8800 O.2    46  LEU46      -0.2718
     61  CB       207.2170  187.1300  214.4060 C.3    46  LEU46       0.0284
     62  CG       207.2230  188.5170  215.0630 C.3    46  LEU46       0.0019
     63  CD1      208.5960  189.1310  215.2070 C.3    46  LEU46       0.0001
     64  CD2      206.3320  189.4510  214.2810 C.3    46  LEU46       0.0001
     65  N        209.4200  186.5400  212.0310 N.am   47  TYR47      -0.1976
     66  CA       210.6750  186.9510  211.4220 C.3    47  TYR47       0.1639
     67  C        210.6570  186.7990  209.9160 C.2    47  TYR47       0.2290
     68  O        211.3590  187.5370  209.2240 O.2    47  TYR47      -0.2864
     69  CB       211.8360  186.1450  211.9970 C.3    47  TYR47       0.0560
     70  CG       212.1320  186.4360  213.4450 C.ar   47  TYR47      -0.0198
     71  CD1      211.7240  187.6200  214.0400 C.ar   47  TYR47      -0.0009
     72  CD2      212.7890  185.5080  214.2270 C.ar   47  TYR47      -0.0009
     73  CE1      211.9870  187.8800  215.3620 C.ar   47  TYR47       0.0417
     74  CE2      213.0530  185.7590  215.5500 C.ar   47  TYR47       0.0417
     75  CZ       212.6460  186.9450  216.1120 C.ar   47  TYR47       0.1957
     76  OH       212.9070  187.2010  217.4340 O.3    47  TYR47      -0.2866
     77  N        192.0130  186.2080  216.5350 N.3   142  ILE142     -0.1245
     78  CA       192.9510  187.1560  215.9330 C.3   142  ILE142      0.1561
     79  C        194.0340  186.4090  215.1750 C.2   142  ILE142      0.2260
     80  O        194.4670  186.8300  214.0970 O.2   142  ILE142     -0.2867
     81  CB       193.5430  188.0760  217.0170 C.3   142  ILE142      0.0252
     82  CG1      192.4760  189.0030  217.5610 C.3   142  ILE142      0.0019
     83  CG2      194.6700  188.9180  216.4960 C.3   142  ILE142      0.0019
     84  CD1      192.9130  189.7590  218.7650 C.3   142  ILE142      0.0001
     85  N        199.7320  193.4390  209.5340 N.3   219  LEU219     -0.1231
     86  CA       200.5830  194.0730  210.5350 C.3   219  LEU219      0.1693
     87  C        199.7620  194.6990  211.6510 C.2   219  LEU219      0.2591
     88  O        200.2550  194.8360  212.7730 O.2   219  LEU219     -0.2718
     89  CB       201.4840  195.1100  209.8690 C.3   219  LEU219      0.0284
     90  CG       202.6510  195.7430  210.6170 C.3   219  LEU219      0.0019
     91  CD1      203.7690  195.9660  209.6440 C.3   219  LEU219      0.0001
     92  CD2      202.2580  197.0690  211.1920 C.3   219  LEU219      0.0001
     93  N        198.5200  195.0870  211.3710 N.am  220  ALA220     -0.1980
     94  CA       197.6520  195.5530  212.4420 C.3   220  ALA220      0.1597
     95  C        197.1640  194.4010  213.2950 C.2   220  ALA220      0.2287
     96  O        196.9780  194.5680  214.5010 O.2   220  ALA220     -0.2864
     97  CB       196.4620  196.3170  211.8800 C.3   220  ALA220      0.0319
     98  N        200.1730  193.1860  215.4280 N.3   223  GLY223     -0.1210
     99  CA       200.3200  194.1150  216.5290 C.3   223  GLY223      0.1956
    100  C        199.2860  193.9540  217.6210 C.2   223  GLY223      0.2611
    101  O        199.5570  194.3170  218.7650 O.2   223  GLY223     -0.2717
    102  N        198.1150  193.4120  217.3000 N.am  224  ALA224     -0.1979
    103  CA       197.1110  193.0770  218.2980 C.3   224  ALA224      0.1597
    104  C        197.1990  191.6270  218.7290 C.2   224  ALA224      0.2287
    105  O        196.2940  191.1330  219.4010 O.2   224  ALA224     -0.2864
    106  CB       195.7110  193.3700  217.7640 C.3   224  ALA224      0.0319
    107  N        200.7810  189.8430  219.1490 N.3   226  LEU226     -0.1231
    108  CA       201.9330  189.8140  220.0290 C.3   226  LEU226      0.1693
    109  C        201.7410  190.7060  221.2430 C.2   226  LEU226      0.2592
    110  O        202.4560  190.5430  222.2330 O.2   226  LEU226     -0.2718
    111  CB       203.1860  190.2390  219.2670 C.3   226  LEU226      0.0284
    112  CG       203.9640  189.2130  218.4450 C.3   226  LEU226      0.0019
    113  CD1      203.2460  188.7350  217.2160 C.3   226  LEU226      0.0001
    114  CD2      205.2640  189.8300  218.0340 C.3   226  LEU226      0.0001
    115  N        200.8030  191.6450  221.1920 N.am  227  ALA227     -0.1966
    116  CA       200.4520  192.4350  222.3580 C.3   227  ALA227      0.1728
    117  C        199.3120  191.8280  223.1430 C.2   227  ALA227      0.2616
    118  O        198.7990  192.4720  224.0570 O.2   227  ALA227     -0.2715
    119  CB       200.0970  193.8620  221.9580 C.3   227  ALA227      0.0334
    120  N        198.8820  190.6210  222.7940 N.am  228  LEU228     -0.1963
    121  CA       198.1060  189.8210  223.7250 C.3   228  LEU228      0.1728
    122  C        198.9930  188.8520  224.4860 C.2   228  LEU228      0.2616
    123  O        198.9010  188.7770  225.7060 O.2   228  LEU228     -0.2715
    124  CB       196.9870  189.0560  223.0210 C.3   228  LEU228      0.0311
    125  CG       195.8290  189.8930  222.5020 C.3   228  LEU228      0.0022
    126  CD1      194.8110  189.0070  221.8600 C.3   228  LEU228      0.0001
    127  CD2      195.2080  190.6870  223.6130 C.3   228  LEU228      0.0001
    128  N        199.9070  188.1630  223.8000 N.am  229  VAL229     -0.1963
    129  CA       200.8150  187.2470  224.4820 C.3   229  VAL229      0.1727
    130  C        201.8190  187.9630  225.3670 C.2   229  VAL229      0.2616
    131  O        202.4710  187.3190  226.1880 O.2   229  VAL229     -0.2715
    132  CB       201.5970  186.3680  223.4870 C.3   229  VAL229      0.0290
    133  CG1      200.6560  185.6190  222.5940 C.3   229  VAL229      0.0023
    134  CG2      202.5460  187.1970  222.6710 C.3   229  VAL229      0.0023
    135  N        201.9630  189.2750  225.2230 N.am  230  TRP230     -0.1960
    136  CA       202.8480  190.0220  226.0950 C.3   230  TRP230      0.1771
    137  C        202.1720  190.3620  227.4120 C.2   230  TRP230      0.2620
    138  O        202.8360  190.4010  228.4510 O.2   230  TRP230     -0.2715
    139  CB       203.3010  191.2980  225.3930 C.3   230  TRP230      0.0590
    140  CG       204.3550  192.0480  226.1100 C.ar  230  TRP230      0.0006
    141  CD1      204.1760  193.0640  226.9940 C.ar  230  TRP230      0.0946
    142  CD2      205.7640  191.8960  225.9590 C.ar  230  TRP230      0.0152
    143  NE1      205.3840  193.5270  227.4360 N.ar  230  TRP230     -0.2442
    144  CE2      206.3770  192.8270  226.8090 C.ar  230  TRP230      0.0810
    145  CE3      206.5680  191.0510  225.1960 C.ar  230  TRP230      0.0012
    146  CZ2      207.7520  192.9380  226.9170 C.ar  230  TRP230      0.0191
    147  CZ3      207.9340  191.1630  225.3090 C.ar  230  TRP230      0.0001
    148  CH2      208.5120  192.0980  226.1620 C.ar  230  TRP230      0.0015
    149  N        200.8610  190.5960  227.3960 N.am  231  PHE231     -0.1960
    150  CA       200.1540  191.1260  228.5530 C.3   231  PHE231      0.1771
    151  C        199.2990  190.1120  229.2830 C.2   231  PHE231      0.2619
    152  O        199.2890  190.1160  230.5130 O.2   231  PHE231     -0.2715
    153  CB       199.3020  192.3220  228.1490 C.3   231  PHE231      0.0574
    154  CG       200.1130  193.5170  227.8070 C.ar  231  PHE231     -0.0200
    155  CD1      200.7600  194.2190  228.7990 C.ar  231  PHE231     -0.0042
    156  CD2      200.2370  193.9380  226.5050 C.ar  231  PHE231     -0.0042
    157  CE1      201.5200  195.3050  228.4980 C.ar  231  PHE231     -0.0003
    158  CE2      200.9910  195.0360  226.1980 C.ar  231  PHE231     -0.0003
    159  CZ       201.6320  195.7190  227.1970 C.ar  231  PHE231     -0.0000
    160  N        198.5620  189.2510  228.5950 N.am  232  GLN232     -0.1963
    161  CA       198.2080  187.9750  229.1960 C.3   232  GLN232      0.1733
    162  C        199.3720  187.0450  228.8930 C.2   232  GLN232      0.2616
    163  O        199.7180  186.8310  227.7280 O.2   232  GLN232     -0.2715
    164  CB       196.8500  187.4430  228.7200 C.3   232  GLN232      0.0408
    165  CG       196.6330  187.1950  227.2530 C.3   232  GLN232      0.0908
    166  CD       195.2540  186.7210  226.9520 C.2   232  GLN232      0.2608
    167  OE1      194.4500  186.5310  227.8530 O.2   232  GLN232     -0.2717
    168  NE2      194.9640  186.5180  225.6800 N.am  232  GLN232     -0.0878
    169  N        200.0380  186.5750  229.9380 N.am  233  LYS233     -0.1963
    170  CA       201.3930  186.0900  229.7580 C.3   233  LYS233      0.1728
    171  C        201.3950  184.7290  229.0770 C.2   233  LYS233      0.2616
    172  O        200.3570  184.0990  228.8780 O.2   233  LYS233     -0.2715
    173  CB       202.1150  186.0330  231.0950 C.3   233  LYS233      0.0311
    174  CG       202.2890  187.3870  231.7190 C.3   233  LYS233      0.0038
    175  CD       202.9810  187.3000  233.0480 C.3   233  LYS233      0.0206
    176  CE       203.1680  188.6790  233.6160 C.3   233  LYS233      0.1093
    177  NZ       201.8510  189.2970  233.8950 N.3   233  LYS233     -0.1314
    178  N        202.5820  184.2950  228.6890 N.am  234  HIS234     -0.1973
    179  CA       202.7070  183.1130  227.8610 C.3   234  HIS234      0.1656
    180  C        202.4510  181.8620  228.6910 C.2   234  HIS234      0.2291
    181  O        202.6830  181.8380  229.8980 O.2   234  HIS234     -0.2864
    182  CB       204.1000  183.0750  227.2490 C.3   234  HIS234      0.0771
    183  CG       204.2110  182.1950  226.0540 C.ar  234  HIS234      0.0820
    184  ND1      204.3640  180.8320  226.1490 N.ar  234  HIS234     -0.2267
    185  CD2      204.2220  182.4850  224.7360 C.ar  234  HIS234      0.1154
    186  CE1      204.4380  180.3170  224.9380 C.ar  234  HIS234      0.1986
    187  NE2      204.3590  181.2990  224.0630 N.ar  234  HIS234     -0.2212
    188  N        217.1360  186.1190  226.1370 N.3   256  PHE256     -0.1241
    189  CA       215.9440  186.2930  225.3040 C.3   256  PHE256      0.1605
    190  C        215.9430  187.6510  224.5840 C.2   256  PHE256      0.2264
    191  O        215.2040  187.8150  223.6200 O.2   256  PHE256     -0.2867
    192  CB       214.6160  186.0920  226.0730 C.3   256  PHE256      0.0534
    193  CG       213.3930  186.0630  225.2100 C.ar  256  PHE256     -0.0203
    194  CD1      213.0950  184.9500  224.4510 C.ar  256  PHE256     -0.0042
    195  CD2      212.5440  187.1560  225.1550 C.ar  256  PHE256     -0.0042
    196  CE1      211.9780  184.9280  223.6500 C.ar  256  PHE256     -0.0003
    197  CE2      211.4290  187.1430  224.3540 C.ar  256  PHE256     -0.0003
    198  CZ       211.1420  186.0270  223.6050 C.ar  256  PHE256     -0.0000
    199  N        216.4950  185.5500  221.0590 N.3   260  SER260     -0.1217
    200  CA       215.4660  185.9150  220.1010 C.3   260  SER260      0.1889
    201  C        215.9540  186.9290  219.0860 C.2   260  SER260      0.2288
    202  O        215.2310  187.2270  218.1330 O.2   260  SER260     -0.2866
    203  CB       214.2330  186.4690  220.8110 C.3   260  SER260      0.2089
    204  OG       213.2700  186.8910  219.8670 O.3   260  SER260     -0.2183
@<TRIPOS>BOND
     1    68    67    2
     2    85    86    1
     3    91    90    1
     4    89    86    1
     5    89    90    1
     6    67    66    1
     7    86    87    1
     8    90    92    1
     9    93    87   am
    10    93    94    1
    11    66    69    1
    12    66    65    1
    13    87    88    2
    14    60    59    2
    15    97    94    1
    16    69    70    1
    17    65    59   am
    18    59    58    1
    19    94    95    1
    20    57    58    1
    21    58    61    1
    22    95    96    2
    23    70    71   ar
    24    70    72   ar
    25    51    50    2
    26    71    73   ar
    27    80    79    2
    28    72    74   ar
    29    64    62    1
    30    61    62    1
    31    50    49    1
    32    62    63    1
    33    79    78    1
    34    73    75   ar
    35    98    99    1
    36    74    75   ar
    37    49    48    1
    38    49    52    1
    39    78    77    1
    40    78    81    1
    41    75    76    1
    42    83    81    1
    43    99   100    1
    44    52    53    1
    45    81    82    1
    46   113   112    1
    47   102   100   am
    48   102   103    1
    49    82    84    1
    50   100   101    2
    51   106   103    1
    52   114   112    1
    53   202   201    2
    54    53    54    1
    55   103   104    1
    56   112   111    1
    57    55    54   ar
    58   104   105    2
    59   201   200    1
    60   107   108    1
    61    54    56   ar
    62   111   108    1
    63   204   203    1
    64   108   109    1
    65   200   203    1
    66   200   199    1
    67    39    40    2
    68    39    38    1
    69   115   109   am
    70   115   116    1
    71   109   110    2
    72    37    38    1
    73    38    41    1
    74   126   125    1
    75   119   116    1
    76   116   117    1
    77   125   124    1
    78   125   127    1
    79   133   132    1
    80   134   132    1
    81   120   117   am
    82   120   121    1
    83   124   121    1
    84   117   118    2
    85    41    42    1
    86   132   129    1
    87   198   196   ar
    88   198   197   ar
    89   191   190    2
    90   196   194   ar
    91    43    42   ar
    92    43    45   ar
    93   121   122    1
    94   128   129    1
    95   128   122   am
    96   187   185   ar
    97   187   186   ar
    98    42    44   ar
    99   197   195   ar
   100   194   193   ar
   101   129   130    1
   102   122   123    2
   103   190   189    1
   104    45    47   ar
   105   185   183   ar
   106   186   184   ar
   107   195   193   ar
   108   145   147   ar
   109   145   142   ar
   110   193   192    1
   111   135   130   am
   112   135   136    1
   113   189   192    1
   114   189   188    1
   115   147   148   ar
   116   130   131    2
   117   139   136    1
   118   139   140    1
   119    44    46   ar
   120   168   166   am
   121    47    46   ar
   122   142   140   ar
   123   142   144   ar
   124   183   184   ar
   125   183   182    1
   126   136   137    1
   127   140   141   ar
   128   148   146   ar
   129   158   156   ar
   130   158   159   ar
   131    36    34   ar
   132    36    35   ar
   133   156   154   ar
   134    34    32   ar
   135   144   146   ar
   136   144   143   ar
   137    35    33   ar
   138    32    31   ar
   139   166   165    1
   140   166   167    2
   141   141   143   ar
   142   159   157   ar
   143    33    31   ar
   144    31    30    1
   145   182   179    1
   146   165   164    1
   147   149   137   am
   148   149   150    1
   149   137   138    2
   150    24    23    2
   151    30    27    1
   152   163   162    2
   153   154   153    1
   154   154   155   ar
   155   179   178    1
   156   179   180    1
   157   153   150    1
   158    23    25   am
   159    23    22    1
   160   157   155   ar
   161   150   151    1
   162   160   161    1
   163   160   151   am
   164   178   171   am
   165   180   181    2
   166   164   161    1
   167   172   171    2
   168   162   161    1
   169   162   169   am
   170    27    28    1
   171    27    26    1
   172   171   170    1
   173    28    29    2
   174   151   152    2
   175    22    21    1
   176    21    18    1
   177    20    19    2
   178   170   169    1
   179   170   173    1
   180    19    18    1
   181    18    17    1
   182   173   174    1
   183     4     3    2
   184   174   175    1
   185    17     8   am
   186     5     2    1
   187     3     2    1
   188     9     8    2
   189     8     7    1
   190     2     1    1
   191   175   176    1
   192   176   177    1
   193    16    14    1
   194     7     6    1
   195     7    10    1
   196    15    14    1
   197    10    11    1
   198    14    13    2
   199    13    12    1
   200    11    12    1
