@<TRIPOS>MOLECULE
tmp/6hwzB00.pdb
 119 117 0 0 0
SMALL
GASTEIGER

@<TRIPOS>ATOM
      1  N         21.3420   40.9370   51.2900 N.3    63  HIS63      -0.1241
      2  CA        22.4360   41.5100   52.0560 C.3    63  HIS63       0.1621
      3  C         22.2360   43.0290   52.0370 C.2    63  HIS63       0.2264
      4  O         21.8650   43.6050   50.9930 O.2    63  HIS63      -0.2867
      5  CB        23.8040   41.1680   51.4180 C.3    63  HIS63       0.0745
      6  CG        24.2160   39.7260   51.6050 C.ar   63  HIS63       0.0817
      7  ND1       25.2060   39.1270   50.8490 N.ar   63  HIS63      -0.2268
      8  CD2       23.7670   38.7780   52.4500 C.ar   63  HIS63       0.1154
      9  CE1       25.3590   37.8720   51.2350 C.ar   63  HIS63       0.1986
     10  NE2       24.4960   37.6330   52.2050 N.ar   63  HIS63      -0.2212
     11  N         30.8310   45.6030   57.3800 N.3    87  PHE87      -0.1227
     12  CA        30.6500   45.5440   55.9050 C.3    87  PHE87       0.1736
     13  C         29.2260   45.2210   55.4480 C.2    87  PHE87       0.2595
     14  O         28.7990   45.6160   54.3570 O.2    87  PHE87      -0.2718
     15  CB        31.7670   44.7650   55.1780 C.3    87  PHE87       0.0547
     16  CG        31.7630   43.2850   55.4350 C.ar   87  PHE87      -0.0202
     17  CD1       32.3650   42.7580   56.5980 C.ar   87  PHE87      -0.0042
     18  CD2       31.1950   42.4310   54.5280 C.ar   87  PHE87      -0.0042
     19  CE1       32.3840   41.3670   56.8320 C.ar   87  PHE87      -0.0003
     20  CE2       31.2200   41.0470   54.7530 C.ar   87  PHE87      -0.0003
     21  CZ        31.8090   40.5320   55.8860 C.ar   87  PHE87      -0.0000
     22  N         28.4920   44.4830   56.2810 N.am   88  GLN88      -0.1979
     23  CA        27.2330   43.9260   55.8580 C.3    88  GLN88       0.1601
     24  C         26.4190   43.5040   57.0600 C.2    88  GLN88       0.2287
     25  O         26.9750   43.2550   58.1600 O.2    88  GLN88      -0.2864
     26  CB        27.5200   42.7070   54.9610 C.3    88  GLN88       0.0394
     27  CG        26.3480   41.8410   54.6530 C.3    88  GLN88       0.0908
     28  CD        26.7320   40.6620   53.8030 C.2    88  GLN88       0.2608
     29  OE1       26.6010   39.4880   54.2180 O.2    88  GLN88      -0.2717
     30  NE2       27.1800   40.9370   52.6310 N.am   88  GLN88      -0.0878
     31  N         22.7330   40.8560   57.3860 N.3    90  HIS90      -0.1241
     32  CA        21.7600   40.0270   56.7200 C.3    90  HIS90       0.1621
     33  C         21.0390   39.1570   57.7840 C.2    90  HIS90       0.2264
     34  O         21.4060   39.2090   58.9920 O.2    90  HIS90      -0.2867
     35  CB        22.4490   39.1390   55.6550 C.3    90  HIS90       0.0745
     36  CG        23.4350   38.1540   56.2300 C.ar   90  HIS90       0.0817
     37  ND1       24.8030   38.3360   56.1480 N.ar   90  HIS90      -0.2268
     38  CD2       23.2510   36.9720   56.8670 C.ar   90  HIS90       0.1154
     39  CE1       25.4190   37.3240   56.7350 C.ar   90  HIS90       0.1986
     40  NE2       24.5010   36.4980   57.2010 N.ar   90  HIS90      -0.2212
     41  N         18.9060   35.2480   58.6410 N.3    92  HIS92      -0.1241
     42  CA        18.6040   33.8440   58.2900 C.3    92  HIS92       0.1621
     43  C         17.2360   33.6080   58.9020 C.2    92  HIS92       0.2264
     44  O         16.9260   34.1430   60.0090 O.2    92  HIS92      -0.2867
     45  CB        19.6100   32.8850   58.9180 C.3    92  HIS92       0.0745
     46  CG        20.9870   33.0660   58.3950 C.ar   92  HIS92       0.0817
     47  ND1       21.5230   32.2700   57.3980 N.ar   92  HIS92      -0.2268
     48  CD2       21.9270   33.9940   58.6850 C.ar   92  HIS92       0.1154
     49  CE1       22.7560   32.6750   57.1290 C.ar   92  HIS92       0.1986
     50  NE2       23.0400   33.7100   57.9180 N.ar   92  HIS92      -0.2212
     51  N         22.6150   38.6520   61.4750 N.3   115  HIS115     -0.1241
     52  CA        24.0960   38.6460   61.4490 C.3   115  HIS115      0.1621
     53  C         24.6420   40.0460   61.0390 C.2   115  HIS115      0.2264
     54  O         24.3410   40.5420   59.9560 O.2   115  HIS115     -0.2867
     55  CB        24.6200   37.5730   60.5080 C.3   115  HIS115      0.0745
     56  CG        24.3930   36.1610   61.0220 C.ar  115  HIS115      0.0817
     57  ND1       24.4910   35.0270   60.2240 N.ar  115  HIS115     -0.2268
     58  CD2       24.0860   35.7230   62.2700 C.ar  115  HIS115      0.1154
     59  CE1       24.2170   33.9570   60.9680 C.ar  115  HIS115      0.1986
     60  NE2       23.9690   34.3530   62.2100 N.ar  115  HIS115     -0.2212
     61  N         28.0790   41.7560   60.2170 N.3   117  ALA117     -0.1245
     62  CA        29.4430   41.2940   59.8730 C.3   117  ALA117      0.1562
     63  C         30.5190   42.3990   59.7210 C.2   117  ALA117      0.2260
     64  O         30.2410   43.4770   59.1760 O.2   117  ALA117     -0.2867
     65  CB        29.3780   40.4240   58.6200 C.3   117  ALA117      0.0290
     66  N         37.2640   37.7820   60.3500 N.3   137  LEU137     -0.1245
     67  CA        35.8840   38.2990   60.4820 C.3   137  LEU137      0.1561
     68  C         35.3710   38.2560   61.9280 C.2   137  LEU137      0.2260
     69  O         35.8020   37.4340   62.7320 O.2   137  LEU137     -0.2867
     70  CB        34.9580   37.5250   59.5760 C.3   137  LEU137      0.0270
     71  CG        35.3850   37.3740   58.1180 C.3   137  LEU137      0.0019
     72  CD1       34.4550   36.4190   57.3850 C.3   137  LEU137      0.0001
     73  CD2       35.3940   38.7580   57.4480 C.3   137  LEU137      0.0001
     74  N         31.4040   38.6140   63.6060 N.3   139  VAL139     -0.1245
     75  CA        29.9710   38.6650   63.3010 C.3   139  VAL139      0.1561
     76  C         29.1680   38.5910   64.5890 C.2   139  VAL139      0.2260
     77  O         29.3690   37.6770   65.4090 O.2   139  VAL139     -0.2867
     78  CB        29.5280   37.5430   62.3480 C.3   139  VAL139      0.0252
     79  CG1       28.0580   37.7470   61.9380 C.3   139  VAL139      0.0019
     80  CG2       30.4160   37.5280   61.1150 C.3   139  VAL139      0.0019
     81  N         31.7650   30.9310   58.6040 N.3   194  LEU194     -0.1231
     82  CA        30.5870   31.3660   57.8510 C.3   194  LEU194      0.1693
     83  C         29.6240   30.2020   57.9160 C.2   194  LEU194      0.2593
     84  O         30.0840   29.0500   57.9380 O.2   194  LEU194     -0.2718
     85  CB        30.9490   31.6120   56.3730 C.3   194  LEU194      0.0284
     86  CG        32.0200   32.6670   56.0470 C.3   194  LEU194      0.0019
     87  CD1       32.0660   32.8030   54.5300 C.3   194  LEU194      0.0001
     88  CD2       31.6750   34.0290   56.6690 C.3   194  LEU194      0.0001
     89  N         28.3130   30.4750   57.9530 N.am  195  THR195     -0.1939
     90  CA        27.3300   29.3740   58.0230 C.3   195  THR195      0.2028
     91  C         26.8180   28.8810   56.6690 C.2   195  THR195      0.2642
     92  O         25.9710   28.0100   56.6180 O.2   195  THR195     -0.2714
     93  CB        26.1320   29.6800   58.9460 C.3   195  THR195      0.1808
     94  OG1       25.3670   30.7540   58.3710 O.3   195  THR195     -0.2208
     95  CG2       26.6380   30.0950   60.3130 C.3   195  THR195      0.0379
     96  N         27.2890   29.4750   55.5750 N.am  196  HIS196     -0.1973
     97  CA        26.9990   28.9180   54.2670 C.3   196  HIS196      0.1656
     98  C         28.3210   28.9170   53.4400 C.2   196  HIS196      0.2291
     99  O         29.2810   29.5250   53.8760 O.2   196  HIS196     -0.2864
    100  CB        25.8590   29.6810   53.6050 C.3   196  HIS196      0.0771
    101  CG        26.1800   31.1190   53.3200 C.ar  196  HIS196      0.0820
    102  ND1       27.1080   31.5120   52.3780 N.ar  196  HIS196     -0.2267
    103  CD2       25.7130   32.2540   53.8790 C.ar  196  HIS196      0.1154
    104  CE1       27.2030   32.8280   52.3750 C.ar  196  HIS196      0.1986
    105  NE2       26.3480   33.3080   53.2610 N.ar  196  HIS196     -0.2212
    106  N         32.6090   34.6150   66.5040 N.3   205  TRP205     -0.1241
    107  CA        31.1880   34.8930   66.7860 C.3   205  TRP205      0.1605
    108  C         30.9370   35.6550   68.0800 C.2   205  TRP205      0.2264
    109  O         31.5130   35.3250   69.1240 O.2   205  TRP205     -0.2867
    110  CB        30.3630   33.5930   66.7810 C.3   205  TRP205      0.0550
    111  CG        30.1230   33.1290   65.4060 C.ar  205  TRP205      0.0003
    112  CD1       30.8470   32.2060   64.7180 C.ar  205  TRP205      0.0946
    113  CD2       29.1190   33.6220   64.4930 C.ar  205  TRP205      0.0152
    114  NE1       30.3540   32.0920   63.4300 N.ar  205  TRP205     -0.2442
    115  CE2       29.2900   32.9400   63.2800 C.ar  205  TRP205      0.0810
    116  CE3       28.0910   34.5910   64.5980 C.ar  205  TRP205      0.0012
    117  CZ2       28.4530   33.1580   62.1490 C.ar  205  TRP205      0.0191
    118  CZ3       27.2740   34.8070   63.5000 C.ar  205  TRP205      0.0001
    119  CH2       27.4520   34.0810   62.2910 C.ar  205  TRP205      0.0015
@<TRIPOS>BOND
     1     7     9   ar
     2     7     6   ar
     3     4     3    2
     4     9    10   ar
     5     1     2    1
     6     5     6    1
     7     5     2    1
     8     6     8   ar
     9     3     2    1
    10    10     8   ar
    11   104   102   ar
    12   104   105   ar
    13   102   101   ar
    14    30    28   am
    15   105   103   ar
    16   101   100    1
    17   101   103   ar
    18    98    99    2
    19    98    97    1
    20   100    97    1
    21    28    29    2
    22    28    27    1
    23    97    96    1
    24    14    13    2
    25    18    20   ar
    26    18    16   ar
    27    87    86    1
    28    27    26    1
    29    20    21   ar
    30    26    23    1
    31    15    16    1
    32    15    12    1
    33    16    17   ar
    34    13    12    1
    35    13    22   am
    36    96    91   am
    37    35    36    1
    38    35    32    1
    39    23    22    1
    40    23    24    1
    41    21    19   ar
    42    12    11    1
    43    86    85    1
    44    86    88    1
    45    37    36   ar
    46    37    39   ar
    47    36    38   ar
    48    85    82    1
    49    17    19   ar
    50    92    91    2
    51    91    90    1
    52    32    31    1
    53    32    33    1
    54    39    40   ar
    55    38    40   ar
    56    24    25    2
    57    49    47   ar
    58    49    50   ar
    59    72    71    1
    60    47    46   ar
    61    73    71    1
    62    33    34    2
    63    82    83    1
    64    82    81    1
    65    83    84    2
    66    83    89   am
    67    50    48   ar
    68    89    90    1
    69    90    93    1
    70    71    70    1
    71    42    41    1
    72    42    43    1
    73    42    45    1
    74    94    93    1
    75    46    48   ar
    76    46    45    1
    77    65    62    1
    78    43    44    2
    79    93    95    1
    80    64    63    2
    81    70    67    1
    82    63    62    1
    83    62    61    1
    84    54    53    2
    85    57    59   ar
    86    57    56   ar
    87    66    67    1
    88    67    68    1
    89    55    56    1
    90    55    52    1
    91    59    60   ar
    92    56    58   ar
    93    53    52    1
    94    80    78    1
    95    52    51    1
    96    68    69    2
    97    79    78    1
    98   117   119   ar
    99   117   115   ar
   100    60    58   ar
   101   119   118   ar
   102    78    75    1
   103   115   114   ar
   104   115   113   ar
   105    75    74    1
   106    75    76    1
   107   114   112   ar
   108   118   116   ar
   109   113   116   ar
   110   113   111   ar
   111    76    77    2
   112   112   111   ar
   113   111   110    1
   114   106   107    1
   115   110   107    1
   116   107   108    1
   117   108   109    2
