@<TRIPOS>MOLECULE
tmp/6hx1A00.pdb
 173 162 0 0 0
SMALL
GASTEIGER

@<TRIPOS>ATOM
      1  N         -2.3110   -3.3640   30.6650 N.3    16  LEU16      -0.1231
      2  CA        -3.1550   -3.7170   29.5130 C.3    16  LEU16       0.1696
      3  C         -4.6420   -3.5040   29.7820 C.2    16  LEU16       0.2631
      4  O         -5.4000   -3.2530   28.8500 O.2    16  LEU16      -0.2714
      5  CB        -2.9340   -5.1720   29.1040 C.3    16  LEU16       0.0284
      6  CG        -1.5160   -5.5970   28.7230 C.3    16  LEU16       0.0019
      7  CD1       -1.5230   -7.0840   28.4050 C.3    16  LEU16       0.0001
      8  CD2       -0.9640   -4.7880   27.5510 C.3    16  LEU16       0.0001
      9  N         -5.0670   -3.6270   31.0370 N.am   17  GLY17      -0.1732
     10  CA        -6.4690   -3.4110   31.3670 C.2    17  GLY17       0.1340
     11  C         -6.8710   -3.5230   32.8190 C.2    17  GLY17       0.2521
     12  O         -6.0730   -3.8970   33.6790 O.2    17  GLY17      -0.2816
     13  N         -4.5610   -6.1620   34.7920 N.3    25  VAL25      -0.1245
     14  CA        -3.7990   -7.0400   33.9140 C.3    25  VAL25       0.1561
     15  C         -2.5960   -6.2590   33.4220 C.2    25  VAL25       0.2260
     16  O         -2.7390   -5.1420   32.9160 O.2    25  VAL25      -0.2867
     17  CB        -4.6640   -7.5690   32.7520 C.3    25  VAL25       0.0252
     18  CG1       -3.8220   -8.2500   31.6740 C.3    25  VAL25       0.0019
     19  CG2       -5.6700   -8.5670   33.2950 C.3    25  VAL25       0.0019
     20  N          0.1090  -12.2670   29.6720 N.3    36  ALA36      -0.1245
     21  CA        -0.7170  -11.3690   30.4510 C.3    36  ALA36       0.1562
     22  C         -0.6320  -11.8600   31.8960 C.2    36  ALA36       0.2260
     23  O         -0.6890  -13.0660   32.1540 O.2    36  ALA36      -0.2867
     24  CB        -2.1490  -11.3820   29.9520 C.3    36  ALA36       0.0290
     25  N         -2.4510  -11.3160   35.4180 N.3    38  LYS38      -0.1245
     26  CA        -3.6350  -10.8250   36.1180 C.3    38  LYS38       0.1561
     27  C         -3.3390  -10.7960   37.6120 C.2    38  LYS38       0.2260
     28  O         -2.9950  -11.8270   38.1900 O.2    38  LYS38      -0.2867
     29  CB        -4.8110  -11.7570   35.8300 C.3    38  LYS38       0.0271
     30  CG        -6.1770  -11.3190   36.3420 C.3    38  LYS38       0.0035
     31  CD        -7.1140  -12.5190   36.3300 C.3    38  LYS38       0.0206
     32  CE        -8.5630  -12.1590   36.5910 C.3    38  LYS38       0.1093
     33  NZ        -9.4000  -13.3920   36.6240 N.3    38  LYS38      -0.1314
     34  N         -7.4270  -20.8090   25.5370 N.3    55  ILE55      -0.1245
     35  CA        -6.4350  -19.9980   26.2440 C.3    55  ILE55       0.1561
     36  C         -5.8350  -20.7500   27.4370 C.2    55  ILE55       0.2260
     37  O         -6.5510  -21.4460   28.1650 O.2    55  ILE55      -0.2867
     38  CB        -7.0260  -18.6320   26.6850 C.3    55  ILE55       0.0252
     39  CG1       -5.9170  -17.6000   26.8780 C.3    55  ILE55       0.0019
     40  CG2       -7.8790  -18.7350   27.9530 C.3    55  ILE55       0.0019
     41  CD1       -6.4040  -16.1910   26.6710 C.3    55  ILE55       0.0001
     42  N         -3.9590  -20.8300   31.0790 N.3    57  TYR57      -0.1241
     43  CA        -3.6280  -20.2200   32.3540 C.3    57  TYR57       0.1605
     44  C         -2.4120  -20.9810   32.8720 C.2    57  TYR57       0.2264
     45  O         -2.5380  -22.0940   33.3890 O.2    57  TYR57      -0.2867
     46  CB        -4.8120  -20.3420   33.3110 C.3    57  TYR57       0.0534
     47  CG        -5.9210  -19.3570   33.0190 C.ar   57  TYR57      -0.0201
     48  CD1       -6.7540  -19.5120   31.9050 C.ar   57  TYR57      -0.0009
     49  CD2       -6.1390  -18.2630   33.8550 C.ar   57  TYR57      -0.0009
     50  CE1       -7.7740  -18.6010   31.6380 C.ar   57  TYR57       0.0417
     51  CE2       -7.1530  -17.3510   33.6000 C.ar   57  TYR57       0.0417
     52  CZ        -7.9670  -17.5180   32.4920 C.ar   57  TYR57       0.1957
     53  OH        -8.9690  -16.6020   32.2490 O.3    57  TYR57      -0.2866
     54  N         -1.1090  -15.6940   32.0980 N.3    71  ILE71      -0.1231
     55  CA        -2.1320  -16.0430   31.1110 C.3    71  ILE71       0.1692
     56  C         -1.5710  -15.8080   29.7050 C.2    71  ILE71       0.2592
     57  O         -0.8680  -14.8210   29.4620 O.2    71  ILE71      -0.2718
     58  CB        -3.4100  -15.1930   31.3110 C.3    71  ILE71       0.0266
     59  CG1       -3.9850  -15.3850   32.7210 C.3    71  ILE71       0.0019
     60  CG2       -4.4790  -15.5520   30.2870 C.3    71  ILE71       0.0020
     61  CD1       -4.8750  -14.2530   33.1860 C.3    71  ILE71       0.0001
     62  N         -1.9100  -16.7140   28.7900 N.am   72  GLU72      -0.1966
     63  CA        -1.4560  -16.6570   27.3990 C.3    72  GLU72       0.1733
     64  C         -1.9230  -15.3700   26.7010 C.2    72  GLU72       0.2616
     65  O         -3.1140  -15.0710   26.6500 O.2    72  GLU72      -0.2715
     66  CB        -1.9440  -17.9010   26.6520 C.3    72  GLU72       0.0429
     67  CG        -1.4240  -18.0500   25.2300 C.3    72  GLU72       0.1163
     68  CD        -1.7040  -19.4200   24.6360 C.2    72  GLU72       0.3649
     69  OE1       -2.4780  -20.2000   25.2330 O.co2  72  GLU72      -0.2457
     70  OE2       -1.1490  -19.7320   23.5630 O.co2  72  GLU72      -0.2457
     71  N         -0.9580  -14.6270   26.1660 N.am   73  LEU73      -0.1963
     72  CA        -1.1580  -13.2530   25.7090 C.3    73  LEU73       0.1728
     73  C         -1.7300  -13.2020   24.2970 C.2    73  LEU73       0.2616
     74  O         -1.2570  -13.9060   23.4170 O.2    73  LEU73      -0.2715
     75  CB         0.1890  -12.5220   25.7330 C.3    73  LEU73       0.0311
     76  CG         0.2360  -11.0340   25.3840 C.3    73  LEU73       0.0022
     77  CD1       -0.4860  -10.2100   26.4360 C.3    73  LEU73       0.0001
     78  CD2        1.6790  -10.5740   25.2560 C.3    73  LEU73       0.0001
     79  N         -2.7290  -12.3520   24.0780 N.am   74  CYS74      -0.1954
     80  CA        -3.2780  -12.1330   22.7310 C.3    74  CYS74       0.1843
     81  C         -2.8520  -10.7730   22.1620 C.2    74  CYS74       0.2625
     82  O         -2.5510   -9.8370   22.9100 O.2    74  CYS74      -0.2714
     83  CB        -4.8020  -12.2520   22.7520 C.3    74  CYS74       0.0997
     84  SG        -5.6760  -10.7530   23.2370 S.3    74  CYS74      -0.0797
     85  N         -2.8270  -10.6880   20.8330 N.am   75  ALA75      -0.1963
     86  CA        -2.5690   -9.4390   20.1100 C.3    75  ALA75       0.1728
     87  C         -3.8540   -8.6420   19.8780 C.2    75  ALA75       0.2616
     88  O         -3.8220   -7.4170   19.8310 O.2    75  ALA75      -0.2715
     89  CB        -1.8960   -9.7370   18.7750 C.3    75  ALA75       0.0334
     90  N         -4.9750   -9.3450   19.7350 N.am   76  ALA76      -0.1963
     91  CA        -6.2480   -8.7410   19.3410 C.3    76  ALA76       0.1728
     92  C         -7.4080   -9.6980   19.6080 C.2    76  ALA76       0.2616
     93  O         -7.1940  -10.8950   19.8030 O.2    76  ALA76      -0.2715
     94  CB        -6.2050   -8.3840   17.8610 C.3    76  ALA76       0.0334
     95  N         -8.6280   -9.1680   19.6330 N.am   77  THR77      -0.1951
     96  CA        -9.8260  -10.0100   19.6170 C.3    77  THR77       0.1897
     97  C        -10.2350  -10.2610   18.1740 C.2    77  THR77       0.2313
     98  O         -9.7290   -9.6190   17.2490 O.2    77  THR77      -0.2863
     99  CB       -11.0230   -9.3830   20.3600 C.3    77  THR77       0.1794
    100  OG1      -11.4820   -8.2170   19.6650 O.3    77  THR77      -0.2208
    101  CG2      -10.6580   -9.0290   21.7970 C.3    77  THR77       0.0378
    102  N        -11.7370   -7.1640   16.6090 N.3    80  GLU80      -0.1245
    103  CA       -10.7420   -6.2780   16.0110 C.3    80  GLU80       0.1567
    104  C        -10.2250   -6.8260   14.6800 C.2    80  GLU80       0.2260
    105  O        -10.0980   -6.0800   13.7080 O.2    80  GLU80      -0.2867
    106  CB        -9.6000   -6.0480   17.0050 C.3    80  GLU80       0.0388
    107  CG       -10.0540   -5.2580   18.2320 C.3    80  GLU80       0.1160
    108  CD        -9.1460   -5.3850   19.4460 C.2    80  GLU80       0.3649
    109  OE1       -8.1840   -6.1800   19.4330 O.co2  80  GLU80      -0.2457
    110  OE2       -9.4120   -4.6860   20.4430 O.co2  80  GLU80      -0.2457
    111  N         -9.7580  -14.9370   20.8240 N.3   124  LEU124     -0.1245
    112  CA        -8.5760  -14.0910   20.8490 C.3   124  LEU124      0.1561
    113  C         -7.5720  -14.5530   19.8090 C.2   124  LEU124      0.2260
    114  O         -7.4270  -15.7510   19.5730 O.2   124  LEU124     -0.2867
    115  CB        -7.9690  -14.0960   22.2540 C.3   124  LEU124      0.0270
    116  CG        -8.9320  -13.7430   23.3960 C.3   124  LEU124      0.0019
    117  CD1       -8.1860  -13.6430   24.7140 C.3   124  LEU124      0.0001
    118  CD2       -9.6790  -12.4400   23.1460 C.3   124  LEU124      0.0001
    119  N        -11.3580  -17.8880   24.8710 N.3   139  SER139     -0.1217
    120  CA       -11.1140  -17.4210   26.2260 C.3   139  SER139      0.1889
    121  C        -12.4190  -17.4370   26.9960 C.2   139  SER139      0.2288
    122  O        -13.4980  -17.3220   26.4110 O.2   139  SER139     -0.2866
    123  CB       -10.5790  -15.9880   26.1960 C.3   139  SER139      0.2089
    124  OG       -10.4010  -15.4650   27.5060 O.3   139  SER139     -0.2183
    125  N        -12.6480  -15.0690   29.4760 N.3   141  PHE141     -0.1241
    126  CA       -12.8000  -13.6140   29.5520 C.3   141  PHE141      0.1605
    127  C        -12.8340  -12.9930   28.1580 C.2   141  PHE141      0.2264
    128  O        -12.0150  -13.3280   27.3000 O.2   141  PHE141     -0.2867
    129  CB       -11.6780  -12.9900   30.3800 C.3   141  PHE141      0.0534
    130  CG       -11.8180  -13.2300   31.8540 C.ar  141  PHE141     -0.0203
    131  CD1      -11.5790  -14.4920   32.3850 C.ar  141  PHE141     -0.0042
    132  CD2      -12.1920  -12.2030   32.7140 C.ar  141  PHE141     -0.0042
    133  CE1      -11.6930  -14.7270   33.7480 C.ar  141  PHE141     -0.0003
    134  CE2      -12.3150  -12.4310   34.0790 C.ar  141  PHE141     -0.0003
    135  CZ       -12.0620  -13.6940   34.5980 C.ar  141  PHE141     -0.0000
    136  N        -12.6060   -9.4010   25.8820 N.3   143  LEU143     -0.1245
    137  CA       -11.9390   -8.0970   25.9230 C.3   143  LEU143      0.1561
    138  C        -12.6780   -7.0700   25.0730 C.2   143  LEU143      0.2260
    139  O        -13.0960   -7.3750   23.9580 O.2   143  LEU143     -0.2867
    140  CB       -10.4930   -8.2140   25.4450 C.3   143  LEU143      0.0270
    141  CG        -9.6530   -9.3510   26.0320 C.3   143  LEU143      0.0019
    142  CD1       -8.2410   -9.2680   25.4740 C.3   143  LEU143      0.0001
    143  CD2       -9.6240   -9.3150   27.5500 C.3   143  LEU143      0.0001
    144  N        -12.1750   -3.0440   23.7790 N.3   145  LYS145     -0.1245
    145  CA       -11.2830   -1.8940   23.6670 C.3   145  LYS145      0.1561
    146  C        -11.9510   -0.6530   24.2590 C.2   145  LYS145      0.2260
    147  O        -13.1560   -0.4540   24.0860 O.2   145  LYS145     -0.2867
    148  CB       -10.9000   -1.6470   22.2050 C.3   145  LYS145      0.0271
    149  CG        -9.6110   -0.8510   22.0390 C.3   145  LYS145      0.0035
    150  CD        -8.7800   -1.3200   20.8500 C.3   145  LYS145      0.0206
    151  CE        -7.3100   -1.0390   21.0360 C.3   145  LYS145      0.1093
    152  NZ        -7.0450    0.4090   21.2370 N.3   145  LYS145     -0.1314
    153  N         -7.7520   -2.3400   27.5160 N.3   150  HIS150     -0.1241
    154  CA        -8.9440   -3.1620   27.2980 C.3   150  HIS150      0.1621
    155  C         -9.5990   -3.5060   28.6250 C.2   150  HIS150      0.2264
    156  O         -8.9100   -3.8440   29.5770 O.2   150  HIS150     -0.2867
    157  CB        -8.5690   -4.4700   26.6010 C.3   150  HIS150      0.0745
    158  CG        -8.3000   -4.3230   25.1390 C.ar  150  HIS150      0.0817
    159  ND1       -7.1340   -3.7800   24.6480 N.ar  150  HIS150     -0.2268
    160  CD2       -9.0430   -4.6610   24.0590 C.ar  150  HIS150      0.1154
    161  CE1       -7.1710   -3.7830   23.3290 C.ar  150  HIS150      0.1986
    162  NE2       -8.3190   -4.3120   22.9450 N.ar  150  HIS150     -0.2212
    163  N        -11.7060   -6.3000   30.6340 N.3   152  PHE152     -0.1241
    164  CA       -11.9030   -7.7570   30.5650 C.3   152  PHE152      0.1605
    165  C        -13.0220   -8.1610   31.5160 C.2   152  PHE152      0.2264
    166  O        -13.1010   -7.6530   32.6370 O.2   152  PHE152     -0.2867
    167  CB       -10.6180   -8.5470   30.8790 C.3   152  PHE152      0.0534
    168  CG        -9.9530   -8.1570   32.1680 C.ar  152  PHE152     -0.0203
    169  CD1       -9.0380   -7.1110   32.1930 C.ar  152  PHE152     -0.0042
    170  CD2      -10.2350   -8.8300   33.3540 C.ar  152  PHE152     -0.0042
    171  CE1       -8.4250   -6.7360   33.3740 C.ar  152  PHE152     -0.0003
    172  CE2       -9.6200   -8.4600   34.5440 C.ar  152  PHE152     -0.0003
    173  CZ        -8.7150   -7.4070   34.5510 C.ar  152  PHE152     -0.0000
@<TRIPOS>BOND
     1   105   104    2
     2   104   103    1
     3   103   102    1
     4   103   106    1
     5   106   107    1
     6    98    97    2
     7    94    91    1
     8    97    96    1
     9   107   108    1
    10    89    86    1
    11    91    92    1
    12    91    90    1
    13   109   108   ar
    14   108   110   ar
    15   114   113    2
    16    92    95   am
    17    92    93    2
    18    96    95    1
    19    96    99    1
    20   100    99    1
    21    90    87   am
    22   113   112    1
    23    88    87    2
    24    87    86    1
    25    86    85    1
    26    99   101    1
    27   111   112    1
    28    85    81   am
    29   112   115    1
    30   150   151    1
    31   150   149    1
    32   151   152    1
    33   149   148    1
    34    81    80    1
    35    81    82    2
    36   148   145    1
    37   115   116    1
    38    80    83    1
    39    80    79    1
    40    83    84    1
    41   162   161   ar
    42   162   160   ar
    43   118   116    1
    44   161   159   ar
    45   116   117    1
    46    74    73    2
    47    70    68   ar
    48   145   144    1
    49   145   146    1
    50   139   138    2
    51   160   158   ar
    52    79    73   am
    53   147   146    2
    54    73    72    1
    55    68    67    1
    56    68    69   ar
    57   159   158   ar
    58   119   120    1
    59   138   137    1
    60   158   157    1
    61    67    66    1
    62    78    76    1
    63    76    75    1
    64    76    77    1
    65   140   137    1
    66   140   141    1
    67   142   141    1
    68    34    35    1
    69    72    75    1
    70    72    71    1
    71   136   137    1
    72   141   143    1
    73    71    64   am
    74   123   120    1
    75   123   124    1
    76   120   121    1
    77    35    38    1
    78    35    36    1
    79   122   121    2
    80   157   154    1
    81    65    64    2
    82    66    63    1
    83    41    39    1
    84    38    39    1
    85    38    40    1
    86    64    63    1
    87   154   153    1
    88   154   155    1
    89   128   127    2
    90    63    62    1
    91    36    37    2
    92     8     6    1
    93   127   126    1
    94     7     6    1
    95   155   156    2
    96     6     5    1
    97    62    56   am
    98     4     3    2
    99     5     2    1
   100    57    56    2
   101   125   126    1
   102     2     3    1
   103     2     1    1
   104   126   129    1
   105    20    21    1
   106    56    55    1
   107     3     9    1
   108    24    21    1
   109    60    58    1
   110   129   130    1
   111    21    22    1
   112   164   163    1
   113   164   167    1
   114   164   165    1
   115   167   168    1
   116     9    10    2
   117    42    43    1
   118    55    58    1
   119    55    54    1
   120    58    59    1
   121    10    11    1
   122   165   166    2
   123    50    48   ar
   124    50    52   ar
   125    18    17    1
   126   130   131   ar
   127   130   132   ar
   128    22    23    2
   129    48    47   ar
   130   168   169   ar
   131   168   170   ar
   132   169   171   ar
   133    53    52    1
   134    43    44    1
   135    43    46    1
   136   131   133   ar
   137    52    51   ar
   138   132   134   ar
   139    59    61    1
   140    17    19    1
   141    17    14    1
   142    11    12    2
   143    44    45    2
   144    16    15    2
   145    47    46    1
   146    47    49   ar
   147   170   172   ar
   148   171   173   ar
   149    15    14    1
   150    51    49   ar
   151   133   135   ar
   152    14    13    1
   153   134   135   ar
   154   172   173   ar
   155    25    26    1
   156    29    26    1
   157    29    30    1
   158    26    27    1
   159    31    30    1
   160    31    32    1
   161    32    33    1
   162    27    28    2
