@<TRIPOS>MOLECULE
tmp/6hx5A00.pdb
 108 104 0 0 0
SMALL
GASTEIGER

@<TRIPOS>ATOM
      1  N        -12.6970    6.1560   11.1950 N.3    89  GLN89      -0.1245
      2  CA       -12.3490    5.0140   10.3480 C.3    89  GLN89       0.1566
      3  C        -12.6370    3.7460   11.1140 C.2    89  GLN89       0.2260
      4  O        -12.6480    3.7910   12.3410 O.2    89  GLN89      -0.2867
      5  CB       -10.9080    5.0300    9.8530 C.3    89  GLN89       0.0367
      6  CG        -9.8510    5.1360   10.9760 C.3    89  GLN89       0.0905
      7  CD        -9.0790    3.8600   11.2350 C.2    89  GLN89       0.2608
      8  OE1       -9.6370    2.7540   11.1520 O.2    89  GLN89      -0.2717
      9  NE2       -7.8070    4.0180   11.6200 N.am   89  GLN89      -0.0878
     10  N        -11.1330   -0.4920   10.9210 N.3    91  HIS91      -0.1241
     11  CA       -10.2330   -1.4680   10.3770 C.3    91  HIS91       0.1621
     12  C        -10.3540   -2.7450   11.1580 C.2    91  HIS91       0.2264
     13  O        -11.0000   -2.7640   12.1720 O.2    91  HIS91      -0.2867
     14  CB        -8.7910   -0.9880   10.3140 C.3    91  HIS91       0.0745
     15  CG        -8.2180   -0.7360   11.6550 C.ar   91  HIS91       0.0817
     16  ND1       -8.3510    0.4650   12.3260 N.ar   91  HIS91      -0.2268
     17  CD2       -7.5760   -1.5830   12.4680 C.ar   91  HIS91       0.1154
     18  CE1       -7.8390    0.2890   13.5510 C.ar   91  HIS91       0.1986
     19  NE2       -7.3250   -0.9220   13.6360 N.ar   91  HIS91      -0.2212
     20  N         -8.0150   -6.4910   12.4290 N.3    93  HIS93      -0.1241
     21  CA        -6.8240   -7.2990   12.6070 C.3    93  HIS93       0.1621
     22  C         -7.2440   -8.7560   12.4930 C.2    93  HIS93       0.2264
     23  O         -8.3160   -9.1330   13.0040 O.2    93  HIS93      -0.2867
     24  CB        -6.2190   -7.0350   13.9800 C.3    93  HIS93       0.0745
     25  CG        -5.9230   -5.5780   14.2760 C.ar   93  HIS93       0.0817
     26  ND1       -4.6450   -5.0890   14.0680 N.ar   93  HIS93      -0.2268
     27  CD2       -6.6900   -4.4910   14.6630 C.ar   93  HIS93       0.1154
     28  CE1       -4.6370   -3.8130   14.4220 C.ar   93  HIS93       0.1986
     29  NE2       -5.8600   -3.4020   14.6980 N.ar   93  HIS93      -0.2212
     30  N        -11.9310   -2.6940   14.8750 N.3   116  HIS116     -0.1241
     31  CA       -11.7140   -1.4860   15.6230 C.3   116  HIS116      0.1621
     32  C        -12.4160   -0.3310   14.8980 C.2   116  HIS116      0.2264
     33  O        -12.0560    0.0320   13.7930 O.2   116  HIS116     -0.2867
     34  CB       -10.1960   -1.1790   15.6630 C.3   116  HIS116      0.0745
     35  CG        -9.4630   -2.1310   16.5510 C.ar  116  HIS116      0.0817
     36  ND1       -8.0580   -2.2730   16.5600 N.ar  116  HIS116     -0.2268
     37  CD2       -9.9540   -3.0190   17.4370 C.ar  116  HIS116      0.1154
     38  CE1       -7.7740   -3.1960   17.4770 C.ar  116  HIS116      0.1986
     39  NE2       -8.8830   -3.6780   17.9990 N.ar  116  HIS116     -0.2212
     40  N        -12.7750    3.4600   15.1860 N.3   118  VAL118     -0.1245
     41  CA       -11.9580    4.4800   15.8210 C.3   118  VAL118      0.1561
     42  C        -12.6430    5.8450   15.8370 C.2   118  VAL118      0.2260
     43  O        -13.1430    6.3020   14.7820 O.2   118  VAL118     -0.2867
     44  CB       -10.6500    4.6010   15.0510 C.3   118  VAL118      0.0252
     45  CG1       -9.7160    5.6490   15.6490 C.3   118  VAL118      0.0019
     46  CG2       -9.9070    3.2780   15.0030 C.3   118  VAL118      0.0019
     47  N         -8.2220   14.8730   14.7270 N.3   127  PHE127     -0.1241
     48  CA        -7.6150   13.5810   15.1050 C.3   127  PHE127      0.1605
     49  C         -6.1610   13.7140   15.5300 C.2   127  PHE127      0.2264
     50  O         -5.7530   13.1610   16.5570 O.2   127  PHE127     -0.2867
     51  CB        -7.7610   12.5630   13.9740 C.3   127  PHE127      0.0534
     52  CG        -7.1340   11.2360   14.2270 C.ar  127  PHE127     -0.0203
     53  CD1       -5.8260   10.9840   13.8600 C.ar  127  PHE127     -0.0042
     54  CD2       -7.8750   10.2110   14.8170 C.ar  127  PHE127     -0.0042
     55  CE1       -5.2560    9.7560   14.0910 C.ar  127  PHE127     -0.0003
     56  CE2       -7.3050    9.0010   15.0530 C.ar  127  PHE127     -0.0003
     57  CZ        -5.9990    8.7560   14.6930 C.ar  127  PHE127     -0.0000
     58  N         -9.0240    9.4500   22.1100 N.3   137  LEU137     -0.1245
     59  CA        -9.7180    8.4880   21.2280 C.3   137  LEU137      0.1561
     60  C        -10.6060    7.5180   22.0390 C.2   137  LEU137      0.2260
     61  O        -10.2900    7.2660   23.2280 O.2   137  LEU137     -0.2867
     62  CB        -8.7130    7.6250   20.4620 C.3   137  LEU137      0.0270
     63  CG        -7.8050    8.2360   19.4410 C.3   137  LEU137      0.0019
     64  CD1       -7.1620    7.1310   18.6070 C.3   137  LEU137      0.0001
     65  CD2       -8.3500    9.3480   18.5940 C.3   137  LEU137      0.0001
     66  N        -11.9710    3.7210   21.0530 N.3   139  VAL139     -0.1245
     67  CA       -11.9930    2.6310   20.1010 C.3   139  VAL139      0.1561
     68  C        -12.9560    1.5500   20.5650 C.2   139  VAL139      0.2260
     69  O        -12.8250    0.9870   21.6580 O.2   139  VAL139     -0.2867
     70  CB       -10.5990    2.0350   19.7650 C.3   139  VAL139      0.0252
     71  CG1      -10.7270    1.0500   18.6020 C.3   139  VAL139      0.0019
     72  CG2       -9.6920    3.1350   19.3270 C.3   139  VAL139      0.0019
     73  N         -3.0160    3.0160   21.1460 N.3   194  LEU194     -0.1231
     74  CA        -3.0740    2.4480   19.7780 C.3   194  LEU194      0.1693
     75  C         -2.3220    1.1390   19.8070 C.2   194  LEU194      0.2593
     76  O         -1.3020    0.9880   20.5390 O.2   194  LEU194     -0.2718
     77  CB        -2.3080    3.3560   18.8260 C.3   194  LEU194      0.0284
     78  CG        -2.6540    4.8080   18.8130 C.3   194  LEU194      0.0019
     79  CD1       -1.8380    5.5470   17.7770 C.3   194  LEU194      0.0001
     80  CD2       -4.0970    5.0720   18.5920 C.3   194  LEU194      0.0001
     81  N         -2.7550    0.1680   19.0210 N.am  195  THR195     -0.1939
     82  CA        -2.0590   -1.1130   18.9780 C.3   195  THR195      0.2028
     83  C         -1.0610   -1.1980   17.8360 C.2   195  THR195      0.2642
     84  O         -0.4180   -2.2550   17.6620 O.2   195  THR195     -0.2714
     85  CB        -3.0260   -2.3010   18.8560 C.3   195  THR195      0.1808
     86  OG1       -3.6480   -2.2630   17.5580 O.3   195  THR195     -0.2208
     87  CG2       -4.0550   -2.2830   19.9790 C.3   195  THR195      0.0379
     88  N         -0.9240   -0.1250   17.0630 N.am  196  THR196     -0.1950
     89  CA         0.1170    0.0000   16.0260 C.3   196  THR196      0.1897
     90  C          0.9520    1.2540   16.3420 C.2   196  THR196      0.2313
     91  O          0.4310    2.2110   16.9100 O.2   196  THR196     -0.2863
     92  CB        -0.5230    0.1620   14.6410 C.3   196  THR196      0.1794
     93  OG1       -1.5380    1.2190   14.6950 O.3   196  THR196     -0.2208
     94  CG2       -1.2090   -1.0620   14.2640 C.3   196  THR196      0.0378
     95  N        -10.5180    2.2540   25.6130 N.3   205  TRP205     -0.1241
     96  CA       -10.9690    1.0500   24.9430 C.3   205  TRP205      0.1605
     97  C        -12.3470    0.6110   25.4040 C.2   205  TRP205      0.2264
     98  O        -12.5740    0.5690   26.5950 O.2   205  TRP205     -0.2867
     99  CB        -9.9790   -0.1420   25.1260 C.3   205  TRP205      0.0550
    100  CG        -8.8130   -0.0500   24.2070 C.ar  205  TRP205      0.0003
    101  CD1       -7.5880    0.5340   24.4230 C.ar  205  TRP205      0.0946
    102  CD2       -8.8440   -0.4040   22.7950 C.ar  205  TRP205      0.0152
    103  NE1       -6.8680    0.5280   23.2630 N.ar  205  TRP205     -0.2442
    104  CE2       -7.5920   -0.1220   22.2770 C.ar  205  TRP205      0.0810
    105  CE3       -9.7790   -1.0600   21.9750 C.ar  205  TRP205      0.0012
    106  CZ2       -7.2960   -0.3590   20.9290 C.ar  205  TRP205      0.0191
    107  CZ3       -9.4830   -1.3290   20.7080 C.ar  205  TRP205      0.0001
    108  CH2       -8.2310   -1.0230   20.1810 C.ar  205  TRP205      0.0015
@<TRIPOS>BOND
     1     5     2    1
     2     5     6    1
     3    14    11    1
     4    14    15    1
     5     2     3    1
     6     2     1    1
     7    11    10    1
     8    11    12    1
     9     6     7    1
    10     3     4    2
    11     8     7    2
    12    12    13    2
    13     7     9   am
    14    15    16   ar
    15    15    17   ar
    16    16    18   ar
    17    20    21    1
    18    17    19   ar
    19    22    21    1
    20    22    23    2
    21    21    24    1
    22    18    19   ar
    23    33    32    2
    24    53    55   ar
    25    53    52   ar
    26    51    52    1
    27    51    48    1
    28    24    25    1
    29    26    25   ar
    30    26    28   ar
    31    55    57   ar
    32    52    54   ar
    33    94    92    1
    34    25    27   ar
    35    28    29   ar
    36    92    93    1
    37    92    89    1
    38    27    29   ar
    39    57    56   ar
    40    47    48    1
    41    43    42    2
    42    54    56   ar
    43    30    31    1
    44    32    31    1
    45    46    44    1
    46    44    45    1
    47    44    41    1
    48    48    49    1
    49    40    41    1
    50    49    50    2
    51    31    34    1
    52    34    35    1
    53    41    42    1
    54    89    90    1
    55    89    88    1
    56    90    91    2
    57    35    36   ar
    58    35    37   ar
    59    36    38   ar
    60    88    83   am
    61    37    39   ar
    62    38    39   ar
    63    86    85    1
    64    84    83    2
    65    79    78    1
    66    83    82    1
    67    80    78    1
    68    65    63    1
    69    71    70    1
    70    64    63    1
    71    78    77    1
    72    77    74    1
    73    85    82    1
    74    85    87    1
    75    82    81    1
    76    81    75   am
    77    72    70    1
    78    63    62    1
    79    70    67    1
    80    74    75    1
    81    74    73    1
    82    75    76    2
    83    67    68    1
    84    67    66    1
    85   108   107   ar
    86   108   106   ar
    87    62    59    1
    88    68    69    2
    89   107   105   ar
    90   106   104   ar
    91    59    60    1
    92    59    58    1
    93   105   102   ar
    94    60    61    2
    95   104   102   ar
    96   104   103   ar
    97   102   100   ar
    98   103   101   ar
    99   100   101   ar
   100   100    99    1
   101    96    99    1
   102    96    97    1
   103    96    95    1
   104    97    98    2
