@<TRIPOS>MOLECULE
tmp/6hx8B01.pdb
 169 160 0 0 0
SMALL
GASTEIGER

@<TRIPOS>ATOM
      1  N          9.0370   65.8920   31.2470 N.3   235  GLY235     -0.1210
      2  CA         8.9070   66.0390   32.6870 C.3   235  GLY235      0.1956
      3  C         10.2390   65.9800   33.4110 C.2   235  GLY235      0.2611
      4  O         10.4760   66.7470   34.3500 O.2   235  GLY235     -0.2717
      5  N         11.1310   65.0770   32.9870 N.am  236  VAL236     -0.1979
      6  CA        12.3920   64.8870   33.7060 C.3   236  VAL236      0.1595
      7  C         13.4690   65.8750   33.2910 C.2   236  VAL236      0.2287
      8  O         14.5980   65.7800   33.7880 O.2   236  VAL236     -0.2864
      9  CB        12.9260   63.4480   33.5440 C.3   236  VAL236      0.0276
     10  CG1       11.8790   62.4420   33.9940 C.3   236  VAL236      0.0022
     11  CG2       13.3430   63.1850   32.1120 C.3   236  VAL236      0.0022
     12  N         13.1750   70.7600   35.3240 N.3   239  CYS239     -0.1221
     13  CA        14.0230   71.4700   36.2720 C.3   239  CYS239      0.1808
     14  C         15.3470   71.9020   35.6530 C.2   239  CYS239      0.2601
     15  O         16.0480   72.7340   36.2390 O.2   239  CYS239     -0.2717
     16  CB        14.2590   70.6030   37.5140 C.3   239  CYS239      0.0970
     17  SG        12.7800   70.4290   38.5600 S.3   239  CYS239     -0.0800
     18  N         15.7010   71.3660   34.4860 N.am  240  LEU240     -0.1979
     19  CA        16.9130   71.7900   33.7990 C.3   240  LEU240      0.1596
     20  C         16.6740   72.9760   32.8730 C.2   240  LEU240      0.2287
     21  O         17.6020   73.7570   32.6240 O.2   240  LEU240     -0.2864
     22  CB        17.4980   70.6220   33.0000 C.3   240  LEU240      0.0297
     23  CG        17.8160   69.3330   33.7700 C.3   240  LEU240      0.0022
     24  CD1       18.1040   68.1840   32.8140 C.3   240  LEU240      0.0001
     25  CD2       18.9850   69.5400   34.7170 C.3   240  LEU240      0.0001
     26  N         14.9700   75.5230   42.4350 N.3   246  LEU246     -0.1245
     27  CA        15.8400   74.3540   42.4110 C.3   246  LEU246      0.1561
     28  C         17.1830   74.6860   41.7730 C.2   246  LEU246      0.2260
     29  O         18.2390   74.5270   42.3950 O.2   246  LEU246     -0.2867
     30  CB        15.1490   73.2080   41.6730 C.3   246  LEU246      0.0270
     31  CG        15.7860   71.8350   41.8710 C.3   246  LEU246      0.0019
     32  CD1       16.4010   71.7520   43.2570 C.3   246  LEU246      0.0001
     33  CD2       14.7420   70.7500   41.6870 C.3   246  LEU246      0.0001
     34  N         18.4980   73.0860   39.0560 N.3   248  ALA248     -0.1245
     35  CA        19.0690   71.7530   38.9480 C.3   248  ALA248      0.1562
     36  C         20.0220   71.6590   37.7640 C.2   248  ALA248      0.2260
     37  O         19.9230   72.4160   36.7930 O.2   248  ALA248     -0.2867
     38  CB        17.9690   70.7000   38.8090 C.3   248  ALA248      0.0290
     39  N         24.4960   67.7510   40.1910 N.3   252  LYS252     -0.1231
     40  CA        23.7060   67.7300   41.4210 C.3   252  LYS252      0.1693
     41  C         22.6520   66.6290   41.4000 C.2   252  LYS252      0.2591
     42  O         22.3400   66.0470   42.4470 O.2   252  LYS252     -0.2718
     43  CB        23.0480   69.0940   41.6380 C.3   252  LYS252      0.0285
     44  CG        24.0340   70.2090   41.9590 C.3   252  LYS252      0.0035
     45  CD        23.3420   71.5600   42.0060 C.3   252  LYS252      0.0206
     46  CE        24.3500   72.6960   42.0660 C.3   252  LYS252      0.1093
     47  NZ        23.6970   74.0300   41.9380 N.3   252  LYS252     -0.1314
     48  N         22.0860   66.3400   40.2270 N.am  253  LEU253     -0.1980
     49  CA        21.1700   65.2140   40.1030 C.3   253  LEU253      0.1596
     50  C         21.8650   63.9210   40.5040 C.2   253  LEU253      0.2287
     51  O         21.4220   63.2220   41.4230 O.2   253  LEU253     -0.2864
     52  CB        20.6430   65.1290   38.6700 C.3   253  LEU253      0.0297
     53  CG        19.6840   63.9780   38.3700 C.3   253  LEU253      0.0022
     54  CD1       18.4210   64.1030   39.2120 C.3   253  LEU253      0.0001
     55  CD2       19.3410   63.9470   36.8970 C.3   253  LEU253      0.0001
     56  N         22.8400   63.5530   44.2360 N.3   256  ASN256     -0.1225
     57  CA        21.7670   63.3670   45.2070 C.3   256  ASN256      0.1785
     58  C         20.9190   62.1270   44.9590 C.2   256  ASN256      0.2597
     59  O         20.1630   61.7330   45.8540 O.2   256  ASN256     -0.2718
     60  CB        20.8490   64.5950   45.2410 C.3   256  ASN256      0.1169
     61  CG        21.4890   65.7770   45.9440 C.2   256  ASN256      0.2627
     62  OD1       21.4130   65.9000   47.1640 O.2   256  ASN256     -0.2716
     63  ND2       22.1240   66.6520   45.1750 N.am  256  ASN256     -0.0877
     64  N         21.0140   61.5000   43.7820 N.am  257  MET257     -0.1979
     65  CA        20.1870   60.3430   43.4750 C.3   257  MET257      0.1605
     66  C         20.9520   59.0290   43.4390 C.2   257  MET257      0.2287
     67  O         20.3220   57.9720   43.5110 O.2   257  MET257     -0.2864
     68  CB        19.4780   60.5320   42.1240 C.3   257  MET257      0.0413
     69  CG        18.4930   61.6980   42.0840 C.3   257  MET257      0.0598
     70  SD        16.9760   61.4080   43.0220 S.3   257  MET257     -0.1393
     71  CE        16.3680   59.8970   42.2760 C.3   257  MET257      0.0692
     72  N         16.1430   56.5940   46.5420 N.3   307  THR307     -0.1203
     73  CA        15.9230   58.0300   46.4380 C.3   307  THR307      0.1994
     74  C         14.7530   58.2710   45.4980 C.2   307  THR307      0.2618
     75  O         14.4320   57.4320   44.6520 O.2   307  THR307     -0.2717
     76  CB        17.1730   58.7620   45.9310 C.3   307  THR307      0.1784
     77  OG1       17.6640   58.1020   44.7570 O.3   307  THR307     -0.2211
     78  CG2       18.2670   58.7850   46.9950 C.3   307  THR307      0.0376
     79  N         14.1170   59.4330   45.6500 N.am  308  VAL308     -0.1965
     80  CA        12.9740   59.8150   44.8260 C.3   308  VAL308      0.1727
     81  C         13.0390   61.3100   44.5350 C.2   308  VAL308      0.2616
     82  O         13.4690   62.1030   45.3790 O.2   308  VAL308     -0.2715
     83  CB        11.6320   59.4570   45.4990 C.3   308  VAL308      0.0290
     84  CG1       10.4730   59.9430   44.6480 C.3   308  VAL308      0.0023
     85  CG2       11.5300   57.9560   45.7340 C.3   308  VAL308      0.0023
     86  N         12.6010   61.6910   43.3350 N.am  309  ALA309     -0.1963
     87  CA        12.5260   63.0860   42.9210 C.3   309  ALA309      0.1728
     88  C         11.2620   63.2790   42.0980 C.2   309  ALA309      0.2616
     89  O         10.9690   62.4680   41.2130 O.2   309  ALA309     -0.2715
     90  CB        13.7610   63.4900   42.1080 C.3   309  ALA309      0.0334
     91  N         10.5110   64.3440   42.3830 N.am  310  ALA310     -0.1963
     92  CA         9.2480   64.5750   41.6940 C.3   310  ALA310      0.1728
     93  C          9.0270   66.0640   41.4770 C.2   310  ALA310      0.2616
     94  O          9.2950   66.8770   42.3650 O.2   310  ALA310     -0.2715
     95  CB         8.0690   63.9770   42.4710 C.3   310  ALA310      0.0334
     96  N          8.5230   66.4050   40.2910 N.am  311  ILE311     -0.1977
     97  CA         8.2440   67.7800   39.8930 C.3   311  ILE311      0.1596
     98  C          6.7520   67.9110   39.6100 C.2   311  ILE311      0.2287
     99  O          6.1340   66.9980   39.0530 O.2   311  ILE311     -0.2864
    100  CB         9.0770   68.1940   38.6590 C.3   311  ILE311      0.0276
    101  CG1        8.7570   69.6300   38.2360 C.3   311  ILE311      0.0022
    102  CG2        8.8580   67.2240   37.4960 C.3   311  ILE311      0.0022
    103  CD1        9.3310   70.6820   39.1560 C.3   311  ILE311      0.0001
    104  N         18.3160   59.7280   55.2030 N.3   341  PRO341     -0.2102
    105  CA        17.3190   60.6880   55.6930 C.3   341  PRO341      0.1504
    106  C         16.9100   61.6860   54.6190 C.2   341  PRO341      0.2576
    107  O         17.7430   62.1920   53.8630 O.2   341  PRO341     -0.2718
    108  CB        18.0370   61.3840   56.8580 C.3   341  PRO341      0.0282
    109  CG        19.1460   60.4450   57.2460 C.3   341  PRO341      0.0208
    110  CD        19.5760   59.8020   55.9580 C.3   341  PRO341      0.0893
    111  N         15.6090   61.9760   54.5630 N.am  342  ASN342     -0.1961
    112  CA        15.0650   62.9930   53.6590 C.3   342  ASN342      0.1819
    113  C         15.3960   62.6760   52.1990 C.2   342  ASN342      0.2621
    114  O         15.9140   63.5140   51.4590 O.2   342  ASN342     -0.2715
    115  CB        15.5680   64.3880   54.0410 C.3   342  ASN342      0.1195
    116  CG        14.7820   65.5050   53.3660 C.2   342  ASN342      0.2630
    117  OD1       13.5730   65.3960   53.1630 O.2   342  ASN342     -0.2716
    118  ND2       15.4700   66.5890   53.0190 N.am  342  ASN342     -0.0877
    119  N         15.0780   61.4520   51.7800 N.am  343  ASN343     -0.1958
    120  CA        15.4010   60.9800   50.4370 C.3   343  ASN343      0.1819
    121  C         14.2650   61.1690   49.4310 C.2   343  ASN343      0.2621
    122  O         14.2220   60.4550   48.4240 O.2   343  ASN343     -0.2715
    123  CB        15.8190   59.5050   50.4780 C.3   343  ASN343      0.1195
    124  CG        14.7590   58.6110   51.0920 C.2   343  ASN343      0.2630
    125  OD1       13.8820   59.0760   51.8170 O.2   343  ASN343     -0.2716
    126  ND2       14.8450   57.3180   50.8150 N.am  343  ASN343     -0.0877
    127  N         13.3590   62.1150   49.6690 N.am  344  VAL344     -0.1963
    128  CA        12.2900   62.4450   48.7290 C.3   344  VAL344      0.1727
    129  C         12.3300   63.9500   48.4850 C.2   344  VAL344      0.2616
    130  O         12.1250   64.7370   49.4170 O.2   344  VAL344     -0.2715
    131  CB        10.9040   62.0180   49.2460 C.3   344  VAL344      0.0290
    132  CG1        9.8250   62.3400   48.2180 C.3   344  VAL344      0.0023
    133  CG2       10.8890   60.5320   49.5940 C.3   344  VAL344      0.0023
    134  N         12.5910   64.3480   47.2400 N.am  345  LYS345     -0.1963
    135  CA        12.6960   65.7500   46.8600 C.3   345  LYS345      0.1728
    136  C         11.5170   66.1520   45.9800 C.2   345  LYS345      0.2617
    137  O         11.1090   65.3970   45.0910 O.2   345  LYS345     -0.2715
    138  CB        14.0160   66.0180   46.1310 C.3   345  LYS345      0.0311
    139  CG        14.2380   67.4790   45.7590 C.3   345  LYS345      0.0038
    140  CD        13.9900   68.3840   46.9540 C.3   345  LYS345      0.0206
    141  CE        14.2930   69.8400   46.6390 C.3   345  LYS345      0.1093
    142  NZ        15.7530   70.1240   46.6560 N.3   345  LYS345     -0.1314
    143  N         10.9750   67.3480   46.2290 N.am  346  THR346     -0.1937
    144  CA         9.8070   67.8550   45.5180 C.3   346  THR346      0.2028
    145  C         10.0650   69.2750   45.0330 C.2   346  THR346      0.2642
    146  O         10.7260   70.0620   45.7170 O.2   346  THR346     -0.2714
    147  CB         8.5640   67.8470   46.4140 C.3   346  THR346      0.1808
    148  OG1        8.3940   66.5480   46.9910 O.3   346  THR346     -0.2208
    149  CG2        7.3290   68.2020   45.6040 C.3   346  THR346      0.0379
    150  N          9.5370   69.6000   43.8540 N.am  347  ALA347     -0.1977
    151  CA         9.6790   70.9390   43.2980 C.3   347  ALA347      0.1597
    152  C          8.4650   71.2580   42.4400 C.2   347  ALA347      0.2287
    153  O          7.7370   70.3630   42.0000 O.2   347  ALA347     -0.2864
    154  CB        10.9630   71.0860   42.4760 C.3   347  ALA347      0.0319
    155  N          5.6480   64.5200   37.4210 N.3   361  THR361     -0.1218
    156  CA         6.6060   63.5570   36.8910 C.3   361  THR361      0.1862
    157  C          7.5110   63.0430   38.0040 C.2   361  THR361      0.2287
    158  O          7.9290   63.8020   38.8850 O.2   361  THR361     -0.2866
    159  CB         7.4620   64.1670   35.7760 C.3   361  THR361      0.1770
    160  OG1        6.6150   64.6270   34.7160 O.3   361  THR361     -0.2211
    161  CG2        8.4390   63.1270   35.2260 C.3   361  THR361      0.0375
    162  N         10.8060   60.4430   39.3480 N.3   363  ILE363     -0.1245
    163  CA        12.0840   59.7740   39.1070 C.3   363  ILE363      0.1561
    164  C         12.3940   58.9050   40.3150 C.2   363  ILE363      0.2260
    165  O         12.5470   59.4240   41.4280 O.2   363  ILE363     -0.2867
    166  CB        13.2290   60.7700   38.8760 C.3   363  ILE363      0.0252
    167  CG1       13.0440   61.5480   37.5770 C.3   363  ILE363      0.0019
    168  CG2       14.5610   60.0450   38.8640 C.3   363  ILE363      0.0019
    169  CD1       14.1600   62.5450   37.3300 C.3   363  ILE363      0.0001
@<TRIPOS>BOND
     1     1     2    1
     2    11     9    1
     3    21    20    2
     4     2     3    1
     5    24    23    1
     6    20    19    1
     7     5     3   am
     8     5     6    1
     9    22    23    1
    10    22    19    1
    11     7     6    1
    12     7     8    2
    13     3     4    2
    14     9     6    1
    15     9    10    1
    16    23    25    1
    17    19    18    1
    18    18    14   am
    19   160   159    1
    20   161   159    1
    21    12    13    1
    22    14    15    2
    23    14    13    1
    24   159   156    1
    25    13    16    1
    26    37    36    2
    27   156   155    1
    28   156   157    1
    29    55    53    1
    30   169   167    1
    31   102   100    1
    32    16    17    1
    33   167   166    1
    34    36    35    1
    35   157   158    2
    36   101   100    1
    37   101   103    1
    38    53    52    1
    39    53    54    1
    40   100    97    1
    41    52    49    1
    42    38    35    1
    43   168   166    1
    44   166   163    1
    45    35    34    1
    46    99    98    2
    47   163   162    1
    48   163   164    1
    49    98    97    1
    50    97    96    1
    51    49    48    1
    52    49    50    1
    53    39    40    1
    54    48    41   am
    55    96    93   am
    56   164   165    2
    57    50    51    2
    58    89    88    2
    59    41    40    1
    60    41    42    2
    61    40    43    1
    62    93    92    1
    63    93    94    2
    64    43    44    1
    65    30    31    1
    66    30    27    1
    67    33    31    1
    68    92    91    1
    69    92    95    1
    70    28    29    2
    71    28    27    1
    72    31    32    1
    73    47    46    1
    74    44    45    1
    75   153   152    2
    76    45    46    1
    77    69    68    1
    78    69    70    1
    79    88    91   am
    80    88    87    1
    81    90    87    1
    82    68    65    1
    83    71    70    1
    84    27    26    1
    85   152   151    1
    86   154   151    1
    87    87    86    1
    88   151   150    1
    89    86    81   am
    90    66    65    1
    91    66    67    2
    92    65    64    1
    93    64    58   am
    94   150   145   am
    95    56    57    1
    96    81    80    1
    97    81    82    2
    98    84    83    1
    99    75    74    2
   100    77    76    1
   101    80    83    1
   102    80    79    1
   103    58    57    1
   104    58    59    2
   105   145   144    1
   106   145   146    2
   107   137   136    2
   108    63    61   am
   109    57    60    1
   110    60    61    1
   111    74    79   am
   112    74    73    1
   113    83    85    1
   114   144   143    1
   115   144   147    1
   116   149   147    1
   117   139   138    1
   118   139   140    1
   119    76    73    1
   120    76    78    1
   121    61    62    2
   122   136   143   am
   123   136   135    1
   124   138   135    1
   125   147   148    1
   126    73    72    1
   127   141   142    1
   128   141   140    1
   129   135   134    1
   130   134   129   am
   131   132   131    1
   132   122   121    2
   133   129   128    1
   134   129   130    2
   135   128   131    1
   136   128   127    1
   137   131   133    1
   138   121   127   am
   139   121   120    1
   140   120   123    1
   141   120   119    1
   142   123   124    1
   143   126   124   am
   144   124   125    2
   145   114   113    2
   146   119   113   am
   147   113   112    1
   148   118   116   am
   149   117   116    2
   150   116   115    1
   151   112   115    1
   152   112   111    1
   153   107   106    2
   154   111   106   am
   155   106   105    1
   156   104   105    1
   157   104   110    1
   158   105   108    1
   159   110   109    1
   160   108   109    1
