@<TRIPOS>MOLECULE
tmp/6hxfD00.pdb
 144 134 0 0 0
SMALL
GASTEIGER

@<TRIPOS>ATOM
      1  N        -46.8050  -25.4570  -41.1940 N.3    20  LEU20      -0.1231
      2  CA       -47.0380  -24.6590  -39.9930 C.3    20  LEU20       0.1693
      3  C        -46.3620  -25.2560  -38.7690 C.2    20  LEU20       0.2593
      4  O        -46.0020  -24.5200  -37.8560 O.2    20  LEU20      -0.2718
      5  CB       -48.5420  -24.5250  -39.7160 C.3    20  LEU20       0.0284
      6  CG       -49.3800  -23.6830  -40.6930 C.3    20  LEU20       0.0019
      7  CD1      -50.8680  -23.7730  -40.3400 C.3    20  LEU20       0.0001
      8  CD2      -48.9140  -22.1890  -40.7640 C.3    20  LEU20       0.0001
      9  N        -46.1520  -26.5720  -38.7390 N.am   21  GLY21      -0.1942
     10  CA       -45.4680  -27.1670  -37.6200 C.3    21  GLY21       0.2014
     11  C        -45.1670  -28.6220  -37.8860 C.2    21  GLY21       0.2638
     12  O        -45.7660  -29.2530  -38.7650 O.2    21  GLY21      -0.2714
     13  N        -44.2150  -29.1370  -37.1130 N.am   22  ASP22      -0.1971
     14  CA       -43.7730  -30.5170  -37.1890 C.3    22  ASP22       0.1709
     15  C        -43.6910  -31.1250  -35.8000 C.2    22  ASP22       0.2293
     16  O        -43.3320  -30.4530  -34.8290 O.2    22  ASP22      -0.2864
     17  CB       -42.3860  -30.5840  -37.8580 C.3    22  ASP22       0.1436
     18  CG       -41.9310  -32.0000  -38.1170 C.2    22  ASP22       0.3671
     19  OD1      -42.1790  -32.5080  -39.2310 O.co2  22  ASP22      -0.2456
     20  OD2      -41.3110  -32.6040  -37.2180 O.co2  22  ASP22      -0.2456
     21  N        -46.2130  -36.5350  -34.2920 N.3    25  PHE25      -0.1241
     22  CA       -47.5150  -36.8120  -34.8780 C.3    25  PHE25       0.1605
     23  C        -47.5750  -36.5410  -36.3710 C.2    25  PHE25       0.2264
     24  O        -48.6750  -36.5680  -36.9370 O.2    25  PHE25      -0.2867
     25  CB       -48.5690  -35.9310  -34.2110 C.3    25  PHE25       0.0534
     26  CG       -48.3900  -34.4560  -34.5080 C.ar   25  PHE25      -0.0203
     27  CD1      -47.5240  -33.6840  -33.7470 C.ar   25  PHE25      -0.0042
     28  CD2      -49.0690  -33.8540  -35.5560 C.ar   25  PHE25      -0.0042
     29  CE1      -47.3520  -32.3390  -34.0070 C.ar   25  PHE25      -0.0003
     30  CE2      -48.9000  -32.5020  -35.8260 C.ar   25  PHE25      -0.0003
     31  CZ       -48.0420  -31.7440  -35.0460 C.ar   25  PHE25      -0.0000
     32  N        -48.3430  -30.2270  -39.5620 N.3    28  VAL28      -0.1245
     33  CA       -49.4770  -29.3340  -39.7420 C.3    28  VAL28       0.1561
     34  C        -49.1430  -28.4000  -40.8910 C.2    28  VAL28       0.2260
     35  O        -48.0760  -27.7740  -40.9020 O.2    28  VAL28      -0.2867
     36  CB       -49.7920  -28.5310  -38.4690 C.3    28  VAL28       0.0252
     37  CG1      -51.0580  -27.7410  -38.6570 C.3    28  VAL28       0.0019
     38  CG2      -49.9100  -29.4420  -37.2950 C.3    28  VAL28       0.0019
     39  N        -55.8470  -24.7790  -41.6910 N.3    41  ALA41      -0.1245
     40  CA       -54.7420  -25.5910  -41.1810 C.3    41  ALA41       0.1562
     41  C        -55.0740  -27.0650  -41.4030 C.2    41  ALA41       0.2260
     42  O        -56.2190  -27.4720  -41.1980 O.2    41  ALA41      -0.2867
     43  CB       -54.5020  -25.3190  -39.6980 C.3    41  ALA41       0.0290
     44  N        -53.8270  -30.6940  -40.2200 N.3    43  LYS43      -0.1245
     45  CA       -53.0540  -31.6050  -39.3800 C.3    43  LYS43       0.1561
     46  C        -53.1190  -32.9790  -40.0370 C.2    43  LYS43       0.2260
     47  O        -54.2030  -33.5510  -40.1810 O.2    43  LYS43      -0.2867
     48  CB       -53.6010  -31.6580  -37.9590 C.3    43  LYS43       0.0271
     49  CG       -52.9280  -32.6840  -37.0590 C.3    43  LYS43       0.0035
     50  CD       -53.3880  -32.5430  -35.6030 C.3    43  LYS43       0.0206
     51  CE       -52.8190  -33.5820  -34.7390 C.3    43  LYS43       0.1093
     52  NZ       -53.2100  -33.3460  -33.3360 N.3    43  LYS43      -0.1314
     53  N        -59.9350  -36.3110  -31.3200 N.3    59  GLU59      -0.1245
     54  CA       -59.6870  -34.8770  -31.4810 C.3    59  GLU59       0.1567
     55  C        -60.7410  -34.2430  -32.3850 C.2    59  GLU59       0.2260
     56  O        -61.2730  -33.1620  -32.0830 O.2    59  GLU59      -0.2867
     57  CB       -58.2760  -34.6430  -32.0630 C.3    59  GLU59       0.0388
     58  CG       -57.8600  -33.1970  -32.0320 C.3    59  GLU59       0.1160
     59  CD       -56.4310  -32.9240  -32.5210 C.2    59  GLU59       0.3649
     60  OE1      -56.1000  -31.7340  -32.6720 O.co2  59  GLU59      -0.2457
     61  OE2      -55.6550  -33.8640  -32.7500 O.co2  59  GLU59      -0.2457
     62  N        -60.8070  -23.0880  -32.0480 N.3    72  VAL72      -0.1245
     63  CA       -60.6540  -23.3790  -33.4800 C.3    72  VAL72       0.1561
     64  C        -61.7900  -24.2740  -33.9430 C.2    72  VAL72       0.2260
     65  O        -62.1400  -25.2540  -33.2770 O.2    72  VAL72      -0.2867
     66  CB       -59.3010  -24.0410  -33.8080 C.3    72  VAL72       0.0252
     67  CG1      -58.1310  -23.0130  -33.7600 C.3    72  VAL72       0.0019
     68  CG2      -59.0310  -25.2520  -32.9200 C.3    72  VAL72       0.0019
     69  N        -58.7570  -27.6890  -40.0360 N.3    88  ILE88      -0.1231
     70  CA       -59.1000  -26.8210  -38.9250 C.3    88  ILE88       0.1692
     71  C        -59.0450  -25.3780  -39.3880 C.2    88  ILE88       0.2592
     72  O        -58.2630  -25.0210  -40.2750 O.2    88  ILE88      -0.2718
     73  CB       -58.1280  -27.0360  -37.7390 C.3    88  ILE88       0.0266
     74  CG1      -58.0330  -28.5260  -37.3950 C.3    88  ILE88       0.0019
     75  CG2      -58.5200  -26.1660  -36.5210 C.3    88  ILE88       0.0020
     76  CD1      -56.7960  -28.8390  -36.5680 C.3    88  ILE88       0.0001
     77  N        -59.8770  -24.5480  -38.7660 N.am   89  GLU89      -0.1966
     78  CA       -59.8580  -23.1070  -38.9940 C.3    89  GLU89       0.1733
     79  C        -58.4360  -22.5490  -38.9270 C.2    89  GLU89       0.2616
     80  O        -57.6950  -22.8090  -37.9700 O.2    89  GLU89      -0.2715
     81  CB       -60.7360  -22.4230  -37.9390 C.3    89  GLU89       0.0429
     82  CG       -60.5390  -20.9040  -37.8820 C.3    89  GLU89       0.1163
     83  CD       -61.3690  -20.2470  -36.7860 C.2    89  GLU89       0.3649
     84  OE1      -61.9660  -20.9690  -35.9480 O.co2  89  GLU89      -0.2457
     85  OE2      -61.3850  -18.9980  -36.7370 O.co2  89  GLU89      -0.2457
     86  N        -58.0530  -21.7900  -39.9560 N.am   90  PHE90      -0.1960
     87  CA       -56.7400  -21.1560  -39.9980 C.3    90  PHE90       0.1771
     88  C        -56.7960  -19.7390  -39.4030 C.2    90  PHE90       0.2619
     89  O        -57.6880  -18.9500  -39.7330 O.2    90  PHE90      -0.2715
     90  CB       -56.2250  -21.0960  -41.4410 C.3    90  PHE90       0.0574
     91  CG       -54.9460  -20.3300  -41.5790 C.ar   90  PHE90      -0.0200
     92  CD1      -53.7610  -20.8170  -41.0120 C.ar   90  PHE90      -0.0042
     93  CD2      -54.9210  -19.1140  -42.2340 C.ar   90  PHE90      -0.0042
     94  CE1      -52.5750  -20.1060  -41.1420 C.ar   90  PHE90      -0.0003
     95  CE2      -53.7250  -18.3860  -42.3610 C.ar   90  PHE90      -0.0003
     96  CZ       -52.5540  -18.8880  -41.8130 C.ar   90  PHE90      -0.0000
     97  N        -55.8440  -19.4180  -38.5450 N.am   91  CYS91      -0.1968
     98  CA       -55.8010  -18.1150  -37.8960 C.3    91  CYS91       0.1712
     99  C        -54.6130  -17.3140  -38.4120 C.2    91  CYS91       0.2296
    100  O        -53.4630  -17.6050  -38.0380 O.2    91  CYS91      -0.2864
    101  CB       -55.7310  -18.2750  -36.3760 C.3    91  CYS91       0.0983
    102  SG       -57.0920  -19.2670  -35.6820 S.3    91  CYS91      -0.0798
    103  N        -51.5610  -15.9880  -36.3240 N.3    94  GLY94      -0.1210
    104  CA       -50.5570  -16.8790  -35.7650 C.3    94  GLY94       0.1956
    105  C        -50.6820  -17.0180  -34.2520 C.2    94  GLY94       0.2611
    106  O        -51.5880  -16.4760  -33.6020 O.2    94  GLY94      -0.2717
    107  N        -49.7160  -17.7470  -33.6840 N.am   95  ALA95      -0.1979
    108  CA       -49.6990  -18.0370  -32.2630 C.3    95  ALA95       0.1597
    109  C        -49.0770  -16.8890  -31.4800 C.2    95  ALA95       0.2287
    110  O        -48.1880  -16.1900  -31.9730 O.2    95  ALA95      -0.2864
    111  CB       -48.9200  -19.3380  -32.0070 C.3    95  ALA95       0.0319
    112  N        -48.1490  -20.6960  -27.2460 N.3   139  GLY139     -0.1210
    113  CA       -48.1170  -21.3210  -28.5630 C.3   139  GLY139      0.1956
    114  C        -49.4470  -21.9300  -29.0000 C.2   139  GLY139      0.2611
    115  O        -49.6320  -22.2030  -30.1870 O.2   139  GLY139     -0.2717
    116  N        -50.3790  -22.1380  -28.0740 N.am  140  ASN140     -0.1974
    117  CA       -51.6620  -22.7190  -28.4260 C.3   140  ASN140      0.1688
    118  C        -52.7720  -21.6770  -28.3620 C.2   140  ASN140      0.2292
    119  O        -53.9560  -22.0320  -28.3800 O.2   140  ASN140     -0.2864
    120  CB       -51.9670  -23.9480  -27.5430 C.3   140  ASN140      0.1181
    121  CG       -51.1190  -25.1590  -27.9350 C.2   140  ASN140      0.2629
    122  OD1      -50.6740  -25.2600  -29.0700 O.2   140  ASN140     -0.2716
    123  ND2      -50.8610  -26.0500  -26.9910 N.am  140  ASN140     -0.0877
    124  N        -54.0320  -18.7890  -30.6760 N.3   142  LEU142     -0.1245
    125  CA       -53.9700  -18.2030  -31.9970 C.3   142  LEU142      0.1561
    126  C        -54.7410  -16.8900  -32.0350 C.2   142  LEU142      0.2260
    127  O        -55.6520  -16.6520  -31.2370 O.2   142  LEU142     -0.2867
    128  CB       -54.5580  -19.1650  -33.0170 C.3   142  LEU142      0.0270
    129  CG       -53.8700  -20.5200  -33.0740 C.3   142  LEU142      0.0019
    130  CD1      -54.5640  -21.3440  -34.1370 C.3   142  LEU142      0.0001
    131  CD2      -52.4080  -20.3060  -33.4110 C.3   142  LEU142      0.0001
    132  N        -56.1940  -23.6240  -29.4800 N.3   152  ALA152     -0.1231
    133  CA       -55.8290  -24.5870  -30.5000 C.3   152  ALA152      0.1694
    134  C        -55.1310  -25.7860  -29.8690 C.2   152  ALA152      0.2592
    135  O        -54.8290  -25.8020  -28.6780 O.2   152  ALA152     -0.2718
    136  CB       -54.9160  -23.9440  -31.5660 C.3   152  ALA152      0.0304
    137  N        -54.8490  -26.7730  -30.7290 N.am  153  ASP153     -0.1974
    138  CA       -54.1410  -28.0180  -30.4340 C.3   153  ASP153      0.1709
    139  C        -54.7680  -28.8230  -29.3000 C.2   153  ASP153      0.2293
    140  O        -54.2290  -28.8740  -28.1840 O.2   153  ASP153     -0.2864
    141  CB       -52.6640  -27.7490  -30.1030 C.3   153  ASP153      0.1436
    142  CG       -51.8050  -29.0060  -30.3000 C.2   153  ASP153      0.3671
    143  OD1      -52.4190  -30.0920  -30.4600 O.co2 153  ASP153     -0.2456
    144  OD2      -50.5400  -28.9190  -30.3020 O.co2 153  ASP153     -0.2456
@<TRIPOS>BOND
     1    95    93   ar
     2    95    96   ar
     3    93    91   ar
     4    96    94   ar
     5    39    40    1
     6    91    90    1
     7    91    92   ar
     8    90    87    1
     9    41    42    2
    10    41    40    1
    11     1     2    1
    12    40    43    1
    13    94    92   ar
    14    35    34    2
    15    34    33    1
    16     8     6    1
    17     6     7    1
    18     6     5    1
    19    72    71    2
    20    44    45    1
    21    47    46    2
    22    46    45    1
    23    69    70    1
    24    87    86    1
    25    87    88    1
    26     2     5    1
    27     2     3    1
    28    86    79   am
    29    33    32    1
    30    33    36    1
    31    89    88    2
    32    88    97   am
    33    71    70    1
    34    71    77   am
    35    45    48    1
    36    19    18   ar
    37    78    79    1
    38    78    77    1
    39    78    81    1
    40    79    80    2
    41    70    73    1
    42     3     9   am
    43     3     4    2
    44    12    11    2
    45     9    10    1
    46    37    36    1
    47    97    98    1
    48    36    38    1
    49    99   100    2
    50    99    98    1
    51    18    17    1
    52    18    20   ar
    53    48    49    1
    54    81    82    1
    55    98   101    1
    56    11    10    1
    57    11    13   am
    58    82    83    1
    59    17    14    1
    60    73    74    1
    61    73    75    1
    62    74    76    1
    63    14    13    1
    64    14    15    1
    65    49    50    1
    66    24    23    2
    67    83    85   ar
    68    83    84   ar
    69   101   102    1
    70    23    22    1
    71   103   104    1
    72    30    28   ar
    73    30    31   ar
    74    15    16    2
    75   104   105    1
    76    50    51    1
    77    28    26   ar
    78    31    29   ar
    79    22    21    1
    80    22    25    1
    81    51    52    1
    82    26    25    1
    83    26    27   ar
    84   105   107   am
    85   105   106    2
    86   130   129    1
    87    29    27   ar
    88    64    63    1
    89    64    65    2
    90    66    67    1
    91    66    63    1
    92    66    68    1
    93   107   108    1
    94    63    62    1
    95   131   129    1
    96   129   128    1
    97   128   125    1
    98    61    59   ar
    99    60    59   ar
   100    59    58    1
   101    55    56    2
   102    55    54    1
   103   108   111    1
   104   108   109    1
   105    57    58    1
   106    57    54    1
   107   126   125    1
   108   126   127    2
   109   125   124    1
   110   110   109    2
   111   136   133    1
   112    54    53    1
   113   137   138    1
   114   137   134   am
   115   133   134    1
   116   133   132    1
   117   143   142   ar
   118   138   141    1
   119   138   139    1
   120   144   142   ar
   121   142   141    1
   122   115   114    2
   123   134   135    2
   124   139   140    2
   125   122   121    2
   126   114   113    1
   127   114   116   am
   128   113   112    1
   129   117   118    1
   130   117   116    1
   131   117   120    1
   132   119   118    2
   133   121   120    1
   134   121   123   am
