@<TRIPOS>MOLECULE
tmp/6hy2A00.pdb
 141 130 0 0 0
SMALL
GASTEIGER

@<TRIPOS>ATOM
      1  N        -14.4440   16.0040    8.5750 N.3   116  LEU116     -0.1245
      2  CA       -14.1880   16.4830    9.9250 C.3   116  LEU116      0.1561
      3  C        -14.6690   17.9250   10.0030 C.2   116  LEU116      0.2260
      4  O        -14.1200   18.8050    9.3360 O.2   116  LEU116     -0.2867
      5  CB       -12.7030   16.3720   10.2990 C.3   116  LEU116      0.0270
      6  CG       -12.2740   17.0530   11.6070 C.3   116  LEU116      0.0019
      7  CD1      -12.9450   16.4220   12.8230 C.3   116  LEU116      0.0001
      8  CD2      -10.7600   16.9900   11.7450 C.3   116  LEU116      0.0001
      9  N        -14.9080   20.7830   12.4670 N.3   118  MET118     -0.1245
     10  CA       -14.3390   21.1790   13.7510 C.3   118  MET118      0.1570
     11  C        -15.2360   22.1660   14.5080 C.2   118  MET118      0.2261
     12  O        -16.2760   22.6020   13.9760 O.2   118  MET118     -0.2867
     13  CB       -12.9020   21.6790   13.5640 C.3   118  MET118      0.0387
     14  CG       -11.9830   20.5700   13.0470 C.3   118  MET118      0.0595
     15  SD       -10.3720   21.1100   12.4410 S.3   118  MET118     -0.1393
     16  CE        -9.5370   21.5880   13.9260 C.3   118  MET118      0.0692
     17  N        -12.3200   19.0130    5.4160 N.3   134  ILE134     -0.1245
     18  CA       -12.1200   19.5300    6.7670 C.3   134  ILE134      0.1561
     19  C        -12.5890   20.9730    6.8170 C.2   134  ILE134      0.2260
     20  O        -12.1490   21.8020    6.0250 O.2   134  ILE134     -0.2867
     21  CB       -10.6410   19.4300    7.2330 C.3   134  ILE134      0.0252
     22  CG1      -10.1640   17.9730    7.1680 C.3   134  ILE134      0.0019
     23  CG2      -10.4940   19.9800    8.6640 C.3   134  ILE134      0.0019
     24  CD1       -8.6930   17.7640    7.4840 C.3   134  ILE134      0.0001
     25  N        -12.3190   23.8190    9.5200 N.3   136  ALA136     -0.1231
     26  CA       -11.6400   24.0800   10.7940 C.3   136  ALA136      0.1694
     27  C        -12.5020   24.9320   11.7350 C.2   136  ALA136      0.2592
     28  O        -13.5850   25.3810   11.3460 O.2   136  ALA136     -0.2718
     29  CB       -10.2630   24.7080   10.5630 C.3   136  ALA136      0.0304
     30  N        -12.0420   25.1310   12.9730 N.am  137  ASN137     -0.1974
     31  CA       -12.8120   25.8780   13.9800 C.3   137  ASN137      0.1688
     32  C        -13.3900   27.1640   13.4080 C.2   137  ASN137      0.2292
     33  O        -12.6860   27.9250   12.7360 O.2   137  ASN137     -0.2864
     34  CB       -11.9670   26.2320   15.2140 C.3   137  ASN137      0.1181
     35  CG       -11.4270   25.0120   15.9420 C.2   137  ASN137      0.2629
     36  OD1      -10.9450   24.0700   15.3210 O.2   137  ASN137     -0.2716
     37  ND2      -11.4780   25.0430   17.2730 N.am  137  ASN137     -0.0877
     38  N        -10.1090   21.7310    2.2910 N.3   152  ILE152     -0.1231
     39  CA        -9.8300   22.0890    3.6790 C.3   152  ILE152      0.1692
     40  C        -10.0580   23.5900    3.8300 C.2   152  ILE152      0.2592
     41  O         -9.4600   24.3880    3.1010 O.2   152  ILE152     -0.2718
     42  CB        -8.3770   21.7260    4.0820 C.3   152  ILE152      0.0266
     43  CG1       -8.1680   20.2060    4.0160 C.3   152  ILE152      0.0019
     44  CG2       -8.0400   22.2860    5.4750 C.3   152  ILE152      0.0020
     45  CD1       -6.7160   19.7680    4.0930 C.3   152  ILE152      0.0001
     46  N        -10.9270   23.9650    4.7650 N.am  153  ILE153     -0.1966
     47  CA       -11.2540   25.3730    4.9930 C.3   153  ILE153      0.1727
     48  C        -10.7150   25.7900    6.3570 C.2   153  ILE153      0.2617
     49  O        -11.1090   25.2350    7.3840 O.2   153  ILE153     -0.2715
     50  CB       -12.7740   25.6390    4.8600 C.3   153  ILE153      0.0290
     51  CG1      -13.2420   25.2420    3.4490 C.3   153  ILE153      0.0022
     52  CG2      -13.0910   27.1110    5.1300 C.3   153  ILE153      0.0023
     53  CD1      -14.7140   25.0390    3.3180 C.3   153  ILE153      0.0001
     54  N         -9.8030   26.7650    6.3500 N.am  154  GLY154     -0.1940
     55  CA        -9.0610   27.1550    7.5520 C.3   154  GLY154      0.2014
     56  C         -9.9090   27.8140    8.6270 C.2   154  GLY154      0.2639
     57  O        -11.0630   28.1880    8.3880 O.2   154  GLY154     -0.2714
     58  N         -9.3250   27.9650    9.8150 N.am  155  GLY155     -0.1939
     59  CA       -10.0250   28.5570   10.9530 C.3   155  GLY155      0.2014
     60  C        -10.5390   29.9640   10.6780 C.2   155  GLY155      0.2638
     61  O         -9.8420   30.7700   10.0520 O.2   155  GLY155     -0.2714
     62  N        -11.7600   30.2320   11.1510 N.am  156  MET156     -0.1976
     63  CA       -12.4140   31.5480   11.0350 C.3   156  MET156      0.1605
     64  C        -12.6570   32.0300    9.6070 C.2   156  MET156      0.2287
     65  O        -12.9500   33.2140    9.3890 O.2   156  MET156     -0.2864
     66  CB       -11.6530   32.6310   11.8080 C.3   156  MET156      0.0413
     67  CG       -11.8520   32.5900   13.2960 C.3   156  MET156      0.0598
     68  SD       -10.8710   31.2910   14.0560 S.3   156  MET156     -0.1393
     69  CE       -10.4060   32.1430   15.5580 C.3   156  MET156      0.0692
     70  N         -7.0740   24.2950   -0.6140 N.3   170  MET170     -0.1230
     71  CA        -6.6670   24.6890    0.7160 C.3   170  MET170      0.1702
     72  C         -7.0260   26.1660    0.8810 C.2   170  MET170      0.2592
     73  O         -6.5040   27.0160    0.1650 O.2   170  MET170     -0.2718
     74  CB        -5.1600   24.4600    0.8810 C.3   170  MET170      0.0401
     75  CG        -4.5930   24.8510    2.2270 C.3   170  MET170      0.0596
     76  SD        -5.0770   23.7600    3.5760 S.3   170  MET170     -0.1393
     77  CE        -4.0610   22.3200    3.2630 C.3   170  MET170      0.0692
     78  N         -7.9340   26.4580    1.8070 N.am  171  VAL171     -0.1966
     79  CA        -8.2520   27.8440    2.1190 C.3   171  VAL171      0.1727
     80  C         -7.5900   28.1880    3.4440 C.2   171  VAL171      0.2617
     81  O         -7.8550   27.5470    4.4690 O.2   171  VAL171     -0.2715
     82  CB        -9.7690   28.1340    2.1820 C.3   171  VAL171      0.0290
     83  CG1      -10.0030   29.6330    2.3170 C.3   171  VAL171      0.0023
     84  CG2      -10.4630   27.6170    0.9330 C.3   171  VAL171      0.0023
     85  N         -6.7130   29.1880    3.4090 N.am  172  GLY172     -0.1940
     86  CA        -6.0050   29.6320    4.6030 C.3   172  GLY172      0.2014
     87  C         -6.9450   30.1930    5.6470 C.2   172  GLY172      0.2639
     88  O         -8.0490   30.6450    5.3300 O.2   172  GLY172     -0.2714
     89  N         -6.5060   30.1610    6.9020 N.am  173  GLY173     -0.1954
     90  CA        -7.2980   30.7020    7.9990 C.3   173  GLY173      0.1869
     91  C         -7.6180   32.1790    7.8460 C.2   173  GLY173      0.2309
     92  O         -6.8930   32.9170    7.1630 O.2   173  GLY173     -0.2863
     93  N         -4.5990   26.7100   -3.7400 N.3   186  ILE186     -0.1245
     94  CA        -4.4330   27.3330   -2.4250 C.3   186  ILE186      0.1561
     95  C         -4.9950   28.7590   -2.4910 C.2   186  ILE186      0.2260
     96  O         -4.6130   29.5420   -3.3660 O.2   186  ILE186     -0.2867
     97  CB        -2.9380   27.3930   -1.9860 C.3   186  ILE186      0.0252
     98  CG1       -2.3580   25.9840   -1.8300 C.3   186  ILE186      0.0019
     99  CG2       -2.7930   28.1780   -0.6830 C.3   186  ILE186      0.0019
    100  CD1       -0.8310   25.9330   -1.7650 C.3   186  ILE186      0.0001
    101  N         -6.1640   32.3220   -0.1150 N.3   188  GLN188     -0.1245
    102  CA        -6.0080   33.0010    1.1650 C.3   188  GLN188      0.1566
    103  C         -6.2840   34.4900    1.0370 C.2   188  GLN188      0.2260
    104  O         -6.0950   35.0720   -0.0330 O.2   188  GLN188     -0.2867
    105  CB        -4.5990   32.7720    1.7180 C.3   188  GLN188      0.0367
    106  CG        -4.4830   32.9400    3.2310 C.3   188  GLN188      0.0905
    107  CD        -3.1670   32.4100    3.7890 C.2   188  GLN188      0.2608
    108  OE1       -3.1570   31.5010    4.6230 O.2   188  GLN188     -0.2717
    109  NE2       -2.0500   32.9770    3.3340 N.am  188  GLN188     -0.0878
    110  N         -2.1180   23.2410   -4.5950 N.3   198  ASN198     -0.1240
    111  CA        -1.9720   22.4840   -3.3580 C.3   198  ASN198      0.1653
    112  C         -1.1800   21.1990   -3.6320 C.2   198  ASN198      0.2266
    113  O         -1.7140   20.0850   -3.5930 O.2   198  ASN198     -0.2867
    114  CB        -3.3570   22.1920   -2.7620 C.3   198  ASN198      0.1155
    115  CG        -3.2940   21.3680   -1.4860 C.2   198  ASN198      0.2627
    116  OD1       -2.2610   21.3040   -0.8140 O.2   198  ASN198     -0.2716
    117  ND2       -4.4130   20.7290   -1.1440 N.am  198  ASN198     -0.0877
    118  N          1.1820   19.5560   -1.9480 N.3   200  GLU200     -0.1231
    119  CA         1.3150   18.5740   -0.8660 C.3   200  GLU200      0.1699
    120  C          0.0600   17.7200   -0.7300 C.2   200  GLU200      0.2592
    121  O          0.1490   16.5130   -0.5060 O.2   200  GLU200     -0.2718
    122  CB         1.6750   19.2400    0.4710 C.3   200  GLU200      0.0402
    123  CG         2.0510   18.2610    1.5870 C.3   200  GLU200      0.1161
    124  CD         3.1840   17.3040    1.2180 C.2   200  GLU200      0.3649
    125  OE1        4.0440   17.6720    0.3850 O.co2 200  GLU200     -0.2457
    126  OE2        3.2140   16.1840    1.7810 O.co2 200  GLU200     -0.2457
    127  N         -1.1030   18.3510   -0.8780 N.am  201  GLY201     -0.1957
    128  CA        -2.3690   17.6350   -0.8250 C.3   201  GLY201      0.1869
    129  C         -2.4570   16.5960   -1.9230 C.2   201  GLY201      0.2309
    130  O         -2.8840   15.4610   -1.6920 O.2   201  GLY201     -0.2863
    131  N         -2.4950   12.3440   -1.5870 N.3   205  ARG205     -0.1245
    132  CA        -3.6810   11.6590   -2.0720 C.3   205  ARG205      0.1563
    133  C         -3.4140   10.8260   -3.3300 C.2   205  ARG205      0.2260
    134  O         -4.3440   10.3750   -4.0070 O.2   205  ARG205     -0.2867
    135  CB        -4.8350   12.6540   -2.2090 C.3   205  ARG205      0.0307
    136  CG        -5.1410   13.2690   -0.8490 C.3   205  ARG205      0.0489
    137  CD        -6.3910   14.0760   -0.8290 C.3   205  ARG205      0.2205
    138  NE        -6.1760   15.4400   -1.2920 N.pl3 205  ARG205     -0.0865
    139  CZ        -5.9430   16.4860   -0.5050 C.cat 205  ARG205      0.5346
    140  NH1       -5.8680   16.3430    0.8140 N.pl3 205  ARG205      0.1354
    141  NH2       -5.7830   17.6800   -1.0480 N.pl3 205  ARG205      0.1354
@<TRIPOS>BOND
     1   110   111    1
     2   134   133    2
     3    93    94    1
     4   112   113    2
     5   112   111    1
     6    96    95    2
     7   111   114    1
     8   133   132    1
     9   114   115    1
    10    95    94    1
    11    94    97    1
    12   135   132    1
    13   135   136    1
    14   132   131    1
    15    97    98    1
    16    97    99    1
    17   118   119    1
    18   129   130    2
    19   129   128    1
    20    98   100    1
    21   115   117   am
    22   115   116    2
    23   138   137    1
    24   138   139    2
    25   141   139    1
    26   127   128    1
    27   127   120   am
    28   119   120    1
    29   119   122    1
    30   136   137    1
    31   120   121    2
    32    70    71    1
    33   139   140    1
    34   101   102    1
    35   104   103    2
    36    73    72    2
    37   125   124   ar
    38   122   123    1
    39    71    72    1
    40    71    74    1
    41    72    78   am
    42    74    75    1
    43    84    82    1
    44   103   102    1
    45   102   105    1
    46   124   123    1
    47   124   126   ar
    48   105   106    1
    49    78    79    1
    50    79    82    1
    51    79    80    1
    52    82    83    1
    53    75    76    1
    54    38    39    1
    55    41    40    2
    56   106   107    1
    57    77    76    1
    58    53    51    1
    59   109   107   am
    60    85    80   am
    61    85    86    1
    62    80    81    2
    63    51    50    1
    64    39    40    1
    65    39    42    1
    66   107   108    2
    67    40    46   am
    68    43    42    1
    69    43    45    1
    70    42    44    1
    71    86    87    1
    72    46    47    1
    73    50    47    1
    74    50    52    1
    75    47    48    1
    76    88    87    2
    77    17    18    1
    78    87    89   am
    79    20    19    2
    80    54    48   am
    81    54    55    1
    82    48    49    2
    83    18    19    1
    84    18    21    1
    85    89    90    1
    86    92    91    2
    87    22    21    1
    88    22    24    1
    89    21    23    1
    90    55    56    1
    91    91    90    1
    92    57    56    2
    93     1     2    1
    94    56    58   am
    95     4     3    2
    96    65    64    2
    97    25    26    1
    98    64    63    1
    99    58    59    1
   100     2     3    1
   101     2     5    1
   102    61    60    2
   103     5     6    1
   104    29    26    1
   105    60    59    1
   106    60    62   am
   107    26    27    1
   108    63    62    1
   109    63    66    1
   110    28    27    2
   111     6     8    1
   112     6     7    1
   113    27    30   am
   114    66    67    1
   115    15    14    1
   116    15    16    1
   117     9    10    1
   118    33    32    2
   119    30    31    1
   120    14    13    1
   121    67    68    1
   122    32    31    1
   123    13    10    1
   124    10    11    1
   125    12    11    2
   126    31    34    1
   127    68    69    1
   128    34    35    1
   129    36    35    2
   130    35    37   am
