@<TRIPOS>MOLECULE
tmp/6hy5E00.pdb
 127 119 0 0 0
SMALL
GASTEIGER

@<TRIPOS>ATOM
      1  N         71.2320  -12.4900   25.3520 N.3   114  ARG114     -0.1245
      2  CA        71.1180  -11.3060   26.2170 C.3   114  ARG114      0.1563
      3  C         69.8270  -11.2390   27.0630 C.2   114  ARG114      0.2260
      4  O         69.5880  -10.2210   27.7080 O.2   114  ARG114     -0.2867
      5  CB        71.3040  -10.0250   25.3880 C.3   114  ARG114      0.0307
      6  CG        72.7110   -9.9110   24.8430 C.3   114  ARG114      0.0489
      7  CD        72.9190   -8.6500   24.0460 C.3   114  ARG114      0.2205
      8  NE        74.2990   -8.5550   23.5740 N.pl3 114  ARG114     -0.0865
      9  CZ        74.8360   -7.4610   23.0520 C.cat 114  ARG114      0.5346
     10  NH1       74.1100   -6.3590   22.9150 N.pl3 114  ARG114      0.1354
     11  NH2       76.1050   -7.4550   22.6670 N.pl3 114  ARG114      0.1354
     12  N         67.2240   -8.8550   28.3840 N.3   117  PHE117     -0.1241
     13  CA        67.5640   -7.5450   27.7880 C.3   117  PHE117      0.1605
     14  C         67.8880   -7.7270   26.2910 C.2   117  PHE117      0.2264
     15  O         68.7530   -7.0370   25.7340 O.2   117  PHE117     -0.2867
     16  CB        68.7480   -6.8910   28.5300 C.3   117  PHE117      0.0534
     17  CG        68.5840   -6.8470   30.0280 C.ar  117  PHE117     -0.0203
     18  CD1       67.8640   -5.8230   30.6370 C.ar  117  PHE117     -0.0042
     19  CD2       69.1400   -7.8370   30.8340 C.ar  117  PHE117     -0.0042
     20  CE1       67.6850   -5.8000   32.0270 C.ar  117  PHE117     -0.0003
     21  CE2       68.9640   -7.8120   32.2250 C.ar  117  PHE117     -0.0003
     22  CZ        68.2390   -6.7940   32.8110 C.ar  117  PHE117     -0.0000
     23  N         66.8980   -8.1850   22.0340 N.3   119  SER119     -0.1217
     24  CA        66.2050   -7.6170   20.8850 C.3   119  SER119      0.1889
     25  C         66.1930   -8.6860   19.8050 C.2   119  SER119      0.2288
     26  O         67.1050   -9.5180   19.7510 O.2   119  SER119     -0.2866
     27  CB        66.9220   -6.3780   20.3770 C.3   119  SER119      0.2089
     28  OG        66.6450   -5.2830   21.2300 O.3   119  SER119     -0.2183
     29  N         61.9780   -5.6820   29.6020 N.3   190  TYR190     -0.1241
     30  CA        62.6740   -6.3170   30.7200 C.3   190  TYR190      0.1605
     31  C         62.1850   -5.8770   32.1180 C.2   190  TYR190      0.2264
     32  O         62.5320   -6.5360   33.1060 O.2   190  TYR190     -0.2867
     33  CB        64.1940   -6.0870   30.5940 C.3   190  TYR190      0.0534
     34  CG        64.5790   -4.6250   30.5510 C.ar  190  TYR190     -0.0201
     35  CD1       64.7010   -3.8780   31.7240 C.ar  190  TYR190     -0.0009
     36  CD2       64.8420   -3.9900   29.3400 C.ar  190  TYR190     -0.0009
     37  CE1       65.0420   -2.5290   31.6900 C.ar  190  TYR190      0.0417
     38  CE2       65.2010   -2.6440   29.2960 C.ar  190  TYR190      0.0417
     39  CZ        65.3040   -1.9180   30.4750 C.ar  190  TYR190      0.1957
     40  OH        65.6680   -0.5950   30.4460 O.3   190  TYR190     -0.2866
     41  N         62.9470   -7.3810   36.9520 N.3   194  ILE194     -0.1245
     42  CA        63.6430   -6.7400   38.0710 C.3   194  ILE194      0.1561
     43  C         62.8920   -6.9900   39.4190 C.2   194  ILE194      0.2260
     44  O         63.4840   -7.6600   40.2730 O.2   194  ILE194     -0.2867
     45  CB        63.9640   -5.2440   37.7740 C.3   194  ILE194      0.0252
     46  CG1       64.7110   -5.1010   36.3960 C.3   194  ILE194      0.0019
     47  CG2       64.7420   -4.6030   38.9250 C.3   194  ILE194      0.0019
     48  CD1       64.6930   -3.7220   35.7220 C.3   194  ILE194      0.0001
     49  N         65.0130  -10.8890   39.4720 N.3   198  ILE198     -0.1231
     50  CA        66.3410  -10.3710   39.8050 C.3   198  ILE198      0.1692
     51  C         66.4690   -9.9370   41.2860 C.2   198  ILE198      0.2591
     52  O         67.3060  -10.5130   41.9840 O.2   198  ILE198     -0.2718
     53  CB        66.8340   -9.2830   38.7990 C.3   198  ILE198      0.0266
     54  CG1       66.9500   -9.8950   37.3690 C.3   198  ILE198      0.0019
     55  CG2       68.1980   -8.7110   39.2340 C.3   198  ILE198      0.0020
     56  CD1       66.9000   -8.9020   36.1010 C.3   198  ILE198      0.0001
     57  N         65.6640   -8.9690   41.7700 N.am  199  LEU199     -0.1980
     58  CA        65.7660   -8.5090   43.1700 C.3   199  LEU199      0.1596
     59  C         65.3990   -9.6100   44.2040 C.2   199  LEU199      0.2287
     60  O         66.2220   -9.8220   45.0930 O.2   199  LEU199     -0.2864
     61  CB        65.0070   -7.1900   43.4190 C.3   199  LEU199      0.0297
     62  CG        65.5160   -5.9960   42.5930 C.3   199  LEU199      0.0022
     63  CD1       64.6450   -4.8090   42.7660 C.3   199  LEU199      0.0001
     64  CD2       66.9170   -5.6230   42.9660 C.3   199  LEU199      0.0001
     65  N         68.4320  -11.7400   44.5580 N.3   202  LEU202     -0.1245
     66  CA        69.5250  -11.0340   45.2450 C.3   202  LEU202      0.1561
     67  C         69.2900  -10.9900   46.7480 C.2   202  LEU202      0.2260
     68  O         70.2300  -11.2310   47.5040 O.2   202  LEU202     -0.2867
     69  CB        69.7580   -9.6230   44.6890 C.3   202  LEU202      0.0270
     70  CG        70.3190   -9.5170   43.2600 C.3   202  LEU202      0.0019
     71  CD1       70.4530   -8.0720   42.8540 C.3   202  LEU202      0.0001
     72  CD2       71.6730  -10.2200   43.1080 C.3   202  LEU202      0.0001
     73  N         72.3700  -14.6070   29.4320 N.3   250  TYR250     -0.1241
     74  CA        72.8780  -13.6880   30.4580 C.3   250  TYR250      0.1605
     75  C         72.3660  -14.0320   31.8830 C.2   250  TYR250      0.2264
     76  O         73.1540  -14.1280   32.8240 O.2   250  TYR250     -0.2867
     77  CB        72.5690  -12.2340   30.0700 C.3   250  TYR250      0.0534
     78  CG        72.9770  -11.2300   31.1230 C.ar  250  TYR250     -0.0201
     79  CD1       74.3090  -11.1180   31.5350 C.ar  250  TYR250     -0.0009
     80  CD2       72.0380  -10.3980   31.7200 C.ar  250  TYR250     -0.0009
     81  CE1       74.6900  -10.2040   32.5150 C.ar  250  TYR250      0.0417
     82  CE2       72.4100   -9.4730   32.6990 C.ar  250  TYR250      0.0417
     83  CZ        73.7410   -9.3690   33.0800 C.ar  250  TYR250      0.1957
     84  OH        74.1180   -8.4690   34.0490 O.3   250  TYR250     -0.2866
     85  N         74.2860  -15.7510   35.3990 N.3   254  ILE254     -0.1245
     86  CA        74.1430  -15.2110   36.7640 C.3   254  ILE254      0.1561
     87  C         73.5980  -16.2970   37.6910 C.2   254  ILE254      0.2260
     88  O         74.2000  -16.5490   38.7410 O.2   254  ILE254     -0.2867
     89  CB        73.2720  -13.9170   36.8000 C.3   254  ILE254      0.0252
     90  CG1       73.9350  -12.7880   35.9920 C.3   254  ILE254      0.0019
     91  CG2       73.0050  -13.4630   38.2540 C.3   254  ILE254      0.0019
     92  CD1       72.9810  -11.6760   35.5890 C.3   254  ILE254      0.0001
     93  N         81.4220  -11.1010   44.2030 N.3   299  PHE299     -0.1241
     94  CA        80.1130  -11.0930   43.5500 C.3   299  PHE299      0.1605
     95  C         79.9560   -9.9090   42.6050 C.2   299  PHE299      0.2264
     96  O         79.4880  -10.0780   41.4780 O.2   299  PHE299     -0.2867
     97  CB        78.9640  -11.1720   44.5670 C.3   299  PHE299      0.0534
     98  CG        77.6170  -11.3840   43.9200 C.ar  299  PHE299     -0.0203
     99  CD1       77.3300  -12.5610   43.2330 C.ar  299  PHE299     -0.0042
    100  CD2       76.6500  -10.3910   43.9570 C.ar  299  PHE299     -0.0042
    101  CE1       76.0960  -12.7320   42.5890 C.ar  299  PHE299     -0.0003
    102  CE2       75.4150  -10.5600   43.3060 C.ar  299  PHE299     -0.0003
    103  CZ        75.1420  -11.7290   42.6360 C.ar  299  PHE299     -0.0000
    104  N         80.1030  -10.0730   38.3650 N.3   303  ASN303     -0.1240
    105  CA        78.9530   -9.5190   37.6560 C.3   303  ASN303      0.1653
    106  C         79.3740   -8.4690   36.6310 C.2   303  ASN303      0.2266
    107  O         78.7780   -8.4180   35.5540 O.2   303  ASN303     -0.2867
    108  CB        77.8750   -9.0130   38.6170 C.3   303  ASN303      0.1155
    109  CG        76.9010  -10.0910   39.0240 C.2   303  ASN303      0.2627
    110  OD1       76.9860  -10.6590   40.1170 O.2   303  ASN303     -0.2716
    111  ND2       75.9590  -10.4030   38.1500 N.am  303  ASN303     -0.0877
    112  N         78.6190   -8.8970   32.6740 N.3   307  ALA307     -0.1245
    113  CA        77.9200   -7.8330   31.9490 C.3   307  ALA307      0.1562
    114  C         78.7510   -7.3720   30.7560 C.2   307  ALA307      0.2260
    115  O         78.2040   -7.1320   29.6730 O.2   307  ALA307     -0.2867
    116  CB        77.6320   -6.6720   32.8770 C.3   307  ALA307      0.0290
    117  N         77.3960   -7.7990   26.9830 N.3   311  PHE311     -0.1241
    118  CA        76.9320   -6.5420   26.3780 C.3   311  PHE311      0.1605
    119  C         78.0520   -5.6210   25.8790 C.2   311  PHE311      0.2264
    120  O         79.1880   -6.0360   25.6590 O.2   311  PHE311     -0.2867
    121  CB        76.0200   -5.7890   27.3660 C.3   311  PHE311      0.0534
    122  CG        74.8270   -6.5690   27.8720 C.ar  311  PHE311     -0.0203
    123  CD1       74.9220   -7.3590   29.0140 C.ar  311  PHE311     -0.0042
    124  CD2       73.6040   -6.5050   27.2130 C.ar  311  PHE311     -0.0042
    125  CE1       73.8150   -8.0840   29.4810 C.ar  311  PHE311     -0.0003
    126  CE2       72.5000   -7.2380   27.6690 C.ar  311  PHE311     -0.0003
    127  CZ        72.6080   -8.0190   28.8050 C.ar  311  PHE311     -0.0000
@<TRIPOS>BOND
     1    26    25    2
     2    25    24    1
     3    27    24    1
     4    27    28    1
     5    24    23    1
     6    11     9    1
     7    10     9    1
     8     9     8    2
     9     8     7    1
    10     7     6    1
    11     6     5    1
    12     1     2    1
    13     5     2    1
    14   120   119    2
    15    15    14    2
    16   119   118    1
    17     2     3    1
    18    14    13    1
    19   118   117    1
    20   118   121    1
    21     3     4    2
    22   124   126   ar
    23   124   122   ar
    24   121   122    1
    25   126   127   ar
    26    13    12    1
    27    13    16    1
    28   122   123   ar
    29    16    17    1
    30   127   125   ar
    31   123   125   ar
    32    38    36   ar
    33    38    39   ar
    34    36    34   ar
    35    73    74    1
    36    29    30    1
    37   115   114    2
    38    17    18   ar
    39    17    19   ar
    40    77    74    1
    41    77    78    1
    42    40    39    1
    43    74    75    1
    44    39    37   ar
    45    34    33    1
    46    34    35   ar
    47    33    30    1
    48    18    20   ar
    49    30    31    1
    50   114   113    1
    51    19    21   ar
    52    78    79   ar
    53    78    80   ar
    54    79    81   ar
    55    37    35   ar
    56    80    82   ar
    57    75    76    2
    58   113   112    1
    59   113   116    1
    60    20    22   ar
    61    31    32    2
    62    21    22   ar
    63    81    83   ar
    64    82    83   ar
    65    83    84    1
    66    85    86    1
    67   107   106    2
    68    92    90    1
    69    48    46    1
    70    90    89    1
    71    56    54    1
    72    46    45    1
    73   106   105    1
    74    86    89    1
    75    86    87    1
    76    89    91    1
    77    41    42    1
    78    54    53    1
    79   105   104    1
    80   105   108    1
    81    87    88    2
    82    45    42    1
    83    45    47    1
    84    42    43    1
    85   111   109   am
    86   108   109    1
    87    53    55    1
    88    53    50    1
    89   109   110    2
    90    43    44    2
    91    49    50    1
    92    50    51    1
    93    51    57   am
    94    51    52    2
    95    96    95    2
    96    57    58    1
    97   101   103   ar
    98   101    99   ar
    99    62    63    1
   100    62    64    1
   101    62    61    1
   102    95    94    1
   103   103   102   ar
   104    71    70    1
   105    72    70    1
   106    58    61    1
   107    58    59    1
   108    99    98   ar
   109    70    69    1
   110   102   100   ar
   111    94    93    1
   112    94    97    1
   113    98   100   ar
   114    98    97    1
   115    59    60    2
   116    65    66    1
   117    69    66    1
   118    66    67    1
   119    67    68    2
