@<TRIPOS>MOLECULE
tmp/6hyvA00.pdb
 174 167 0 0 0
SMALL
GASTEIGER

@<TRIPOS>ATOM
      1  N         35.2480  -16.6010   27.8950 N.3    25  SER25      -0.1202
      2  CA        36.6940  -16.8170   27.8270 C.3    25  SER25       0.2020
      3  C         37.5690  -15.5250   27.7550 C.2    25  SER25       0.2619
      4  O         38.3980  -15.3900   26.8380 O.2    25  SER25      -0.2717
      5  CB        37.0540  -17.7770   26.6950 C.3    25  SER25       0.2103
      6  OG        36.4800  -19.0700   26.8330 O.3    25  SER25      -0.2182
      7  N         37.4200  -14.6090   28.7570 N.am   26  LEU26      -0.1965
      8  CA        38.3160  -13.4710   28.8880 C.3    26  LEU26       0.1728
      9  C         39.5800  -14.0380   29.5110 C.2    26  LEU26       0.2616
     10  O         39.5940  -14.4120   30.6860 O.2    26  LEU26      -0.2715
     11  CB        37.7850  -12.3390   29.7850 C.3    26  LEU26       0.0311
     12  CG        38.4330  -10.9470   29.5550 C.3    26  LEU26       0.0022
     13  CD1       37.5790   -9.8970   30.0510 C.3    26  LEU26       0.0001
     14  CD2       39.7320  -10.7870   30.2750 C.3    26  LEU26       0.0001
     15  N         40.6220  -14.1160   28.7000 N.am   27  ASP27      -0.1957
     16  CA        41.9400  -14.6170   29.0250 C.3    27  ASP27       0.1840
     17  C         42.8120  -13.4030   29.2590 C.2    27  ASP27       0.2622
     18  O         43.3180  -12.8130   28.3040 O.2    27  ASP27      -0.2715
     19  CB        42.4440  -15.4380   27.8320 C.3    27  ASP27       0.1450
     20  CG        43.6400  -16.3340   28.0670 C.2    27  ASP27       0.3671
     21  OD1       44.4250  -16.0500   29.0000 O.co2  27  ASP27      -0.2456
     22  OD2       43.8570  -17.2480   27.2440 O.co2  27  ASP27      -0.2456
     23  N         42.9160  -12.9710   30.5290 N.am   28  ASP28      -0.1957
     24  CA        43.7090  -11.8030   30.9490 C.3    28  ASP28       0.1840
     25  C         45.1730  -11.8280   30.3730 C.2    28  ASP28       0.2621
     26  O         45.6100  -10.8650   29.7310 O.2    28  ASP28      -0.2715
     27  CB        43.6950  -11.7070   32.4810 C.3    28  ASP28       0.1450
     28  CG        42.3220  -11.4600   33.0920 C.2    28  ASP28       0.3671
     29  OD1       41.4010  -12.3090   32.8800 O.co2  28  ASP28      -0.2456
     30  OD2       42.1770  -10.4600   33.8330 O.co2  28  ASP28      -0.2456
     31  N         45.8640  -12.9680   30.5310 N.am   29  LYS29      -0.1977
     32  CA        47.2310  -13.1880   30.0670 C.3    29  LYS29       0.1596
     33  C         47.3730  -13.0180   28.5480 C.2    29  LYS29       0.2287
     34  O         48.3250  -12.3810   28.0870 O.2    29  LYS29      -0.2864
     35  CB        47.7360  -14.5660   30.5460 C.3    29  LYS29       0.0298
     36  CG        49.2300  -14.7600   30.3340 C.3    29  LYS29       0.0038
     37  CD        49.8800  -15.6440   31.3800 C.3    29  LYS29       0.0206
     38  CE        51.3920  -15.5270   31.3430 C.3    29  LYS29       0.1093
     39  NZ        51.8930  -14.2390   31.9230 N.3    29  LYS29      -0.1314
     40  N         44.4570   -3.9400   38.9780 N.3   115  ALA115     -0.1231
     41  CA        44.0160   -5.3180   39.1960 C.3   115  ALA115      0.1679
     42  C         44.3610   -5.7820   40.6480 C.2   115  ALA115      0.2434
     43  O         45.4150   -5.3750   41.1750 O.2   115  ALA115     -0.2733
     44  CB        44.6220   -6.2420   38.1410 C.3   115  ALA115      0.0304
     45  N         43.4560   -6.5460   41.3330 N.am  116  PRO116     -0.2718
     46  CA        42.1760   -7.0920   40.8410 C.3   116  PRO116      0.1535
     47  C         40.9540   -6.1820   41.0630 C.2   116  PRO116      0.2598
     48  O         39.8450   -6.6600   40.9050 O.2   116  PRO116     -0.2715
     49  CB        42.0890   -8.4390   41.5760 C.3   116  PRO116      0.0310
     50  CG        42.7950   -8.2020   42.8920 C.3   116  PRO116      0.0237
     51  CD        43.7300   -7.0160   42.7060 C.3   116  PRO116      0.0939
     52  N         41.1550   -4.8820   41.4120 N.am  117  PHE117     -0.1974
     53  CA        40.0930   -3.8830   41.6510 C.3   117  PHE117      0.1639
     54  C         39.9620   -2.9750   40.4040 C.2   117  PHE117      0.2290
     55  O         39.7520   -1.7440   40.5100 O.2   117  PHE117     -0.2864
     56  CB        40.4090   -3.0320   42.9050 C.3   117  PHE117      0.0560
     57  CG        40.7640   -3.8700   44.0960 C.ar  117  PHE117     -0.0200
     58  CD1       39.7730   -4.5120   44.8340 C.ar  117  PHE117     -0.0042
     59  CD2       42.0910   -4.0920   44.4330 C.ar  117  PHE117     -0.0042
     60  CE1       40.1060   -5.3550   45.8910 C.ar  117  PHE117     -0.0003
     61  CE2       42.4230   -4.9440   45.4830 C.ar  117  PHE117     -0.0003
     62  CZ        41.4290   -5.5630   46.2100 C.ar  117  PHE117     -0.0000
     63  N         32.4290  -14.6950   32.9910 N.3   154  THR154     -0.1218
     64  CA        32.8630  -15.2960   34.2490 C.3   154  THR154      0.1862
     65  C         33.9490  -14.4590   34.9130 C.2   154  THR154      0.2287
     66  O         34.9290  -14.1140   34.2540 O.2   154  THR154     -0.2866
     67  CB        33.2620  -16.7620   34.0150 C.3   154  THR154      0.1770
     68  OG1       32.1700  -17.4600   33.4010 O.3   154  THR154     -0.2211
     69  CG2       33.7020  -17.4720   35.3050 C.3   154  THR154      0.0375
     70  N         36.0020   -6.1390   37.1590 N.3   188  ARG188     -0.1245
     71  CA        36.3960   -7.3880   37.8180 C.3   188  ARG188      0.1563
     72  C         35.7570   -7.6440   39.1380 C.2   188  ARG188      0.2260
     73  O         35.7360   -6.7570   39.9920 O.2   188  ARG188     -0.2867
     74  CB        37.9120   -7.4830   37.9720 C.3   188  ARG188      0.0307
     75  CG        38.3890   -8.9100   38.1270 C.3   188  ARG188      0.0489
     76  CD        39.8390   -8.9850   38.5630 C.3   188  ARG188      0.2205
     77  NE        40.7130   -8.3650   37.5740 N.pl3 188  ARG188     -0.0865
     78  CZ        41.2430   -9.0100   36.5460 C.cat 188  ARG188      0.5346
     79  NH1       41.0240  -10.3110   36.3850 N.pl3 188  ARG188      0.1354
     80  NH2       41.9960   -8.3620   35.6670 N.pl3 188  ARG188      0.1354
     81  N         39.7000  -13.1440   45.4350 N.3   193  TYR193     -0.1241
     82  CA        41.1230  -12.8710   45.6950 C.3   193  TYR193      0.1605
     83  C         41.4040  -12.5530   47.1530 C.2   193  TYR193      0.2264
     84  O         42.5220  -12.7750   47.6160 O.2   193  TYR193     -0.2867
     85  CB        41.6390  -11.7460   44.7920 C.3   193  TYR193      0.0534
     86  CG        41.5900  -12.1130   43.3250 C.ar  193  TYR193     -0.0201
     87  CD1       40.5380  -11.6910   42.5110 C.ar  193  TYR193     -0.0009
     88  CD2       42.5410  -12.9600   42.7690 C.ar  193  TYR193     -0.0009
     89  CE1       40.4670  -12.0570   41.1670 C.ar  193  TYR193      0.0417
     90  CE2       42.4860  -13.3250   41.4220 C.ar  193  TYR193      0.0417
     91  CZ        41.4490  -12.8670   40.6240 C.ar  193  TYR193      0.1957
     92  OH        41.4080  -13.2190   39.2950 O.3   193  TYR193     -0.2866
     93  N         44.1050  -15.3670   47.9900 N.3   197  ILE197     -0.1231
     94  CA        45.4740  -14.8690   47.8650 C.3   197  ILE197      0.1692
     95  C         45.7810  -13.7890   48.8960 C.2   197  ILE197      0.2591
     96  O         46.7720  -13.9350   49.6030 O.2   197  ILE197     -0.2718
     97  CB        45.8450  -14.4170   46.3960 C.3   197  ILE197      0.0266
     98  CG1       45.7600  -15.5690   45.4040 C.3   197  ILE197      0.0019
     99  CG2       47.2570  -13.8600   46.3120 C.3   197  ILE197      0.0020
    100  CD1       44.5770  -15.5410   44.6010 C.3   197  ILE197      0.0001
    101  N         44.9770  -12.6950   48.9580 N.am  198  ILE198     -0.1980
    102  CA        45.2580  -11.5290   49.8240 C.3   198  ILE198      0.1595
    103  C         45.3740  -11.9100   51.2980 C.2   198  ILE198      0.2287
    104  O         46.4380  -11.6690   51.8710 O.2   198  ILE198     -0.2864
    105  CB        44.3030  -10.3070   49.6070 C.3   198  ILE198      0.0276
    106  CG1       44.3080   -9.8540   48.1230 C.3   198  ILE198      0.0022
    107  CG2       44.6930   -9.1290   50.5290 C.3   198  ILE198      0.0022
    108  CD1       43.0830   -9.1560   47.6470 C.3   198  ILE198      0.0001
    109  N         48.2410  -14.4780   52.0500 N.3   201  MET201     -0.1245
    110  CA        49.4970  -13.7370   51.9070 C.3   201  MET201      0.1570
    111  C         49.8310  -12.8360   53.1040 C.2   201  MET201      0.2261
    112  O         51.0120  -12.6950   53.4390 O.2   201  MET201     -0.2867
    113  CB        49.4920  -12.9400   50.6120 C.3   201  MET201      0.0387
    114  CG        50.8490  -12.4230   50.2200 C.3   201  MET201      0.0595
    115  SD        50.7850  -11.4090   48.7450 S.3   201  MET201     -0.1393
    116  CE        50.7450  -12.6620   47.5100 C.3   201  MET201      0.0692
    117  N         50.5780  -15.7970   41.1160 N.3   238  VAL238     -0.1245
    118  CA        50.0480  -14.5440   40.5910 C.3   238  VAL238      0.1561
    119  C         50.6380  -14.2110   39.2180 C.2   238  VAL238      0.2260
    120  O         49.8690  -13.9510   38.3000 O.2   238  VAL238     -0.2867
    121  CB        50.1900  -13.3730   41.6050 C.3   238  VAL238      0.0252
    122  CG1       49.8050  -12.0470   40.9620 C.3   238  VAL238      0.0019
    123  CG2       49.3600  -13.6180   42.8630 C.3   238  VAL238      0.0019
    124  N         49.3870  -15.9480   35.9720 N.3   241  ASN241     -0.1225
    125  CA        48.0690  -15.4710   35.5240 C.3   241  ASN241      0.1785
    126  C         48.0540  -14.0520   34.9550 C.2   241  ASN241      0.2597
    127  O         47.2850  -13.7720   34.0300 O.2   241  ASN241     -0.2718
    128  CB        47.0610  -15.5500   36.6510 C.3   241  ASN241      0.1169
    129  CG        46.8790  -16.9190   37.2290 C.2   241  ASN241      0.2627
    130  OD1       46.9590  -17.0870   38.4540 O.2   241  ASN241     -0.2716
    131  ND2       46.5950  -17.9020   36.3740 N.am  241  ASN241     -0.0877
    132  N         48.8420  -13.1520   35.5200 N.am  242  LEU242     -0.1980
    133  CA        48.9510  -11.7710   35.0430 C.3   242  LEU242      0.1596
    134  C         49.9920  -11.6690   33.9440 C.2   242  LEU242      0.2287
    135  O         51.1310  -12.1110   34.1670 O.2   242  LEU242     -0.2864
    136  CB        49.4310  -10.8510   36.1790 C.3   242  LEU242      0.0297
    137  CG        48.4100  -10.2940   37.1350 C.3   242  LEU242      0.0022
    138  CD1       49.0780   -9.4500   38.1510 C.3   242  LEU242      0.0001
    139  CD2       47.3940   -9.4480   36.4360 C.3   242  LEU242      0.0001
    140  N         49.4300   -2.5180   40.7870 N.3   250  TYR250     -0.1227
    141  CA        49.1400   -2.4190   42.2230 C.3   250  TYR250      0.1736
    142  C         49.5140   -3.7320   42.9380 C.2   250  TYR250      0.2596
    143  O         50.2060   -3.7190   43.9500 O.2   250  TYR250     -0.2718
    144  CB        47.6600   -2.0230   42.4380 C.3   250  TYR250      0.0548
    145  CG        47.2210   -1.9650   43.8820 C.ar  250  TYR250     -0.0200
    146  CD1       47.7730   -1.0390   44.7640 C.ar  250  TYR250     -0.0009
    147  CD2       46.2170   -2.8020   44.3590 C.ar  250  TYR250     -0.0009
    148  CE1       47.3740   -0.9830   46.0960 C.ar  250  TYR250      0.0417
    149  CE2       45.8110   -2.7570   45.6940 C.ar  250  TYR250      0.0417
    150  CZ        46.3860   -1.8370   46.5560 C.ar  250  TYR250      0.1957
    151  OH        46.0150   -1.7930   47.8750 O.3   250  TYR250     -0.2866
    152  N         49.1120   -4.8650   42.3460 N.am  251  THR251     -0.1953
    153  CA        49.3990   -6.2330   42.8010 C.3   251  THR251      0.1897
    154  C         50.9150   -6.4670   42.7590 C.2   251  THR251      0.2313
    155  O         51.4540   -7.0990   43.6480 O.2   251  THR251     -0.2863
    156  CB        48.5680   -7.2110   41.9350 C.3   251  THR251      0.1794
    157  OG1       47.2540   -7.2970   42.4780 O.3   251  THR251     -0.2208
    158  CG2       49.1660   -8.5830   41.8270 C.3   251  THR251      0.0378
    159  N         52.6790   -4.3100   45.6810 N.3   254  ILE254     -0.1231
    160  CA        52.4320   -4.9470   46.9800 C.3   254  ILE254      0.1692
    161  C         53.2760   -6.1980   47.1530 C.2   254  ILE254      0.2591
    162  O         53.9750   -6.3190   48.1580 O.2   254  ILE254     -0.2718
    163  CB        50.9200   -5.2110   47.2320 C.3   254  ILE254      0.0266
    164  CG1       50.1500   -3.8890   47.3560 C.3   254  ILE254      0.0019
    165  CG2       50.7190   -6.0690   48.4940 C.3   254  ILE254      0.0020
    166  CD1       48.7130   -4.0690   47.5700 C.3   254  ILE254      0.0001
    167  N         53.2030   -7.1180   46.1780 N.am  255  ILE255     -0.1980
    168  CA        53.9380   -8.3670   46.2040 C.3   255  ILE255      0.1595
    169  C         55.4380   -8.0940   46.3290 C.2   255  ILE255      0.2287
    170  O         56.0770   -8.7350   47.1480 O.2   255  ILE255     -0.2864
    171  CB        53.5440   -9.2890   45.0150 C.3   255  ILE255      0.0276
    172  CG1       52.1270   -9.8450   45.2210 C.3   255  ILE255      0.0022
    173  CG2       54.5370  -10.4410   44.8390 C.3   255  ILE255      0.0022
    174  CD1       51.4940  -10.5680   44.0190 C.3   255  ILE255      0.0001
@<TRIPOS>BOND
     1     5     6    1
     2     5     2    1
     3     4     3    2
     4    22    20   ar
     5     3     2    1
     6     3     7   am
     7     2     1    1
     8    19    20    1
     9    19    16    1
    10    20    21   ar
    11    34    33    2
    12    18    17    2
    13    33    32    1
    14    15    16    1
    15    15     9   am
    16     7     8    1
    17     8     9    1
    18     8    11    1
    19    16    17    1
    20    17    23   am
    21     9    10    2
    22    12    11    1
    23    12    13    1
    24    12    14    1
    25    26    25    2
    26    32    31    1
    27    32    35    1
    28    36    35    1
    29    36    37    1
    30    25    31   am
    31    25    24    1
    32    23    24    1
    33    24    27    1
    34    38    37    1
    35    38    39    1
    36    27    28    1
    37    29    28   ar
    38    63    64    1
    39    28    30   ar
    40    68    67    1
    41   134   135    2
    42   134   133    1
    43    67    64    1
    44    67    69    1
    45   127   126    2
    46    64    65    1
    47    66    65    2
    48   126   132   am
    49   126   125    1
    50   133   132    1
    51   133   136    1
    52   125   124    1
    53   125   128    1
    54    80    78    1
    55   136   137    1
    56   131   129   am
    57    79    78    1
    58   139   137    1
    59    78    77    2
    60   128   129    1
    61   137   138    1
    62    70    71    1
    63   129   130    2
    64    77    76    1
    65    71    74    1
    66    71    72    1
    67    74    75    1
    68    75    76    1
    69    44    41    1
    70   120   119    2
    71    40    41    1
    72    72    73    2
    73    41    42    1
    74   119   118    1
    75    92    91    1
    76    54    55    2
    77    54    53    1
    78   118   117    1
    79   118   121    1
    80    91    89   ar
    81    91    90   ar
    82    42    43    2
    83    42    45   am
    84   140   141    1
    85    46    47    1
    86    46    45    1
    87    46    49    1
    88    48    47    2
    89   122   121    1
    90    47    52   am
    91    89    87   ar
    92    45    51    1
    93    52    53    1
    94    90    88   ar
    95    49    50    1
    96   121   123    1
    97    53    56    1
    98   158   156    1
    99   156   157    1
   100   156   153    1
   101   141   144    1
   102   141   142    1
   103   152   153    1
   104   152   142   am
   105   144   145    1
   106    87    86   ar
   107    51    50    1
   108   154   153    1
   109   154   155    2
   110    88    86   ar
   111    56    57    1
   112   142   143    2
   113    86    85    1
   114   145   147   ar
   115   145   146   ar
   116   174   172    1
   117    57    59   ar
   118    57    58   ar
   119   147   149   ar
   120    59    61   ar
   121   100    98    1
   122   146   148   ar
   123    85    82    1
   124    58    60   ar
   125   173   171    1
   126   171   172    1
   127   171   168    1
   128    98    97    1
   129    81    82    1
   130    61    62   ar
   131   159   160    1
   132   149   150   ar
   133    82    83    1
   134    60    62   ar
   135   148   150   ar
   136   167   168    1
   137   167   161   am
   138   168   169    1
   139    99    97    1
   140   169   170    2
   141    97    94    1
   142   150   151    1
   143   160   161    1
   144   160   163    1
   145    83    84    2
   146   161   162    2
   147   163   164    1
   148   163   165    1
   149   164   166    1
   150   116   115    1
   151   108   106    1
   152    94    93    1
   153    94    95    1
   154   106   105    1
   155   115   114    1
   156    95   101   am
   157    95    96    2
   158   101   102    1
   159   105   102    1
   160   105   107    1
   161   102   103    1
   162   114   113    1
   163   113   110    1
   164   103   104    2
   165   110   109    1
   166   110   111    1
   167   111   112    2
