@<TRIPOS>MOLECULE
tmp/6hzpA00.pdb
 111 105 0 0 0
SMALL
GASTEIGER

@<TRIPOS>ATOM
      1  N         23.5680   -5.5520   32.5000 N.3    33  TYR33      -0.1241
      2  CA        24.2190   -4.4010   33.1350 C.3    33  TYR33       0.1605
      3  C         25.3830   -4.8060   34.0630 C.2    33  TYR33       0.2264
      4  O         26.2790   -3.9900   34.3150 O.2    33  TYR33      -0.2867
      5  CB        23.1970   -3.5060   33.8470 C.3    33  TYR33       0.0534
      6  CG        22.3700   -2.7010   32.8640 C.ar   33  TYR33      -0.0201
      7  CD1       22.9600   -1.7380   32.0530 C.ar   33  TYR33      -0.0009
      8  CD2       21.0140   -2.9600   32.6840 C.ar   33  TYR33      -0.0009
      9  CE1       22.2290   -1.0630   31.0800 C.ar   33  TYR33       0.0417
     10  CE2       20.2650   -2.2700   31.7310 C.ar   33  TYR33       0.0417
     11  CZ        20.8770   -1.3200   30.9290 C.ar   33  TYR33       0.1957
     12  OH        20.1710   -0.6020   29.9880 O.3    33  TYR33      -0.2866
     13  N         13.7740   -3.6990   35.0690 N.3   158  VAL158     -0.1231
     14  CA        14.9140   -3.2340   34.2820 C.3   158  VAL158      0.1692
     15  C         15.8520   -2.4050   35.1840 C.2   158  VAL158      0.2592
     16  O         17.0500   -2.6780   35.2290 O.2   158  VAL158     -0.2718
     17  CB        14.4550   -2.4260   33.0320 C.3   158  VAL158      0.0266
     18  CG1       15.6460   -1.8180   32.2970 C.3   158  VAL158      0.0020
     19  CG2       13.6200   -3.2850   32.0840 C.3   158  VAL158      0.0020
     20  N         15.3050   -1.4160   35.9070 N.am  159  ASN159     -0.1974
     21  CA        16.1100   -0.5670   36.7890 C.3   159  ASN159      0.1688
     22  C         16.5820   -1.2860   38.0510 C.2   159  ASN159      0.2292
     23  O         17.6450   -0.9370   38.5560 O.2   159  ASN159     -0.2864
     24  CB        15.3810    0.7310   37.1300 C.3   159  ASN159      0.1181
     25  CG        15.2190    1.6190   35.9220 C.2   159  ASN159      0.2629
     26  OD1       16.2080    1.9980   35.2720 O.2   159  ASN159     -0.2716
     27  ND2       13.9800    1.9580   35.5690 N.am  159  ASN159     -0.0877
     28  N         19.6620   -3.3670   36.9040 N.3   162  ALA162     -0.1245
     29  CA        20.7010   -2.3750   36.6020 C.3   162  ALA162      0.1562
     30  C         21.3500   -1.7860   37.8710 C.2   162  ALA162      0.2260
     31  O         22.5180   -1.4070   37.8350 O.2   162  ALA162     -0.2867
     32  CB        20.1010   -1.2460   35.7750 C.3   162  ALA162      0.0290
     33  N         21.2570   11.5040   24.7430 N.3   299  TRP299     -0.1241
     34  CA        21.8010   10.1430   24.8470 C.3   299  TRP299      0.1605
     35  C         23.3090   10.0510   24.5790 C.2   299  TRP299      0.2264
     36  O         23.9470    9.1230   25.0740 O.2   299  TRP299     -0.2867
     37  CB        21.0410    9.1530   23.9460 C.3   299  TRP299      0.0550
     38  CG        19.6090    8.9530   24.3450 C.ar  299  TRP299      0.0003
     39  CD1       18.5020    9.2370   23.6000 C.ar  299  TRP299      0.0946
     40  CD2       19.1300    8.5060   25.6220 C.ar  299  TRP299      0.0152
     41  NE1       17.3630    8.9660   24.3220 N.ar  299  TRP299     -0.2442
     42  CE2       17.7190    8.5060   25.5630 C.ar  299  TRP299      0.0810
     43  CE3       19.7590    8.0420   26.7920 C.ar  299  TRP299      0.0012
     44  CZ2       16.9270    8.0930   26.6370 C.ar  299  TRP299      0.0191
     45  CZ3       18.9740    7.6360   27.8570 C.ar  299  TRP299      0.0001
     46  CH2       17.5770    7.6740   27.7800 C.ar  299  TRP299      0.0015
     47  N         24.6930   11.0670   28.1350 N.3   302  GLN302     -0.1231
     48  CA        24.2090   10.0880   29.1180 C.3   302  GLN302      0.1698
     49  C         24.9110    8.7190   28.9460 C.2   302  GLN302      0.2592
     50  O         25.3730    8.1460   29.9330 O.2   302  GLN302     -0.2718
     51  CB        22.6710    9.9450   29.0020 C.3   302  GLN302      0.0381
     52  CG        21.9990    9.2090   30.1630 C.3   302  GLN302      0.0905
     53  CD        22.1050    7.7030   30.0850 C.2   302  GLN302      0.2608
     54  OE1       22.0950    7.1070   29.0100 O.2   302  GLN302     -0.2717
     55  NE2       22.2320    7.0420   31.2270 N.am  302  GLN302     -0.0878
     56  N         24.9940    8.2080   27.7020 N.am  303  GLU303     -0.1979
     57  CA        25.6290    6.9180   27.4200 C.3   303  GLU303      0.1602
     58  C         27.1580    6.9490   27.6010 C.2   303  GLU303      0.2287
     59  O         27.7550    5.8970   27.8250 O.2   303  GLU303     -0.2864
     60  CB        25.2510    6.4000   26.0260 C.3   303  GLU303      0.0415
     61  CG        23.7750    6.0630   25.8670 C.3   303  GLU303      0.1163
     62  CD        23.2900    4.7820   26.5270 C.2   303  GLU303      0.3649
     63  OE1       24.0840    4.1210   27.2350 O.co2 303  GLU303     -0.2457
     64  OE2       22.1030    4.4340   26.3270 O.co2 303  GLU303     -0.2457
     65  N         28.9950    5.3050   30.7900 N.3   306  SER306     -0.1217
     66  CA        29.4030    3.8940   30.8560 C.3   306  SER306      0.1889
     67  C         30.8410    3.6420   30.3570 C.2   306  SER306      0.2288
     68  O         31.3620    2.5500   30.5940 O.2   306  SER306     -0.2866
     69  CB        28.4200    3.0160   30.0830 C.3   306  SER306      0.2089
     70  OG        28.5090    3.2190   28.6840 O.3   306  SER306     -0.2183
     71  N         27.7470    3.0480   37.6650 N.3   336  GLN336     -0.1245
     72  CA        26.6310    2.5830   36.8240 C.3   336  GLN336      0.1566
     73  C         25.3140    2.3680   37.6100 C.2   336  GLN336      0.2260
     74  O         24.2940    2.1220   36.9700 O.2   336  GLN336     -0.2867
     75  CB        27.0130    1.2680   36.0960 C.3   336  GLN336      0.0367
     76  CG        28.2890    1.3290   35.2420 C.3   336  GLN336      0.0905
     77  CD        28.4030    2.6010   34.4380 C.2   336  GLN336      0.2608
     78  OE1       29.3790    3.3580   34.5590 O.2   336  GLN336     -0.2717
     79  NE2       27.4090    2.8660   33.5940 N.am  336  GLN336     -0.0878
     80  N         22.4910    6.1530   38.0420 N.3   339  ASN339     -0.1226
     81  CA        21.3700    6.3800   37.1280 C.3   339  ASN339      0.1770
     82  C         20.1320    5.4980   37.4470 C.2   339  ASN339      0.2439
     83  O         19.0760    6.0740   37.6880 O.2   339  ASN339     -0.2733
     84  CB        21.8060    6.2490   35.6720 C.3   339  ASN339      0.1168
     85  CG        20.7110    6.5900   34.6900 C.2   339  ASN339      0.2627
     86  OD1       19.8520    5.7550   34.3780 O.2   339  ASN339     -0.2716
     87  ND2       20.7010    7.8210   34.1900 N.am  339  ASN339     -0.0877
     88  N         20.2030    4.1430   37.4910 N.am  340  PRO340     -0.2729
     89  CA        18.9960    3.3610   37.8260 C.3   340  PRO340      0.1401
     90  C         18.4160    3.6330   39.2200 C.2   340  PRO340      0.2269
     91  O         17.1990    3.5680   39.3720 O.2   340  PRO340     -0.2865
     92  CB        19.4580    1.9130   37.6770 C.3   340  PRO340      0.0296
     93  CG        20.9370    1.9580   37.8700 C.3   340  PRO340      0.0237
     94  CD        21.3580    3.2560   37.2420 C.3   340  PRO340      0.0939
     95  N         16.3230    6.8600   39.0820 N.3   343  ILE343     -0.1245
     96  CA        15.1030    6.6070   38.3080 C.3   343  ILE343      0.1561
     97  C         14.0820    5.9120   39.2320 C.2   343  ILE343      0.2260
     98  O         12.9400    6.3400   39.2750 O.2   343  ILE343     -0.2867
     99  CB        15.3800    5.8160   36.9870 C.3   343  ILE343      0.0252
    100  CG1       16.1550    6.7130   36.0040 C.3   343  ILE343      0.0019
    101  CG2       14.0580    5.3240   36.3410 C.3   343  ILE343      0.0019
    102  CD1       16.7270    6.0280   34.8400 C.3   343  ILE343      0.0001
    103  N         17.2470   13.0040   32.3380 N.3   410  GLU410     -0.1245
    104  CA        16.5950   11.8000   31.8110 C.3   410  GLU410      0.1567
    105  C         15.1410   11.6940   32.2970 C.2   410  GLU410      0.2260
    106  O         14.2890   11.2330   31.5370 O.2   410  GLU410     -0.2867
    107  CB        17.3530   10.5190   32.2030 C.3   410  GLU410      0.0388
    108  CG        16.9920    9.3360   31.3260 C.3   410  GLU410      0.1160
    109  CD        17.7910    8.0690   31.5390 C.2   410  GLU410      0.3649
    110  OE1       19.0040    8.1590   31.8340 O.co2 410  GLU410     -0.2457
    111  OE2       17.2030    6.9760   31.3830 O.co2 410  GLU410     -0.2457
@<TRIPOS>BOND
     1    39    41   ar
     2    39    38   ar
     3    37    38    1
     4    37    34    1
     5    41    42   ar
     6    38    40   ar
     7    35    34    1
     8    35    36    2
     9    33    34    1
    10    42    40   ar
    11    42    44   ar
    12    40    43   ar
    13    61    60    1
    14    61    62    1
    15    60    57    1
    16    64    62   ar
    17    62    63   ar
    18    44    46   ar
    19    43    45   ar
    20    57    58    1
    21    57    56    1
    22    58    59    2
    23    56    49   am
    24    46    45   ar
    25    47    48    1
    26    70    69    1
    27    49    48    1
    28    49    50    2
    29    51    48    1
    30    51    52    1
    31    54    53    2
    32    12    11    1
    33    69    66    1
    34    53    52    1
    35    53    55   am
    36    67    68    2
    37    67    66    1
    38    65    66    1
    39    11     9   ar
    40    11    10   ar
    41     9     7   ar
    42   108   109    1
    43   108   107    1
    44   111   109   ar
    45   106   105    2
    46   109   110   ar
    47    10     8   ar
    48   104   107    1
    49   104   105    1
    50   104   103    1
    51     7     6   ar
    52    19    17    1
    53    18    17    1
    54     1     2    1
    55     8     6   ar
    56     6     5    1
    57    17    14    1
    58     2     5    1
    59     2     3    1
    60    79    77   am
    61     3     4    2
    62    87    85   am
    63    14    13    1
    64    14    15    1
    65    86    85    2
    66    77    78    2
    67    77    76    1
    68    85    84    1
    69   102   100    1
    70    15    16    2
    71    15    20   am
    72    76    75    1
    73    26    25    2
    74    27    25   am
    75    84    81    1
    76    32    29    1
    77    20    21    1
    78    25    24    1
    79   100    99    1
    80    75    72    1
    81   101    99    1
    82    29    28    1
    83    29    30    1
    84    21    24    1
    85    21    22    1
    86    72    73    1
    87    72    71    1
    88    74    73    2
    89    99    96    1
    90    81    82    1
    91    81    80    1
    92    94    88    1
    93    94    93    1
    94    82    88   am
    95    82    83    2
    96    88    89    1
    97    92    89    1
    98    92    93    1
    99    89    90    1
   100    31    30    2
   101    22    23    2
   102    96    95    1
   103    96    97    1
   104    90    91    2
   105    97    98    2
