@<TRIPOS>MOLECULE
tmp/6hzwA02.pdb
 108 103 0 0 0
SMALL
GASTEIGER

@<TRIPOS>ATOM
      1  N         44.5720   -2.8910   30.8510 N.3   111  ASP111     -0.1239
      2  CA        45.3990   -2.0770   31.7200 C.3   111  ASP111      0.1674
      3  C         45.4050   -2.7290   33.1200 C.2   111  ASP111      0.2266
      4  O         44.3620   -2.7190   33.8270 O.2   111  ASP111     -0.2867
      5  CB        44.8330   -0.6750   31.8020 C.3   111  ASP111      0.1410
      6  CG        45.6490    0.2530   32.7020 C.2   111  ASP111      0.3668
      7  OD1       46.6070   -0.1710   33.3930 O.co2 111  ASP111     -0.2456
      8  OD2       45.3290    1.4290   32.7150 O.co2 111  ASP111     -0.2456
      9  N         47.3240   -1.9480   35.8280 N.3   113  ARG113     -0.1231
     10  CA        47.7940   -1.0470   36.8980 C.3   113  ARG113      0.1694
     11  C         47.1100   -1.2460   38.2500 C.2   113  ARG113      0.2591
     12  O         47.7600   -1.2400   39.2890 O.2   113  ARG113     -0.2718
     13  CB        47.7090    0.4300   36.4660 C.3   113  ARG113      0.0321
     14  CG        49.0310    0.9250   35.8990 C.3   113  ARG113      0.0489
     15  CD        49.0350    2.2040   35.0220 C.3   113  ARG113      0.2205
     16  NE        48.7480    1.7730   33.6940 N.pl3 113  ARG113     -0.0865
     17  CZ        49.5440    1.7820   32.6290 C.cat 113  ARG113      0.5346
     18  NH1       50.7330    2.3680   32.6340 N.pl3 113  ARG113      0.1354
     19  NH2       49.0660    1.2390   31.5130 N.pl3 113  ARG113      0.1354
     20  N         45.8000   -1.4150   38.2440 N.am  114  ARG114     -0.1980
     21  CA        45.0280   -1.5630   39.5150 C.3   114  ARG114      0.1597
     22  C         44.5350   -2.9700   39.8070 C.2   114  ARG114      0.2287
     23  O         43.7440   -3.1370   40.7370 O.2   114  ARG114     -0.2864
     24  CB        43.8020   -0.6950   39.4810 C.3   114  ARG114      0.0334
     25  CG        44.1420    0.7380   39.2390 C.3   114  ARG114      0.0492
     26  CD        42.8730    1.5530   39.2360 C.3   114  ARG114      0.2205
     27  NE        43.2900    2.9180   39.3430 N.pl3 114  ARG114     -0.0865
     28  CZ        42.4920    3.9540   39.4460 C.cat 114  ARG114      0.5346
     29  NH1       41.1810    3.7850   39.3870 N.pl3 114  ARG114      0.1354
     30  NH2       43.0100    5.1700   39.5820 N.pl3 114  ARG114      0.1354
     31  N         54.3910   -1.2750   36.9630 N.3   248  MET248     -0.1245
     32  CA        54.0450   -2.0150   38.1610 C.3   248  MET248      0.1570
     33  C         52.5160   -2.0870   38.2990 C.2   248  MET248      0.2261
     34  O         51.8270   -1.1060   38.0680 O.2   248  MET248     -0.2867
     35  CB        54.5720   -1.3340   39.4540 C.3   248  MET248      0.0387
     36  CG        56.0820   -1.3480   39.6380 C.3   248  MET248      0.0595
     37  SD        56.8270   -3.0110   39.7060 S.3   248  MET248     -0.1393
     38  CE        56.2090   -3.5640   41.3060 C.3   248  MET248      0.0692
     39  N         53.2840   -4.4040   43.2510 N.3   253  ALA253     -0.1245
     40  CA        53.9400   -3.4010   44.1210 C.3   253  ALA253      0.1562
     41  C         53.9070   -3.8310   45.5800 C.2   253  ALA253      0.2260
     42  O         54.9130   -3.7600   46.2160 O.2   253  ALA253     -0.2867
     43  CB        53.2600   -2.0470   44.0030 C.3   253  ALA253      0.0290
     44  N         56.1850   -6.9950   45.8880 N.3   256  PHE256     -0.1227
     45  CA        57.5880   -6.5590   45.8340 C.3   256  PHE256      0.1736
     46  C         58.0070   -5.9020   47.1720 C.2   256  PHE256      0.2595
     47  O         59.0910   -6.2010   47.6850 O.2   256  PHE256     -0.2718
     48  CB        57.8850   -5.6080   44.6690 C.3   256  PHE256      0.0547
     49  CG        59.2980   -5.1060   44.6840 C.ar  256  PHE256     -0.0202
     50  CD1       59.6030   -3.8210   45.1580 C.ar  256  PHE256     -0.0042
     51  CD2       60.3210   -5.9450   44.3810 C.ar  256  PHE256     -0.0042
     52  CE1       60.9050   -3.3890   45.2720 C.ar  256  PHE256     -0.0003
     53  CE2       61.6240   -5.5170   44.4440 C.ar  256  PHE256     -0.0003
     54  CZ        61.9270   -4.2370   44.8960 C.ar  256  PHE256     -0.0000
     55  N         57.1660   -5.0220   47.7060 N.am  257  MET257     -0.1979
     56  CA        57.4220   -4.3040   48.9220 C.3   257  MET257      0.1605
     57  C         57.5940   -5.2800   50.1010 C.2   257  MET257      0.2287
     58  O         58.4670   -5.0340   50.9790 O.2   257  MET257     -0.2864
     59  CB        56.2770   -3.3590   49.2000 C.3   257  MET257      0.0413
     60  CG        56.5570   -2.4620   50.3920 C.3   257  MET257      0.0598
     61  SD        55.1350   -1.4800   50.7590 S.3   257  MET257     -0.1393
     62  CE        54.0450   -2.6470   51.5790 C.3   257  MET257      0.0692
     63  N         61.0680   -6.5420   50.9090 N.3   260  LEU260     -0.1245
     64  CA        61.8970   -5.5920   51.6370 C.3   260  LEU260      0.1561
     65  C         61.6700   -5.7570   53.1650 C.2   260  LEU260      0.2260
     66  O         62.6390   -5.7340   53.9280 O.2   260  LEU260     -0.2867
     67  CB        61.6070   -4.1670   51.1820 C.3   260  LEU260      0.0270
     68  CG        61.9210   -3.8640   49.7030 C.3   260  LEU260      0.0019
     69  CD1       61.5180   -2.4540   49.2820 C.3   260  LEU260      0.0001
     70  CD2       63.3980   -4.0050   49.4360 C.3   260  LEU260      0.0001
     71  N         50.9310    3.5440   48.8330 N.3   306  LEU306     -0.1245
     72  CA        50.6850    2.7490   47.6320 C.3   306  LEU306      0.1561
     73  C         49.2310    2.8560   47.1300 C.2   306  LEU306      0.2260
     74  O         49.0330    3.0810   45.9310 O.2   306  LEU306     -0.2867
     75  CB        51.0340    1.2860   47.8230 C.3   306  LEU306      0.0270
     76  CG        52.5250    0.9510   47.7460 C.3   306  LEU306      0.0019
     77  CD1       52.6890   -0.5700   47.8720 C.3   306  LEU306      0.0001
     78  CD2       53.2000    1.4970   46.4780 C.3   306  LEU306      0.0001
     79  N         48.7960    6.3200   45.5720 N.3   309  LEU309     -0.1231
     80  CA        49.4370    6.4400   44.2680 C.3   309  LEU309      0.1693
     81  C         48.6790    5.6830   43.1620 C.2   309  LEU309      0.2592
     82  O         48.7330    6.1030   42.0140 O.2   309  LEU309     -0.2718
     83  CB        50.8400    5.9240   44.2560 C.3   309  LEU309      0.0284
     84  CG        51.8600    6.7390   45.0830 C.3   309  LEU309      0.0019
     85  CD1       53.2030    5.9830   45.1460 C.3   309  LEU309      0.0001
     86  CD2       52.0560    8.1590   44.5300 C.3   309  LEU309      0.0001
     87  N         48.0580    4.5550   43.4900 N.am  310  PHE310     -0.1962
     88  CA        47.3520    3.7340   42.5180 C.3   310  PHE310      0.1771
     89  C         45.8360    4.0430   42.3570 C.2   310  PHE310      0.2619
     90  O         45.3240    3.7390   41.2620 O.2   310  PHE310     -0.2715
     91  CB        47.5470    2.2320   42.8280 C.3   310  PHE310      0.0574
     92  CG        48.8550    1.6590   42.3650 C.ar  310  PHE310     -0.0200
     93  CD1       48.9540    1.0500   41.1310 C.ar  310  PHE310     -0.0042
     94  CD2       49.9470    1.6010   43.1980 C.ar  310  PHE310     -0.0042
     95  CE1       50.1400    0.5000   40.7050 C.ar  310  PHE310     -0.0003
     96  CE2       51.1480    1.0350   42.8010 C.ar  310  PHE310     -0.0003
     97  CZ        51.2600    0.5130   41.5440 C.ar  310  PHE310     -0.0000
     98  N         45.1530    4.6000   43.3820 N.am  311  PHE311     -0.1974
     99  CA        43.6990    4.7690   43.2840 C.3   311  PHE311      0.1639
    100  C         43.1500    6.2100   43.3290 C.2   311  PHE311      0.2290
    101  O         43.9580    7.1190   43.5770 O.2   311  PHE311     -0.2864
    102  CB        43.0330    3.8840   44.2900 C.3   311  PHE311      0.0560
    103  CG        43.2460    2.4360   44.0300 C.ar  311  PHE311     -0.0200
    104  CD1       42.4260    1.7610   43.1640 C.ar  311  PHE311     -0.0042
    105  CD2       44.2920    1.7280   44.6630 C.ar  311  PHE311     -0.0042
    106  CE1       42.6060    0.4000   42.9300 C.ar  311  PHE311     -0.0003
    107  CE2       44.4710    0.3780   44.4550 C.ar  311  PHE311     -0.0003
    108  CZ        43.6310   -0.2780   43.5680 C.ar  311  PHE311     -0.0000
@<TRIPOS>BOND
     1     1     2    1
     2    19    17    1
     3     2     5    1
     4     2     3    1
     5     5     6    1
     6    17    18    1
     7    17    16    2
     8     6     8   ar
     9     6     7   ar
    10     3     4    2
    11    16    15    1
    12    15    14    1
    13     9    10    1
    14    14    13    1
    15    13    10    1
    16    10    11    1
    17    31    32    1
    18    34    33    2
    19    32    33    1
    20    32    35    1
    21    20    11   am
    22    20    21    1
    23    11    12    2
    24    26    25    1
    25    26    27    1
    26    25    24    1
    27    27    28    2
    28    29    28    1
    29    28    30    1
    30    35    36    1
    31    24    21    1
    32    21    22    1
    33    36    37    1
    34    37    38    1
    35    22    23    2
    36    95    93   ar
    37    95    97   ar
    38    93    92   ar
    39    90    89    2
    40    97    96   ar
    41    82    81    2
    42    89    88    1
    43    89    98   am
    44    92    91    1
    45    92    94   ar
    46    88    91    1
    47    88    87    1
    48    96    94   ar
    49   106   104   ar
    50   106   108   ar
    51    81    87   am
    52    81    80    1
    53   104   103   ar
    54    39    40    1
    55    99   100    1
    56    99    98    1
    57    99   102    1
    58   100   101    2
    59   108   107   ar
    60    43    40    1
    61   103   102    1
    62   103   105   ar
    63    40    41    1
    64    83    80    1
    65    83    84    1
    66    80    79    1
    67    51    53   ar
    68    51    49   ar
    69    53    54   ar
    70   107   105   ar
    71    86    84    1
    72    48    49    1
    73    48    45    1
    74    49    50   ar
    75    54    52   ar
    76    84    85    1
    77    50    52   ar
    78    41    42    2
    79    45    44    1
    80    45    46    1
    81    74    73    2
    82    78    76    1
    83    73    72    1
    84    46    47    2
    85    46    55   am
    86    72    75    1
    87    72    71    1
    88    55    56    1
    89    76    75    1
    90    76    77    1
    91    56    59    1
    92    56    57    1
    93    59    60    1
    94    69    68    1
    95    70    68    1
    96    68    67    1
    97    57    58    2
    98    60    61    1
    99    61    62    1
   100    63    64    1
   101    67    64    1
   102    64    65    1
   103    65    66    2
