@<TRIPOS>MOLECULE
tmp/6hzwC00.pdb
 90 84 0 0 0
SMALL
GASTEIGER

@<TRIPOS>ATOM
      1  N         51.2510  -40.0280   60.4190 N.3   263  PHE263     -0.1241
      2  CA        50.4800  -39.5170   61.5320 C.3   263  PHE263      0.1605
      3  C         50.8390  -40.2340   62.8530 C.2   263  PHE263      0.2264
      4  O         51.0910  -39.5590   63.8490 O.2   263  PHE263     -0.2867
      5  CB        48.9720  -39.6180   61.2540 C.3   263  PHE263      0.0534
      6  CG        48.1750  -38.9270   62.2830 C.ar  263  PHE263     -0.0203
      7  CD1       48.2180  -37.5500   62.3810 C.ar  263  PHE263     -0.0042
      8  CD2       47.4680  -39.6230   63.2240 C.ar  263  PHE263     -0.0042
      9  CE1       47.5120  -36.8710   63.3770 C.ar  263  PHE263     -0.0003
     10  CE2       46.7560  -38.9480   64.2260 C.ar  263  PHE263     -0.0003
     11  CZ        46.7860  -37.5730   64.3010 C.ar  263  PHE263     -0.0000
     12  N         52.7930  -38.9970   66.4580 N.3   267  ILE267     -0.1245
     13  CA        52.2890  -39.2990   67.7690 C.3   267  ILE267      0.1561
     14  C         53.4260  -39.9520   68.6400 C.2   267  ILE267      0.2260
     15  O         53.6840  -39.4820   69.7390 O.2   267  ILE267     -0.2867
     16  CB        51.0730  -40.2300   67.7320 C.3   267  ILE267      0.0252
     17  CG1       49.8910  -39.6880   66.9040 C.3   267  ILE267      0.0019
     18  CG2       50.5680  -40.4810   69.1650 C.3   267  ILE267      0.0019
     19  CD1       49.4800  -38.3170   67.3210 C.3   267  ILE267      0.0001
     20  N         56.0680  -37.4550   69.5540 N.3   270  THR270     -0.1203
     21  CA        55.4950  -36.5520   70.5380 C.3   270  THR270      0.1994
     22  C         55.4810  -37.2380   71.9360 C.2   270  THR270      0.2617
     23  O         55.9170  -36.6230   72.9100 O.2   270  THR270     -0.2717
     24  CB        54.0730  -36.1900   70.1410 C.3   270  THR270      0.1784
     25  OG1       54.0380  -35.6270   68.7920 O.3   270  THR270     -0.2211
     26  CG2       53.4830  -35.2330   71.1200 C.3   270  THR270      0.0376
     27  N         54.9650  -38.4870   72.0020 N.am  271  VAL271     -0.1979
     28  CA        54.8710  -39.2780   73.1980 C.3   271  VAL271      0.1595
     29  C         56.2750  -39.5150   73.7940 C.2   271  VAL271      0.2287
     30  O         56.4490  -39.3070   74.9960 O.2   271  VAL271     -0.2864
     31  CB        54.1660  -40.6190   72.9400 C.3   271  VAL271      0.0276
     32  CG1       54.4040  -41.5740   74.1030 C.3   271  VAL271      0.0022
     33  CG2       52.6650  -40.3750   72.7640 C.3   271  VAL271      0.0022
     34  N         57.5010  -36.1520   75.3560 N.3   274  TYR274     -0.1227
     35  CA        56.6980  -35.8610   76.5090 C.3   274  TYR274      0.1736
     36  C         57.1440  -36.6800   77.7790 C.2   274  TYR274      0.2595
     37  O         57.2740  -36.0920   78.8550 O.2   274  TYR274     -0.2718
     38  CB        55.2410  -36.1790   76.2070 C.3   274  TYR274      0.0548
     39  CG        54.3140  -35.6710   77.2390 C.ar  274  TYR274     -0.0200
     40  CD1       53.9090  -36.4740   78.2820 C.ar  274  TYR274     -0.0009
     41  CD2       53.8550  -34.3830   77.1830 C.ar  274  TYR274     -0.0009
     42  CE1       53.0410  -36.0060   79.2450 C.ar  274  TYR274      0.0417
     43  CE2       52.9660  -33.9120   78.1060 C.ar  274  TYR274      0.0417
     44  CZ        52.5520  -34.7360   79.1280 C.ar  274  TYR274      0.1957
     45  OH        51.6580  -34.2540   80.0560 O.3   274  TYR274     -0.2866
     46  N         57.4060  -37.9840   77.6070 N.am  275  LEU275     -0.1980
     47  CA        57.8640  -38.8620   78.6400 C.3   275  LEU275      0.1596
     48  C         59.2690  -38.5020   79.1570 C.2   275  LEU275      0.2287
     49  O         59.4840  -38.5040   80.4090 O.2   275  LEU275     -0.2864
     50  CB        57.7940  -40.3000   78.1540 C.3   275  LEU275      0.0297
     51  CG        56.3570  -40.8040   77.9630 C.3   275  LEU275      0.0022
     52  CD1       56.3350  -42.1730   77.3220 C.3   275  LEU275      0.0001
     53  CD2       55.6150  -40.9200   79.2570 C.3   275  LEU275      0.0001
     54  N         59.0840  -35.4780   81.2830 N.3   278  GLU278     -0.1245
     55  CA        58.4220  -35.9090   82.5190 C.3   278  GLU278      0.1567
     56  C         59.3370  -36.8370   83.3740 C.2   278  GLU278      0.2260
     57  O         58.8680  -37.4070   84.3510 O.2   278  GLU278     -0.2867
     58  CB        57.2130  -36.7570   82.1560 C.3   278  GLU278      0.0388
     59  CG        55.9440  -36.0280   82.1690 C.3   278  GLU278      0.1160
     60  CD        54.8010  -36.9620   82.2570 C.2   278  GLU278      0.3649
     61  OE1       54.9310  -38.1490   81.8660 O.co2 278  GLU278     -0.2457
     62  OE2       53.7540  -36.4800   82.7410 O.co2 278  GLU278     -0.2457
     63  N         60.5590  -39.8460   82.5140 N.3   280  GLN280     -0.1245
     64  CA        60.2020  -41.2670   82.2980 C.3   280  GLN280      0.1566
     65  C         60.8220  -41.8070   81.0020 C.2   280  GLN280      0.2260
     66  O         60.1060  -42.2950   80.1450 O.2   280  GLN280     -0.2867
     67  CB        58.7100  -41.4670   82.3210 C.3   280  GLN280      0.0367
     68  CG        58.1150  -41.4680   83.7070 C.3   280  GLN280      0.0905
     69  CD        56.6140  -41.2620   83.6490 C.2   280  GLN280      0.2608
     70  OE1       56.1170  -40.2190   84.0190 O.2   280  GLN280     -0.2717
     71  NE2       55.8790  -42.2280   83.1070 N.am  280  GLN280     -0.0878
     72  N         60.4050  -45.7390   79.8980 N.3   283  ARG283     -0.1245
     73  CA        59.1420  -46.0070   79.3030 C.3   283  ARG283      0.1563
     74  C         59.0830  -45.5670   77.8180 C.2   283  ARG283      0.2260
     75  O         58.5660  -46.3230   76.9660 O.2   283  ARG283     -0.2867
     76  CB        58.0560  -45.2310   80.0540 C.3   283  ARG283      0.0307
     77  CG        56.6160  -45.6160   79.6600 C.3   283  ARG283      0.0489
     78  CD        55.6420  -46.0020   80.8200 C.3   283  ARG283      0.2205
     79  NE        54.5880  -45.0040   81.0770 N.pl3 283  ARG283     -0.0865
     80  CZ        53.4740  -44.8340   80.3700 C.cat 283  ARG283      0.5346
     81  NH1       53.1940  -45.6300   79.3400 N.pl3 283  ARG283      0.1354
     82  NH2       52.6330  -43.8540   80.6980 N.pl3 283  ARG283      0.1354
     83  N         58.4980  -47.8850   74.1810 N.3   287  ILE287     -0.1245
     84  CA        57.6060  -47.4760   73.0720 C.3   287  ILE287      0.1561
     85  C         58.4370  -47.3390   71.7660 C.2   287  ILE287      0.2260
     86  O         58.0310  -47.8840   70.7390 O.2   287  ILE287     -0.2867
     87  CB        56.8670  -46.2220   73.4780 C.3   287  ILE287      0.0252
     88  CG1       55.9290  -46.5470   74.6450 C.3   287  ILE287      0.0019
     89  CG2       56.0230  -45.7460   72.3320 C.3   287  ILE287      0.0019
     90  CD1       55.3240  -45.3530   75.3190 C.3   287  ILE287      0.0001
@<TRIPOS>BOND
     1     1     2    1
     2     5     2    1
     3     5     6    1
     4     2     3    1
     5     6     7   ar
     6     6     8   ar
     7     7     9   ar
     8     3     4    2
     9     8    10   ar
    10     9    11   ar
    11    10    11   ar
    12    12    13    1
    13    17    19    1
    14    17    16    1
    15    16    13    1
    16    16    18    1
    17    13    14    1
    18    14    15    2
    19    25    24    1
    20    20    21    1
    21    24    21    1
    22    24    26    1
    23    21    22    1
    24    86    85    2
    25    85    84    1
    26    22    27   am
    27    22    23    2
    28    27    28    1
    29    89    87    1
    30    33    31    1
    31    31    28    1
    32    31    32    1
    33    84    87    1
    34    84    83    1
    35    28    29    1
    36    87    88    1
    37    29    30    2
    38    88    90    1
    39    34    35    1
    40    38    35    1
    41    38    39    1
    42    35    36    1
    43    75    74    2
    44    41    39   ar
    45    41    43   ar
    46    39    40   ar
    47    52    51    1
    48    46    36   am
    49    46    47    1
    50    36    37    2
    51    74    73    1
    52    51    50    1
    53    51    53    1
    54    43    44   ar
    55    50    47    1
    56    40    42   ar
    57    47    48    1
    58    44    42   ar
    59    44    45    1
    60    48    49    2
    61    73    72    1
    62    73    76    1
    63    81    80    1
    64    77    76    1
    65    77    78    1
    66    66    65    2
    67    80    82    1
    68    80    79    2
    69    78    79    1
    70    65    64    1
    71    54    55    1
    72    61    60   ar
    73    58    59    1
    74    58    55    1
    75    59    60    1
    76    60    62   ar
    77    64    67    1
    78    64    63    1
    79    67    68    1
    80    55    56    1
    81    71    69   am
    82    56    57    2
    83    69    68    1
    84    69    70    2
