@<TRIPOS>MOLECULE
tmp/6hzwC04.pdb
 108 103 0 0 0
SMALL
GASTEIGER

@<TRIPOS>ATOM
      1  N         39.1950  -48.4880   33.6120 N.3   111  ASP111     -0.1239
      2  CA        39.0520  -48.9470   34.9830 C.3   111  ASP111      0.1674
      3  C         40.4130  -48.7980   35.6920 C.2   111  ASP111      0.2266
      4  O         41.3720  -49.5390   35.3740 O.2   111  ASP111     -0.2867
      5  CB        38.6120  -50.4110   34.9960 C.3   111  ASP111      0.1410
      6  CG        38.4170  -50.9560   36.3940 C.2   111  ASP111      0.3668
      7  OD1       38.7420  -50.3040   37.4170 O.co2 111  ASP111     -0.2456
      8  OD2       37.8980  -52.0630   36.4610 O.co2 111  ASP111     -0.2456
      9  N         41.1470  -49.1490   38.9980 N.3   113  ARG113     -0.1231
     10  CA        41.2380  -49.9020   40.2560 C.3   113  ARG113      0.1694
     11  C         42.6200  -50.4800   40.5500 C.2   113  ARG113      0.2591
     12  O         43.0950  -50.4190   41.6810 O.2   113  ARG113     -0.2718
     13  CB        40.1820  -51.0170   40.3180 C.3   113  ARG113      0.0321
     14  CG        38.9270  -50.5770   41.0500 C.3   113  ARG113      0.0489
     15  CD        37.6130  -51.3770   40.8340 C.3   113  ARG113      0.2205
     16  NE        37.0080  -50.7830   39.6910 N.pl3 113  ARG113     -0.0865
     17  CZ        35.8660  -50.1270   39.5940 C.cat 113  ARG113      0.5346
     18  NH1       35.0400  -49.9820   40.5990 N.pl3 113  ARG113      0.1354
     19  NH2       35.5450  -49.6410   38.4110 N.pl3 113  ARG113      0.1354
     20  N         43.2800  -51.0370   39.5440 N.am  114  ARG114     -0.1980
     21  CA        44.6090  -51.6640   39.7350 C.3   114  ARG114      0.1597
     22  C         45.7930  -50.8620   39.2020 C.2   114  ARG114      0.2287
     23  O         46.9020  -51.4020   39.1580 O.2   114  ARG114     -0.2864
     24  CB        44.6520  -52.9950   39.0500 C.3   114  ARG114      0.0334
     25  CG        43.5910  -53.9050   39.5280 C.3   114  ARG114      0.0492
     26  CD        43.6940  -55.2180   38.7840 C.3   114  ARG114      0.2205
     27  NE        42.8710  -56.1430   39.5210 N.pl3 114  ARG114     -0.0865
     28  CZ        42.7930  -57.4290   39.2830 C.cat 114  ARG114      0.5346
     29  NH1       43.4460  -57.9560   38.2560 N.pl3 114  ARG114      0.1354
     30  NH2       42.0130  -58.1740   40.0510 N.pl3 114  ARG114      0.1354
     31  N         38.5110  -46.2670   45.0480 N.3   248  MET248     -0.1245
     32  CA        39.9380  -46.1750   45.3560 C.3   248  MET248      0.1570
     33  C         40.7450  -46.9530   44.3010 C.2   248  MET248      0.2261
     34  O         40.3520  -48.0560   43.9280 O.2   248  MET248     -0.2867
     35  CB        40.2960  -46.7730   46.7250 C.3   248  MET248      0.0387
     36  CG        39.7680  -46.0000   47.9320 C.3   248  MET248      0.0595
     37  SD        40.4150  -44.3180   48.0450 S.3   248  MET248     -0.1393
     38  CE        42.1150  -44.6220   48.4940 C.3   248  MET248      0.0692
     39  N         45.2370  -46.0270   47.3530 N.3   253  ALA253     -0.1245
     40  CA        45.0740  -46.7270   48.6410 C.3   253  ALA253      0.1562
     41  C         46.3790  -46.8040   49.4180 C.2   253  ALA253      0.2260
     42  O         46.3710  -46.4920   50.5670 O.2   253  ALA253     -0.2867
     43  CB        44.5570  -48.1490   48.4360 C.3   253  ALA253      0.0290
     44  N         47.2870  -43.1420   50.4480 N.3   256  PHE256     -0.1227
     45  CA        46.4230  -42.7570   51.5670 C.3   256  PHE256      0.1736
     46  C         46.8700  -43.4300   52.8840 C.2   256  PHE256      0.2595
     47  O         46.9330  -42.7650   53.9210 O.2   256  PHE256     -0.2718
     48  CB        44.9340  -43.0380   51.3060 C.3   256  PHE256      0.0547
     49  CG        44.0720  -42.7010   52.4760 C.ar  256  PHE256     -0.0202
     50  CD1       43.5960  -43.7030   53.3160 C.ar  256  PHE256     -0.0042
     51  CD2       43.8700  -41.3970   52.8220 C.ar  256  PHE256     -0.0042
     52  CE1       42.8780  -43.3890   54.4680 C.ar  256  PHE256     -0.0003
     53  CE2       43.1230  -41.0820   53.9370 C.ar  256  PHE256     -0.0003
     54  CZ        42.6360  -42.0650   54.7720 C.ar  256  PHE256     -0.0000
     55  N         47.1620  -44.7240   52.8290 N.am  257  MET257     -0.1979
     56  CA        47.5740  -45.5140   53.9640 C.3   257  MET257      0.1605
     57  C         48.8800  -44.9430   54.5660 C.2   257  MET257      0.2287
     58  O         49.0220  -44.9200   55.8110 O.2   257  MET257     -0.2864
     59  CB        47.7850  -46.9470   53.5240 C.3   257  MET257      0.0413
     60  CG        48.1080  -47.8610   54.6870 C.3   257  MET257      0.0598
     61  SD        48.4630  -49.5080   54.1220 S.3   257  MET257     -0.1393
     62  CE        50.1460  -49.3260   53.5580 C.3   257  MET257      0.0692
     63  N         48.6330  -42.3280   57.2870 N.3   260  LEU260     -0.1245
     64  CA        48.3380  -42.8770   58.6180 C.3   260  LEU260      0.1561
     65  C         49.6510  -43.2520   59.3350 C.2   260  LEU260      0.2260
     66  O         49.7930  -42.9780   60.5270 O.2   260  LEU260     -0.2867
     67  CB        47.3950  -44.0730   58.5220 C.3   260  LEU260      0.0270
     68  CG        46.0000  -43.7740   57.8880 C.3   260  LEU260      0.0019
     69  CD1       45.1940  -45.0720   57.7100 C.3   260  LEU260      0.0001
     70  CD2       45.2390  -42.8360   58.7670 C.3   260  LEU260      0.0001
     71  N         46.1990  -55.1880   51.2420 N.3   306  LEU306     -0.1245
     72  CA        45.8410  -54.3610   50.0930 C.3   306  LEU306      0.1561
     73  C         46.0470  -55.0750   48.7430 C.2   306  LEU306      0.2260
     74  O         45.1410  -55.0290   47.9120 O.2   306  LEU306     -0.2867
     75  CB        46.6100  -53.0400   50.0570 C.3   306  LEU306      0.0270
     76  CG        46.1070  -51.9650   51.0090 C.3   306  LEU306      0.0019
     77  CD1       46.9020  -50.7020   50.7950 C.3   306  LEU306      0.0001
     78  CD2       44.6420  -51.6660   50.7940 C.3   306  LEU306      0.0001
     79  N         43.2500  -57.6490   48.3940 N.3   309  LEU309     -0.1231
     80  CA        41.9720  -57.0490   48.0800 C.3   309  LEU309      0.1693
     81  C         41.8810  -56.5410   46.6320 C.2   309  LEU309      0.2592
     82  O         40.7950  -56.5310   46.0690 O.2   309  LEU309     -0.2718
     83  CB        41.6460  -55.8820   48.9670 C.3   309  LEU309      0.0284
     84  CG        41.3640  -56.2440   50.4540 C.3   309  LEU309      0.0019
     85  CD1       41.2210  -54.9820   51.3000 C.3   309  LEU309      0.0001
     86  CD2       40.0890  -57.0880   50.5920 C.3   309  LEU309      0.0001
     87  N         42.9870  -56.0620   46.0690 N.am  310  PHE310     -0.1962
     88  CA        43.0140  -55.5120   44.7240 C.3   310  PHE310      0.1771
     89  C         43.3730  -56.5300   43.5860 C.2   310  PHE310      0.2619
     90  O         42.9610  -56.2570   42.4430 O.2   310  PHE310     -0.2715
     91  CB        43.9340  -54.2870   44.6540 C.3   310  PHE310      0.0574
     92  CG        43.3320  -53.0180   45.1710 C.ar  310  PHE310     -0.0200
     93  CD1       42.7310  -52.1380   44.3230 C.ar  310  PHE310     -0.0042
     94  CD2       43.4880  -52.6280   46.5040 C.ar  310  PHE310     -0.0042
     95  CE1       42.1880  -50.9460   44.7820 C.ar  310  PHE310     -0.0003
     96  CE2       42.9480  -51.4440   46.9740 C.ar  310  PHE310     -0.0003
     97  CZ        42.2950  -50.6060   46.1000 C.ar  310  PHE310     -0.0000
     98  N         44.1210  -57.6110   43.8860 N.am  311  PHE311     -0.1974
     99  CA        44.5890  -58.4930   42.8170 C.3   311  PHE311      0.1639
    100  C         44.0880  -59.9580   42.8090 C.2   311  PHE311      0.2290
    101  O         43.4430  -60.3220   43.8070 O.2   311  PHE311     -0.2864
    102  CB        46.0870  -58.4090   42.7310 C.3   311  PHE311      0.0560
    103  CG        46.5650  -57.0600   42.3200 C.ar  311  PHE311     -0.0200
    104  CD1       46.6380  -56.7170   40.9810 C.ar  311  PHE311     -0.0042
    105  CD2       46.9480  -56.1040   43.2850 C.ar  311  PHE311     -0.0042
    106  CE1       47.1050  -55.4740   40.6100 C.ar  311  PHE311     -0.0003
    107  CE2       47.4130  -54.8540   42.9090 C.ar  311  PHE311     -0.0003
    108  CZ        47.4830  -54.5450   41.5920 C.ar  311  PHE311     -0.0000
@<TRIPOS>BOND
     1     1     2    1
     2     2     5    1
     3     2     3    1
     4     5     6    1
     5     4     3    2
     6     6     8   ar
     7     6     7   ar
     8    29    28    1
     9    19    17    1
    10    26    27    1
    11    26    25    1
    12     9    10    1
    13    24    25    1
    14    24    21    1
    15    23    22    2
    16    22    21    1
    17    28    27    2
    18    28    30    1
    19    20    21    1
    20    20    11   am
    21    17    16    2
    22    17    18    1
    23    16    15    1
    24    10    13    1
    25    10    11    1
    26    13    14    1
    27    11    12    2
    28   106   104   ar
    29   106   108   ar
    30    15    14    1
    31   104   103   ar
    32   108   107   ar
    33   103   102    1
    34   103   105   ar
    35    90    89    2
    36   102    99    1
    37   100    99    1
    38   100   101    2
    39    99    98    1
    40   107   105   ar
    41    89    98   am
    42    89    88    1
    43    34    33    2
    44    33    32    1
    45    93    95   ar
    46    93    92   ar
    47    91    88    1
    48    91    92    1
    49    88    87    1
    50    95    97   ar
    51    31    32    1
    52    92    94   ar
    53    32    35    1
    54    87    81   am
    55    82    81    2
    56    97    96   ar
    57    94    96   ar
    58    81    80    1
    59    35    36    1
    60    39    40    1
    61    74    73    2
    62    36    37    1
    63    37    38    1
    64    80    79    1
    65    80    83    1
    66    43    40    1
    67    40    41    1
    68    73    72    1
    69    83    84    1
    70    41    42    2
    71    75    72    1
    72    75    76    1
    73    72    71    1
    74    44    45    1
    75    84    86    1
    76    84    85    1
    77    78    76    1
    78    77    76    1
    79    48    45    1
    80    48    49    1
    81    45    46    1
    82    49    51   ar
    83    49    50   ar
    84    51    53   ar
    85    55    46   am
    86    55    56    1
    87    46    47    2
    88    50    52   ar
    89    59    56    1
    90    59    60    1
    91    62    61    1
    92    53    54   ar
    93    56    57    1
    94    61    60    1
    95    52    54   ar
    96    57    58    2
    97    63    64    1
    98    69    68    1
    99    68    67    1
   100    68    70    1
   101    67    64    1
   102    64    65    1
   103    65    66    2
