@<TRIPOS>MOLECULE
tmp/6hzyB00.pdb
 195 197 0 0 0
SMALL
GASTEIGER

@<TRIPOS>ATOM
      1  N        -17.1190  -37.6830   25.2480 N.3    29  PHE29      -0.1241
      2  CA       -17.8200  -38.2410   26.4120 C.3    29  PHE29       0.1605
      3  C        -16.7720  -38.8980   27.3070 C.2    29  PHE29       0.2264
      4  O        -15.8430  -39.6050   26.8060 O.2    29  PHE29      -0.2867
      5  CB       -18.8770  -39.2680   25.9490 C.3    29  PHE29       0.0534
      6  CG       -20.2490  -39.0510   26.5310 C.ar   29  PHE29      -0.0203
      7  CD1      -20.4610  -39.1120   27.9030 C.ar   29  PHE29      -0.0042
      8  CD2      -21.3400  -38.8090   25.7020 C.ar   29  PHE29      -0.0042
      9  CE1      -21.7120  -38.8420   28.4410 C.ar   29  PHE29      -0.0003
     10  CE2      -22.5970  -38.5710   26.2450 C.ar   29  PHE29      -0.0003
     11  CZ       -22.7780  -38.5870   27.6140 C.ar   29  PHE29      -0.0000
     12  N        -17.1720  -41.7500   30.2810 N.3    31  HIS31      -0.1241
     13  CA       -17.8590  -42.7010   31.1720 C.3    31  HIS31       0.1621
     14  C        -16.8100  -43.1760   32.1600 C.2    31  HIS31       0.2264
     15  O        -15.9340  -43.9650   31.7680 O.2    31  HIS31      -0.2867
     16  CB       -18.5240  -43.8270   30.3650 C.3    31  HIS31       0.0745
     17  CG       -19.8450  -43.4490   29.7820 C.ar   31  HIS31       0.0817
     18  ND1      -19.9760  -42.6310   28.6880 N.ar   31  HIS31      -0.2268
     19  CD2      -21.1030  -43.7850   30.1620 C.ar   31  HIS31       0.1154
     20  CE1      -21.2570  -42.4690   28.4150 C.ar   31  HIS31       0.1986
     21  NE2      -21.9580  -43.1720   29.2930 N.ar   31  HIS31      -0.2212
     22  N        -20.5030  -50.6740   31.5160 N.3    52  GLU52      -0.1231
     23  CA       -21.1040  -49.7870   32.5430 C.3    52  GLU52       0.1699
     24  C        -22.4410  -50.3640   33.0350 C.2    52  GLU52       0.2592
     25  O        -22.9460  -49.8560   34.0580 O.2    52  GLU52      -0.2718
     26  CB       -21.2450  -48.3510   32.0480 C.3    52  GLU52       0.0402
     27  CG       -22.3140  -48.1320   30.9950 C.3    52  GLU52       0.1161
     28  CD       -22.0410  -48.5860   29.5770 C.2    52  GLU52       0.3649
     29  OE1      -20.8810  -49.0650   29.2700 O.co2  52  GLU52      -0.2457
     30  OE2      -22.9490  -48.3910   28.7380 O.co2  52  GLU52      -0.2457
     31  N        -22.9680  -51.3850   32.3670 N.am   53  TRP53      -0.1976
     32  CA       -24.2050  -52.1080   32.7790 C.3    53  TRP53       0.1640
     33  C        -23.8430  -53.4470   33.4390 C.2    53  TRP53       0.2290
     34  O        -24.7610  -54.2850   33.6030 O.2    53  TRP53      -0.2864
     35  CB       -25.1060  -52.3600   31.5820 C.3    53  TRP53       0.0576
     36  CG       -25.9570  -51.2020   31.1700 C.ar   53  TRP53       0.0006
     37  CD1      -25.5720  -50.1190   30.4290 C.ar   53  TRP53       0.0946
     38  CD2      -27.3780  -51.0800   31.3740 C.ar   53  TRP53       0.0152
     39  NE1      -26.6470  -49.2940   30.2270 N.ar   53  TRP53      -0.2442
     40  CE2      -27.7720  -49.8610   30.7810 C.ar   53  TRP53       0.0810
     41  CE3      -28.3370  -51.8540   32.0370 C.ar   53  TRP53       0.0012
     42  CZ2      -29.0950  -49.4060   30.8300 C.ar   53  TRP53       0.0191
     43  CZ3      -29.6380  -51.4110   32.0810 C.ar   53  TRP53       0.0001
     44  CH2      -30.0160  -50.2120   31.4630 C.ar   53  TRP53       0.0015
     45  N        -23.7560  -42.3740   36.9240 N.3   100  HIS100     -0.1226
     46  CA       -24.3840  -43.3090   35.9570 C.3   100  HIS100      0.1752
     47  C        -25.4290  -44.1410   36.7110 C.2   100  HIS100      0.2596
     48  O        -25.7160  -43.8450   37.8960 O.2   100  HIS100     -0.2718
     49  CB       -23.3140  -44.1570   35.2280 C.3   100  HIS100      0.0759
     50  CG       -23.7200  -44.6320   33.8810 C.ar  100  HIS100      0.0818
     51  ND1      -24.3650  -45.8680   33.6760 N.ar  100  HIS100     -0.2268
     52  CD2      -23.6220  -44.0550   32.6580 C.ar  100  HIS100      0.1154
     53  CE1      -24.6400  -46.0080   32.4050 C.ar  100  HIS100      0.1986
     54  NE2      -24.2260  -44.8870   31.7530 N.ar  100  HIS100     -0.2212
     55  N        -26.1120  -45.0440   36.0050 N.am  101  HIS101     -0.1975
     56  CA       -27.1760  -45.8760   36.6430 C.3   101  HIS101      0.1656
     57  C        -26.7030  -46.4030   38.0130 C.2   101  HIS101      0.2291
     58  O        -27.5200  -46.4530   38.9760 O.2   101  HIS101     -0.2864
     59  CB       -27.6070  -47.0080   35.7080 C.3   101  HIS101      0.0771
     60  CG       -27.9460  -46.5980   34.3260 C.ar  101  HIS101      0.0820
     61  ND1      -28.5940  -45.4190   34.0310 N.ar  101  HIS101     -0.2267
     62  CD2      -27.7130  -47.2090   33.1510 C.ar  101  HIS101      0.1154
     63  CE1      -28.7900  -45.3570   32.7460 C.ar  101  HIS101      0.1986
     64  NE2      -28.2350  -46.4180   32.1840 N.ar  101  HIS101     -0.2212
     65  N        -23.4490  -35.3110   32.1630 N.3   143  TYR143     -0.1241
     66  CA       -24.3240  -36.5040   32.0320 C.3   143  TYR143      0.1605
     67  C        -24.8710  -36.7500   33.4390 C.2   143  TYR143      0.2264
     68  O        -24.0820  -36.7250   34.3880 O.2   143  TYR143     -0.2867
     69  CB       -23.5390  -37.7210   31.5260 C.3   143  TYR143      0.0534
     70  CG       -24.2700  -39.0350   31.7160 C.ar  143  TYR143     -0.0201
     71  CD1      -24.4540  -39.5690   32.9730 C.ar  143  TYR143     -0.0009
     72  CD2      -24.7900  -39.7320   30.6330 C.ar  143  TYR143     -0.0009
     73  CE1      -25.1930  -40.7340   33.1690 C.ar  143  TYR143      0.0417
     74  CE2      -25.4560  -40.9390   30.8110 C.ar  143  TYR143      0.0417
     75  CZ       -25.6890  -41.4150   32.0870 C.ar  143  TYR143      0.1957
     76  OH       -26.3540  -42.5970   32.3070 O.3   143  TYR143     -0.2866
     77  N        -27.1620  -33.4470   30.2780 N.3   192  TRP192     -0.1241
     78  CA       -27.5340  -34.5150   29.3320 C.3   192  TRP192      0.1605
     79  C        -28.1060  -35.6390   30.1940 C.2   192  TRP192      0.2264
     80  O        -27.3410  -36.3180   30.8840 O.2   192  TRP192     -0.2867
     81  CB       -26.3320  -34.9420   28.5280 C.3   192  TRP192      0.0550
     82  CG       -26.6720  -35.7890   27.3480 C.ar  192  TRP192      0.0003
     83  CD1      -26.8880  -35.3450   26.0810 C.ar  192  TRP192      0.0946
     84  CD2      -26.8580  -37.2160   27.3220 C.ar  192  TRP192      0.0152
     85  NE1      -27.1570  -36.4020   25.2540 N.ar  192  TRP192     -0.2442
     86  CE2      -27.1150  -37.5610   25.9850 C.ar  192  TRP192      0.0810
     87  CE3      -26.7270  -38.2390   28.2600 C.ar  192  TRP192      0.0012
     88  CZ2      -27.2830  -38.8780   25.5730 C.ar  192  TRP192      0.0191
     89  CZ3      -26.9470  -39.5400   27.8680 C.ar  192  TRP192      0.0001
     90  CH2      -27.2210  -39.8540   26.5400 C.ar  192  TRP192      0.0015
     91  N        -30.1700  -39.0630   31.2310 N.3   194  ASP194     -0.1239
     92  CA       -30.3430  -40.4840   30.8480 C.3   194  ASP194      0.1674
     93  C        -31.1560  -41.1570   31.9450 C.2   194  ASP194      0.2266
     94  O        -31.2920  -40.5830   33.0390 O.2   194  ASP194     -0.2867
     95  CB       -28.9810  -41.1510   30.7300 C.3   194  ASP194      0.1410
     96  CG       -28.9810  -42.5300   30.1070 C.2   194  ASP194      0.3668
     97  OD1      -29.9380  -42.8330   29.3330 O.co2 194  ASP194     -0.2456
     98  OD2      -28.0120  -43.2710   30.3890 O.co2 194  ASP194     -0.2456
     99  N        -36.5330  -43.0550   30.7820 N.3   197  TRP197     -0.1241
    100  CA       -37.4410  -43.7620   29.8280 C.3   197  TRP197      0.1605
    101  C        -38.5600  -44.5070   30.5750 C.2   197  TRP197      0.2264
    102  O        -39.5060  -44.9860   29.8970 O.2   197  TRP197     -0.2867
    103  CB       -36.6560  -44.7280   28.9340 C.3   197  TRP197      0.0550
    104  CG       -35.8740  -45.7530   29.7060 C.ar  197  TRP197      0.0003
    105  CD1      -36.3800  -46.8360   30.3620 C.ar  197  TRP197      0.0946
    106  CD2      -34.4500  -45.7960   29.9080 C.ar  197  TRP197      0.0152
    107  NE1      -35.3790  -47.5400   30.9670 N.ar  197  TRP197     -0.2442
    108  CE2      -34.1810  -46.9250   30.7140 C.ar  197  TRP197      0.0810
    109  CE3      -33.3800  -44.9930   29.5050 C.ar  197  TRP197      0.0012
    110  CZ2      -32.8970  -47.2700   31.1210 C.ar  197  TRP197      0.0191
    111  CZ3      -32.1030  -45.3410   29.9020 C.ar  197  TRP197      0.0001
    112  CH2      -31.8650  -46.4720   30.6860 C.ar  197  TRP197      0.0015
    113  N        -33.8690  -35.9620   25.8200 N.3   227  ARG227     -0.1245
    114  CA       -34.0010  -37.2470   26.5500 C.3   227  ARG227      0.1563
    115  C        -34.6350  -37.0560   27.9300 C.2   227  ARG227      0.2260
    116  O        -35.3730  -37.9500   28.3520 O.2   227  ARG227     -0.2867
    117  CB       -32.6260  -37.9090   26.6580 C.3   227  ARG227      0.0307
    118  CG       -32.6630  -39.4200   26.8160 C.3   227  ARG227      0.0489
    119  CD       -31.2720  -39.9730   26.5250 C.3   227  ARG227      0.2205
    120  NE       -31.0830  -41.2810   27.1350 N.pl3 227  ARG227     -0.0865
    121  CZ       -31.5360  -42.4310   26.6310 C.cat 227  ARG227      0.5346
    122  NH1      -31.3070  -43.5640   27.2680 N.pl3 227  ARG227      0.1354
    123  NH2      -32.1990  -42.4580   25.4880 N.pl3 227  ARG227      0.1354
    124  N        -39.1480  -36.6920   24.1210 N.3   237  HIS237     -0.1241
    125  CA       -38.2550  -35.9500   23.1850 C.3   237  HIS237      0.1621
    126  C        -39.0650  -34.8710   22.4520 C.2   237  HIS237      0.2264
    127  O        -38.6720  -33.6900   22.5270 O.2   237  HIS237     -0.2867
    128  CB       -37.5490  -36.8610   22.1800 C.3   237  HIS237      0.0745
    129  CG       -36.5780  -37.8330   22.7740 C.ar  237  HIS237      0.0817
    130  ND1      -35.2280  -37.5080   22.9460 N.ar  237  HIS237     -0.2268
    131  CD2      -36.7170  -39.1310   23.1400 C.ar  237  HIS237      0.1154
    132  CE1      -34.5900  -38.5640   23.4360 C.ar  237  HIS237      0.1986
    133  NE2      -35.4930  -39.5780   23.5990 N.ar  237  HIS237     -0.2212
    134  N        -31.3240  -35.4370   21.3530 N.3   250  SER250     -0.1202
    135  CA       -30.2680  -36.4340   21.6540 C.3   250  SER250      0.2020
    136  C        -30.7880  -37.8040   21.2030 C.2   250  SER250      0.2619
    137  O        -31.7080  -38.3010   21.8430 O.2   250  SER250     -0.2717
    138  CB       -29.9710  -36.4440   23.1220 C.3   250  SER250      0.2103
    139  OG       -31.0790  -37.0030   23.7970 O.3   250  SER250     -0.2182
    140  N        -30.2910  -38.3030   20.0700 N.am  251  GLY251     -0.1942
    141  CA       -30.5090  -39.6690   19.5510 C.3   251  GLY251      0.2014
    142  C        -29.3820  -40.0680   18.6140 C.2   251  GLY251      0.2639
    143  O        -28.2850  -39.4890   18.7370 O.2   251  GLY251     -0.2714
    144  N        -29.6430  -41.0220   17.7150 N.am  252  TYR252     -0.1959
    145  CA       -28.7570  -41.4360   16.5950 C.3   252  TYR252      0.1771
    146  C        -27.4610  -42.0660   17.1250 C.2   252  TYR252      0.2619
    147  O        -26.4380  -41.9910   16.4050 O.2   252  TYR252     -0.2715
    148  CB       -28.4770  -40.2490   15.6740 C.3   252  TYR252      0.0574
    149  CG       -29.7100  -39.4560   15.3300 C.ar  252  TYR252     -0.0198
    150  CD1      -30.6560  -39.9250   14.4270 C.ar  252  TYR252     -0.0009
    151  CD2      -29.9400  -38.2300   15.9280 C.ar  252  TYR252     -0.0009
    152  CE1      -31.7870  -39.1780   14.1190 C.ar  252  TYR252      0.0417
    153  CE2      -31.0620  -37.4790   15.6340 C.ar  252  TYR252      0.0417
    154  CZ       -31.9920  -37.9540   14.7300 C.ar  252  TYR252      0.1957
    155  OH       -33.0920  -37.1850   14.4680 O.3   252  TYR252     -0.2866
    156  N        -27.5360  -42.6980   18.3070 N.am  253  GLU253     -0.1963
    157  CA       -26.4530  -43.4940   18.9560 C.3   253  GLU253      0.1733
    158  C        -26.2710  -44.8040   18.1720 C.2   253  GLU253      0.2616
    159  O        -25.1120  -45.2810   18.0700 O.2   253  GLU253     -0.2715
    160  CB       -26.7870  -43.7580   20.4320 C.3   253  GLU253      0.0429
    161  CG       -27.6350  -42.6590   21.0710 C.3   253  GLU253      0.1163
    162  CD       -27.7120  -42.6140   22.5900 C.2   253  GLU253      0.3649
    163  OE1      -27.3140  -43.6060   23.2440 O.co2 253  GLU253     -0.2457
    164  OE2      -28.2050  -41.5840   23.1150 O.co2 253  GLU253     -0.2457
    165  N        -27.3790  -45.3410   17.6400 N.am  254  ARG254     -0.1977
    166  CA       -27.4580  -46.5560   16.7750 C.3   254  ARG254      0.1597
    167  C        -27.0350  -46.1990   15.3430 C.2   254  ARG254      0.2287
    168  O        -26.0940  -46.8270   14.8250 O.2   254  ARG254     -0.2864
    169  CB       -28.8870  -47.1160   16.8000 C.3   254  ARG254      0.0334
    170  CG       -29.1170  -48.3380   15.9210 C.3   254  ARG254      0.0492
    171  CD       -28.7750  -49.6560   16.6020 C.3   254  ARG254      0.2205
    172  NE       -29.1920  -50.7990   15.7910 N.pl3 254  ARG254     -0.0865
    173  CZ       -29.2130  -52.0730   16.1890 C.cat 254  ARG254      0.5346
    174  NH1      -28.8380  -52.4100   17.4150 N.pl3 254  ARG254      0.1354
    175  NH2      -29.6150  -53.0130   15.3480 N.pl3 254  ARG254      0.1354
    176  N        -24.0790  -39.1250   19.9290 N.3   273  CYS273     -0.1235
    177  CA       -22.9290  -39.6810   20.6640 C.3   273  CYS273      0.1677
    178  C        -22.5340  -40.9960   19.9990 C.2   273  CYS273      0.2270
    179  O        -23.3790  -41.6270   19.3000 O.2   273  CYS273     -0.2867
    180  CB       -23.2560  -39.8910   22.1330 C.3   273  CYS273      0.0956
    181  SG       -24.8920  -40.6220   22.3900 S.3   273  CYS273     -0.0801
    182  N        -19.3650  -48.1670   26.6280 N.3   281  TRP281     -0.1241
    183  CA       -19.2100  -46.7600   27.0570 C.3   281  TRP281      0.1605
    184  C        -18.2050  -46.7230   28.2100 C.2   281  TRP281      0.2264
    185  O        -17.1490  -46.0120   28.1000 O.2   281  TRP281     -0.2867
    186  CB       -20.5840  -46.1410   27.3860 C.3   281  TRP281      0.0550
    187  CG       -21.5700  -46.1110   26.2480 C.ar  281  TRP281      0.0003
    188  CD1      -22.4780  -47.0840   25.9210 C.ar  281  TRP281      0.0946
    189  CD2      -21.8130  -45.0310   25.3320 C.ar  281  TRP281      0.0152
    190  NE1      -23.2410  -46.6950   24.8510 N.ar  281  TRP281     -0.2442
    191  CE2      -22.8630  -45.4370   24.4620 C.ar  281  TRP281      0.0810
    192  CE3      -21.2360  -43.7740   25.1180 C.ar  281  TRP281      0.0012
    193  CZ2      -23.3480  -44.6210   23.4410 C.ar  281  TRP281      0.0191
    194  CZ3      -21.7040  -42.9790   24.1020 C.ar  281  TRP281      0.0001
    195  CH2      -22.7370  -43.4010   23.2560 C.ar  281  TRP281      0.0015
@<TRIPOS>BOND
     1   152   150   ar
     2   152   154   ar
     3   150   149   ar
     4   155   154    1
     5   154   153   ar
     6   168   167    2
     7   149   148    1
     8   149   151   ar
     9   167   166    1
    10   175   173    1
    11   153   151   ar
    12   148   145    1
    13   172   173    2
    14   172   171    1
    15   170   171    1
    16   170   169    1
    17   173   174    1
    18   147   146    2
    19   145   146    1
    20   145   144    1
    21   166   169    1
    22   166   165    1
    23   146   156   am
    24   165   158   am
    25   144   142   am
    26   159   158    2
    27   158   157    1
    28   156   157    1
    29   142   143    2
    30   142   141    1
    31   157   160    1
    32   179   178    2
    33   141   140    1
    34   176   177    1
    35   178   177    1
    36   140   136   am
    37   160   161    1
    38   177   180    1
    39   161   162    1
    40   136   135    1
    41   136   137    2
    42   134   135    1
    43   135   138    1
    44   180   181    1
    45   128   129    1
    46   128   125    1
    47   126   127    2
    48   126   125    1
    49   162   164   ar
    50   162   163   ar
    51   129   130   ar
    52   129   131   ar
    53   130   132   ar
    54   138   139    1
    55   131   133   ar
    56   125   124    1
    57   195   193   ar
    58   195   194   ar
    59   132   133   ar
    60   193   191   ar
    61   194   192   ar
    62   191   190   ar
    63   191   189   ar
    64   190   188   ar
    65   192   189   ar
    66     1     2    1
    67    85    86   ar
    68    85    83   ar
    69   189   187   ar
    70   123   121    1
    71    88    86   ar
    72    88    90   ar
    73     8    10   ar
    74     8     6   ar
    75   113   114    1
    76   188   187   ar
    77     5     2    1
    78     5     6    1
    79    86    84   ar
    80    83    82   ar
    81    10    11   ar
    82   187   186    1
    83     2     3    1
    84   119   118    1
    85   119   120    1
    86     6     7   ar
    87    90    89   ar
    88   114   117    1
    89   114   115    1
    90   182   183    1
    91   121   120    2
    92   121   122    1
    93   117   118    1
    94     4     3    2
    95   183   186    1
    96   183   184    1
    97    84    82   ar
    98    84    87   ar
    99    82    81    1
   100    11     9   ar
   101    89    87   ar
   102     7     9   ar
   103   115   116    2
   104   185   184    2
   105    20    18   ar
   106    20    21   ar
   107    81    78    1
   108    18    17   ar
   109    30    28   ar
   110   103   104    1
   111   103   100    1
   112    29    28   ar
   113    21    19   ar
   114    78    79    1
   115    78    77    1
   116    97    96   ar
   117   109   111   ar
   118   109   106   ar
   119    28    27    1
   120   104   106   ar
   121   104   105   ar
   122    17    19   ar
   123    17    16    1
   124   100   101    1
   125   100    99    1
   126   102   101    2
   127   111   112   ar
   128   106   108   ar
   129    96    98   ar
   130    96    95    1
   131    79    80    2
   132    39    37   ar
   133    39    40   ar
   134    12    13    1
   135   105   107   ar
   136    16    13    1
   137    37    36   ar
   138    72    74   ar
   139    72    70   ar
   140   112   110   ar
   141   108   107   ar
   142   108   110   ar
   143    95    92    1
   144    40    42   ar
   145    40    38   ar
   146    74    75   ar
   147    42    44   ar
   148    92    91    1
   149    92    93    1
   150    27    26    1
   151    36    38   ar
   152    36    35    1
   153    13    14    1
   154    38    41   ar
   155    44    43   ar
   156    22    23    1
   157    69    70    1
   158    69    66    1
   159    35    32    1
   160    70    71   ar
   161    54    53   ar
   162    54    52   ar
   163    15    14    2
   164    93    94    2
   165    66    65    1
   166    66    67    1
   167    41    43   ar
   168    26    23    1
   169    75    76    1
   170    75    73   ar
   171    64    63   ar
   172    64    62   ar
   173    31    32    1
   174    31    24   am
   175    53    51   ar
   176    23    24    1
   177    52    50   ar
   178    63    61   ar
   179    32    33    1
   180    71    73   ar
   181    24    25    2
   182    62    60   ar
   183    67    68    2
   184    33    34    2
   185    51    50   ar
   186    50    49    1
   187    61    60   ar
   188    60    59    1
   189    49    46    1
   190    59    56    1
   191    46    47    1
   192    46    45    1
   193    55    56    1
   194    55    47   am
   195    56    57    1
   196    47    48    2
   197    57    58    2
