@<TRIPOS>MOLECULE
tmp/6i0mA00.pdb
 150 139 0 0 0
SMALL
GASTEIGER

@<TRIPOS>ATOM
      1  N        164.0750  277.8630  388.2460 N.3    57  SER57      -0.1217
      2  CA       164.3180  276.4840  388.6290 C.3    57  SER57       0.1889
      3  C        165.4360  275.8680  387.7880 C.2    57  SER57       0.2288
      4  O        165.6230  276.2310  386.6230 O.2    57  SER57      -0.2866
      5  CB       163.0520  275.6540  388.4690 C.3    57  SER57       0.2089
      6  OG       163.3160  274.3070  388.8090 O.3    57  SER57      -0.2183
      7  N        165.9400  273.4370  385.7170 N.3    59  MET59      -0.1245
      8  CA       165.3750  272.4770  384.7850 C.3    59  MET59       0.1570
      9  C        165.9620  272.7390  383.4090 C.2    59  MET59       0.2261
     10  O        166.1770  273.8930  383.0270 O.2    59  MET59      -0.2867
     11  CB       163.8460  272.5720  384.7290 C.3    59  MET59       0.0387
     12  CG       163.1410  271.9930  385.9460 C.3    59  MET59       0.0595
     13  SD       161.4950  272.6900  386.1890 S.3    59  MET59      -0.1393
     14  CE       160.5420  271.6110  385.1240 C.3    59  MET59       0.0692
     15  N        169.9210  268.6220  393.9220 N.3   260  ASP260     -0.1239
     16  CA       168.6980  268.2410  393.2260 C.3   260  ASP260      0.1674
     17  C        168.2720  266.8450  393.6650 C.2   260  ASP260      0.2266
     18  O        168.9220  265.8530  393.3200 O.2   260  ASP260     -0.2867
     19  CB       168.9350  268.2960  391.7190 C.3   260  ASP260      0.1410
     20  CG       167.6620  268.5130  390.9290 C.2   260  ASP260      0.3668
     21  OD1      166.5680  268.5230  391.5380 O.co2 260  ASP260     -0.2456
     22  OD2      167.7590  268.6820  389.6920 O.co2 260  ASP260     -0.2456
     23  N        164.3950  264.6270  395.0840 N.3   262  SER262     -0.1217
     24  CA       162.9830  264.6740  395.4450 C.3   262  SER262      0.1889
     25  C        162.7280  264.3080  396.9000 C.2   262  SER262      0.2288
     26  O        161.6390  264.5950  397.4110 O.2   262  SER262     -0.2866
     27  CB       162.1600  263.7510  394.5360 C.3   262  SER262      0.2089
     28  OG       162.5350  262.3970  394.6920 O.3   262  SER262     -0.2183
     29  N        164.8670  269.5220  399.0070 N.3   289  ASN289     -0.1240
     30  CA       163.4430  269.1950  398.9750 C.3   289  ASN289      0.1653
     31  C        162.9900  268.3940  400.1900 C.2   289  ASN289      0.2266
     32  O        163.2260  267.1870  400.2920 O.2   289  ASN289     -0.2867
     33  CB       163.1080  268.4720  397.6780 C.3   289  ASN289      0.1155
     34  CG       163.1810  269.4010  396.4780 C.2   289  ASN289      0.2627
     35  OD1      164.2120  269.4940  395.8050 O.2   289  ASN289     -0.2716
     36  ND2      162.0980  270.1260  396.2290 N.am  289  ASN289     -0.0877
     37  N        164.9840  273.8550  400.4340 N.3   308  ARG308     -0.1245
     38  CA       164.0660  273.8250  399.3060 C.3   308  ARG308      0.1563
     39  C        162.8510  272.9990  399.7010 C.2   308  ARG308      0.2260
     40  O        163.0000  271.8570  400.1360 O.2   308  ARG308     -0.2867
     41  CB       164.7680  273.2130  398.0970 C.3   308  ARG308      0.0307
     42  CG       164.0960  273.3890  396.7620 C.3   308  ARG308      0.0489
     43  CD       164.9350  272.6670  395.7340 C.3   308  ARG308      0.2205
     44  NE       164.4270  272.7770  394.3740 N.pl3 308  ARG308     -0.0865
     45  CZ       164.9280  272.1010  393.3450 C.cat 308  ARG308      0.5346
     46  NH1      165.9410  271.2630  393.5250 N.pl3 308  ARG308      0.1354
     47  NH2      164.4150  272.2590  392.1350 N.pl3 308  ARG308      0.1354
     48  N        155.8890  266.7960  394.9350 N.3   312  GLY312     -0.1210
     49  CA       154.6860  266.4040  394.2280 C.3   312  GLY312      0.1956
     50  C        153.7420  267.5470  393.9210 C.2   312  GLY312      0.2613
     51  O        152.5350  267.4400  394.1540 O.2   312  GLY312     -0.2717
     52  N        154.2780  268.6480  393.3940 N.am  313  SER313     -0.1938
     53  CA       153.4530  269.7900  393.0020 C.3   313  SER313      0.2055
     54  C        154.1340  270.4400  391.8000 C.2   313  SER313      0.2644
     55  O        155.0720  271.2280  391.9630 O.2   313  SER313     -0.2714
     56  CB       153.2890  270.7690  394.1570 C.3   313  SER313      0.2130
     57  OG       154.5390  271.0450  394.7710 O.3   313  SER313     -0.2179
     58  N        153.6490  270.1170  390.6000 N.am  314  GLY314     -0.1939
     59  CA       154.1550  270.7370  389.3900 C.3   314  GLY314      0.2014
     60  C        154.4030  269.7810  388.2390 C.2   314  GLY314      0.2639
     61  O        153.5340  269.5880  387.3820 O.2   314  GLY314     -0.2714
     62  N        155.5890  269.1750  388.2110 N.am  315  SER315     -0.1949
     63  CA       155.9910  268.2680  387.1310 C.3   315  SER315      0.1924
     64  C        155.8230  268.9320  385.7650 C.2   315  SER315      0.2314
     65  O        156.7770  269.0380  384.9910 O.2   315  SER315     -0.2863
     66  CB       155.1870  266.9650  387.1770 C.3   315  SER315      0.2116
     67  OG       155.4080  266.2650  388.3890 O.3   315  SER315     -0.2180
     68  N        155.2170  263.2190  388.0190 N.3   316  ILE316     -0.1231
     69  CA       154.0270  262.8620  388.7780 C.3   316  ILE316      0.1692
     70  C        154.3830  262.7050  390.2550 C.2   316  ILE316      0.2592
     71  O        153.8480  263.4100  391.1100 O.2   316  ILE316     -0.2718
     72  CB       153.3860  261.5760  388.2280 C.3   316  ILE316      0.0266
     73  CG1      154.4350  260.5480  387.7740 C.3   316  ILE316      0.0019
     74  CG2      152.4220  261.8840  387.1120 C.3   316  ILE316      0.0020
     75  CD1      153.8840  259.1660  387.5020 C.3   316  ILE316      0.0001
     76  N        155.2950  261.7740  390.5380 N.am  317  THR317     -0.1953
     77  CA       155.7620  261.4710  391.8900 C.3   317  THR317      0.1897
     78  C        154.6290  261.2290  392.8830 C.2   317  THR317      0.2313
     79  O        154.5730  260.1660  393.5090 O.2   317  THR317     -0.2863
     80  CB       156.6450  262.6160  392.4030 C.3   317  THR317      0.1794
     81  OG1      157.8610  262.6570  391.6470 O.3   317  THR317     -0.2208
     82  CG2      156.9800  262.4450  393.8920 C.3   317  THR317      0.0378
     83  N        159.1290  275.8020  396.5790 N.3   348  ASP348     -0.1225
     84  CA       159.4360  275.1520  395.3140 C.3   348  ASP348      0.1805
     85  C        158.2030  274.4360  394.7810 C.2   348  ASP348      0.2598
     86  O        157.7290  273.4730  395.3920 O.2   348  ASP348     -0.2718
     87  CB       160.5850  274.1650  395.5070 C.3   348  ASP348      0.1424
     88  CG       160.9680  273.4850  394.2350 C.2   348  ASP348      0.3668
     89  OD1      160.6620  274.0590  393.1740 O.co2 348  ASP348     -0.2456
     90  OD2      161.5640  272.3900  394.2840 O.co2 348  ASP348     -0.2456
     91  N        157.7040  274.8880  393.6400 N.am  349  GLY349     -0.1942
     92  CA       156.6470  274.1620  392.9510 C.3   349  GLY349      0.2014
     93  C        155.2580  274.6280  393.3350 C.2   349  GLY349      0.2639
     94  O        155.0130  275.1330  394.4320 O.2   349  GLY349     -0.2714
     95  N        154.3270  274.4570  392.3960 N.am  350  GLY350     -0.1939
     96  CA       152.9400  274.8200  392.6060 C.3   350  GLY350      0.2014
     97  C        152.5980  276.2600  392.3020 C.2   350  GLY350      0.2638
     98  O        151.4590  276.6720  392.5490 O.2   350  GLY350     -0.2714
     99  N        153.5330  277.0300  391.7540 N.am  351  ILE351     -0.1977
    100  CA       153.3620  278.4640  391.5530 C.3   351  ILE351      0.1596
    101  C        152.9010  278.6950  390.1220 C.2   351  ILE351      0.2287
    102  O        153.6790  278.5480  389.1730 O.2   351  ILE351     -0.2864
    103  CB       154.6580  279.2260  391.8600 C.3   351  ILE351      0.0276
    104  CG1      154.9140  279.1950  393.3690 C.3   351  ILE351      0.0022
    105  CG2      154.5920  280.6590  391.3160 C.3   351  ILE351      0.0022
    106  CD1      156.1130  279.9760  393.8150 C.3   351  ILE351      0.0001
    107  N        160.6850  279.6490  394.0590 N.3   369  MET369     -0.1230
    108  CA       161.3420  279.1150  392.8770 C.3   369  MET369      0.1702
    109  C        160.2820  278.7960  391.8300 C.2   369  MET369      0.2592
    110  O        159.3340  278.0520  392.1050 O.2   369  MET369     -0.2718
    111  CB       162.1500  277.8700  393.2340 C.3   369  MET369      0.0401
    112  CG       162.9160  277.2720  392.0730 C.3   369  MET369      0.0596
    113  SD       164.0080  275.9420  392.6100 S.3   369  MET369     -0.1393
    114  CE       165.3550  276.8830  393.3290 C.3   369  MET369      0.0692
    115  N        160.4370  279.3680  390.6420 N.am  370  MET370     -0.1965
    116  CA       159.5110  279.1620  389.5400 C.3   370  MET370      0.1736
    117  C        160.1850  278.3740  388.4280 C.2   370  MET370      0.2617
    118  O        161.3590  278.5960  388.1200 O.2   370  MET370     -0.2715
    119  CB       159.0220  280.4970  388.9900 C.3   370  MET370      0.0427
    120  CG       158.2760  281.3380  389.9990 C.3   370  MET370      0.0599
    121  SD       158.1520  283.0500  389.4700 S.3   370  MET370     -0.1393
    122  CE       159.8580  283.5780  389.5990 C.3   370  MET370      0.0692
    123  N        159.4380  277.4490  387.8360 N.am  371  GLY371     -0.1940
    124  CA       159.9060  276.7230  386.6720 C.3   371  GLY371      0.2014
    125  C        158.9140  276.8290  385.5330 C.2   371  GLY371      0.2639
    126  O        159.2040  277.4340  384.4970 O.2   371  GLY371     -0.2714
    127  N        157.7280  276.2480  385.7260 N.am  372  SER372     -0.1949
    128  CA       156.6820  276.3100  384.7100 C.3   372  SER372      0.1924
    129  C        156.3840  277.7490  384.3110 C.2   372  SER372      0.2314
    130  O        156.2830  278.0730  383.1230 O.2   372  SER372     -0.2863
    131  CB       155.4160  275.6360  385.2360 C.3   372  SER372      0.2116
    132  OG       154.2700  276.1200  384.5630 O.3   372  SER372     -0.2180
    133  N        162.2640  268.1610  381.0380 N.3   390  MET390     -0.1230
    134  CA       161.3710  268.3800  382.1790 C.3   390  MET390      0.1702
    135  C        161.5130  267.2730  383.2260 C.2   390  MET390      0.2593
    136  O        160.5360  266.8450  383.8450 O.2   390  MET390     -0.2718
    137  CB       159.9150  268.5190  381.7160 C.3   390  MET390      0.0401
    138  CG       159.3930  269.9530  381.6930 C.3   390  MET390      0.0596
    139  SD       158.8950  270.5360  380.0560 S.3   390  MET390     -0.1393
    140  CE       158.4100  272.2170  380.4380 C.3   390  MET390      0.0692
    141  N        162.7420  266.8080  383.4290 N.am  391  GLY391     -0.1942
    142  CA       163.0270  265.8590  384.4980 C.3   391  GLY391      0.2014
    143  C        162.2410  264.5690  384.4180 C.2   391  GLY391      0.2639
    144  O        161.7910  264.0540  385.4500 O.2   391  GLY391     -0.2714
    145  N        162.0660  264.0280  383.2130 N.am  392  SER392     -0.1949
    146  CA       161.3180  262.7890  383.0310 C.3   392  SER392      0.1924
    147  C        162.1270  261.7700  382.2350 C.2   392  SER392      0.2314
    148  O        163.3120  261.9850  381.9630 O.2   392  SER392     -0.2863
    149  CB       159.9870  263.0700  382.3310 C.3   392  SER392      0.2116
    150  OG       160.1950  263.5850  381.0280 O.3   392  SER392     -0.2180
@<TRIPOS>BOND
     1   139   140    1
     2   139   138    1
     3   150   149    1
     4   133   134    1
     5   138   137    1
     6   137   134    1
     7   148   147    2
     8   134   135    1
     9   147   146    1
    10   149   146    1
    11    10     9    2
    12   146   145    1
    13   130   129    2
    14   145   143   am
    15   135   141   am
    16   135   136    2
    17     9     8    1
    18   141   142    1
    19   129   128    1
    20   143   142    1
    21   143   144    2
    22   126   125    2
    23   132   131    1
    24   128   131    1
    25   128   127    1
    26    11     8    1
    27    11    12    1
    28     8     7    1
    29    65    64    2
    30    14    13    1
    31   125   127   am
    32   125   124    1
    33    64    63    1
    34    12    13    1
    35     4     3    2
    36   124   123    1
    37    74    72    1
    38    63    66    1
    39    63    62    1
    40    66    67    1
    41    61    60    2
    42    75    73    1
    43    73    72    1
    44     3     2    1
    45   123   117   am
    46    68    69    1
    47   118   117    2
    48    62    60   am
    49    72    69    1
    50    60    59    1
    51     1     2    1
    52   117   116    1
    53     5     2    1
    54     5     6    1
    55    69    70    1
    56   119   116    1
    57   119   120    1
    58   102   101    2
    59    59    58    1
    60   121   122    1
    61   121   120    1
    62   116   115    1
    63    22    20   ar
    64   101   100    1
    65    70    76   am
    66    70    71    2
    67    76    77    1
    68    58    54   am
    69   115   109   am
    70    20    21   ar
    71    20    19    1
    72   105   103    1
    73   100    99    1
    74   100   103    1
    75    81    80    1
    76    19    16    1
    77    99    97   am
    78    54    55    2
    79    54    53    1
    80   109   110    2
    81   109   108    1
    82   103   104    1
    83    77    80    1
    84    77    78    1
    85   112   113    1
    86   112   111    1
    87    47    45    1
    88    97    98    2
    89    97    96    1
    90    95    96    1
    91    95    93   am
    92    80    82    1
    93   113   114    1
    94   108   111    1
    95   108   107    1
    96    78    79    2
    97    92    93    1
    98    92    91    1
    99    53    52    1
   100    53    56    1
   101    89    88   ar
   102    16    17    1
   103    16    15    1
   104    18    17    2
   105    93    94    2
   106    45    46    1
   107    45    44    2
   108   104   106    1
   109    52    50   am
   110    91    85   am
   111    50    51    2
   112    50    49    1
   113    56    57    1
   114    49    48    1
   115    88    90   ar
   116    88    87    1
   117    44    43    1
   118    27    28    1
   119    27    24    1
   120    85    84    1
   121    85    86    2
   122    23    24    1
   123    84    87    1
   124    84    83    1
   125    24    25    1
   126    43    42    1
   127    35    34    2
   128    36    34   am
   129    34    33    1
   130    42    41    1
   131    25    26    2
   132    33    30    1
   133    41    38    1
   134    30    29    1
   135    30    31    1
   136    38    39    1
   137    38    37    1
   138    39    40    2
   139    31    32    2
