@<TRIPOS>MOLECULE
tmp/6i0mA03.pdb
 124 114 0 0 0
SMALL
GASTEIGER

@<TRIPOS>ATOM
      1  N        178.8610  290.5950  383.3230 N.3   100  GLU100     -0.1231
      2  CA       179.2110  291.8860  383.8950 C.3   100  GLU100      0.1699
      3  C        180.4680  291.7380  384.7400 C.2   100  GLU100      0.2592
      4  O        180.7540  290.6610  385.2700 O.2   100  GLU100     -0.2718
      5  CB       178.0760  292.4440  384.7570 C.3   100  GLU100      0.0402
      6  CG       178.3640  293.8170  385.3380 C.3   100  GLU100      0.1161
      7  CD       177.1410  294.4470  385.9760 C.2   100  GLU100      0.3649
      8  OE1      176.0860  293.7810  386.0210 O.co2 100  GLU100     -0.2457
      9  OE2      177.2320  295.6090  386.4270 O.co2 100  GLU100     -0.2457
     10  N        181.2290  292.8220  384.8540 N.am  101  GLN101     -0.1966
     11  CA       182.5100  292.7310  385.5350 C.3   101  GLN101      0.1733
     12  C        182.9210  294.1040  386.0430 C.2   101  GLN101      0.2616
     13  O        182.4980  295.1370  385.5190 O.2   101  GLN101     -0.2715
     14  CB       183.5770  292.1450  384.6070 C.3   101  GLN101      0.0408
     15  CG       184.6440  291.3520  385.3450 C.3   101  GLN101      0.0908
     16  CD       184.8690  289.9780  384.7490 C.2   101  GLN101      0.2608
     17  OE1      183.9680  289.3980  384.1470 O.2   101  GLN101     -0.2717
     18  NE2      186.0560  289.4280  384.9670 N.am  101  GLN101     -0.0878
     19  N        183.7490  294.0940  387.0820 N.am  102  GLY102     -0.1955
     20  CA       184.3820  295.2990  387.5740 C.3   102  GLY102      0.1869
     21  C        185.7920  295.3700  387.0330 C.2   102  GLY102      0.2309
     22  O        185.9920  295.6530  385.8480 O.2   102  GLY102     -0.2863
     23  N        187.9880  300.4300  392.8120 N.3   180  LEU180     -0.1231
     24  CA       187.1450  300.3680  391.6240 C.3   180  LEU180      0.1693
     25  C        186.4750  301.7140  391.3840 C.2   180  LEU180      0.2591
     26  O        186.4080  302.1930  390.2470 O.2   180  LEU180     -0.2718
     27  CB       186.0910  299.2700  391.7730 C.3   180  LEU180      0.0284
     28  CG       185.1810  299.0680  390.5580 C.3   180  LEU180      0.0019
     29  CD1      185.9990  298.9040  389.2750 C.3   180  LEU180      0.0001
     30  CD2      184.2450  297.8910  390.7560 C.3   180  LEU180      0.0001
     31  N        185.9530  302.3260  392.4480 N.am  181  LYS181     -0.1980
     32  CA       185.3050  303.6290  392.3350 C.3   181  LYS181      0.1596
     33  C        186.2310  304.6480  391.6800 C.2   181  LYS181      0.2287
     34  O        185.8360  305.3590  390.7500 O.2   181  LYS181     -0.2864
     35  CB       184.8810  304.0970  393.7290 C.3   181  LYS181      0.0298
     36  CG       184.1520  305.4230  393.7780 C.3   181  LYS181      0.0038
     37  CD       183.9760  305.8760  395.2210 C.3   181  LYS181      0.0206
     38  CE       183.3080  307.2390  395.3100 C.3   181  LYS181      0.1093
     39  NZ       181.9270  307.2110  394.7540 N.3   181  LYS181     -0.1314
     40  N        186.7930  304.0840  387.9720 N.3   184  ASN184     -0.1240
     41  CA       185.6460  304.4560  387.1510 C.3   184  ASN184      0.1653
     42  C        185.6110  305.9590  386.9060 C.2   184  ASN184      0.2266
     43  O        185.3110  306.4030  385.7920 O.2   184  ASN184     -0.2867
     44  CB       184.3510  303.9930  387.8170 C.3   184  ASN184      0.1155
     45  CG       184.2410  302.4870  387.8920 C.2   184  ASN184      0.2627
     46  OD1      184.8740  301.7640  387.1210 O.2   184  ASN184     -0.2716
     47  ND2      183.4340  302.0020  388.8240 N.am  184  ASN184     -0.0877
     48  N        187.8910  306.5810  384.1860 N.3   187  LEU187     -0.1231
     49  CA       187.3300  306.1320  382.9150 C.3   187  LEU187      0.1693
     50  C        186.2870  307.1110  382.3930 C.2   187  LEU187      0.2591
     51  O        186.2690  307.4310  381.1980 O.2   187  LEU187     -0.2718
     52  CB       186.7150  304.7420  383.0710 C.3   187  LEU187      0.0284
     53  CG       186.8180  303.8270  381.8480 C.3   187  LEU187      0.0019
     54  CD1      185.9200  302.6210  382.0320 C.3   187  LEU187      0.0001
     55  CD2      186.4780  304.5560  380.5580 C.3   187  LEU187      0.0001
     56  N        185.4100  307.6020  383.2730 N.am  188  GLN188     -0.1979
     57  CA       184.3660  308.5230  382.8390 C.3   188  GLN188      0.1601
     58  C        184.9670  309.8060  382.2800 C.2   188  GLN188      0.2287
     59  O        184.4500  310.3720  381.3100 O.2   188  GLN188     -0.2864
     60  CB       183.4340  308.8400  384.0090 C.3   188  GLN188      0.0394
     61  CG       182.7040  307.6340  384.5870 C.3   188  GLN188      0.0908
     62  CD       182.1030  307.9240  385.9540 C.2   188  GLN188      0.2608
     63  OE1      182.0040  309.0810  386.3680 O.2   188  GLN188     -0.2717
     64  NE2      181.7100  306.8720  386.6670 N.am  188  GLN188     -0.0878
     65  N        189.0820  297.9010  382.9960 N.3   208  ILE208     -0.1231
     66  CA       187.6720  298.1300  383.2810 C.3   208  ILE208      0.1692
     67  C        187.0070  298.6260  382.0080 C.2   208  ILE208      0.2591
     68  O        187.6210  299.3250  381.1940 O.2   208  ILE208     -0.2718
     69  CB       187.4500  299.1260  384.4440 C.3   208  ILE208      0.0266
     70  CG1      188.1560  300.4540  384.1730 C.3   208  ILE208      0.0019
     71  CG2      187.9470  298.5270  385.7510 C.3   208  ILE208      0.0020
     72  CD1      187.7390  301.5560  385.1360 C.3   208  ILE208      0.0001
     73  N        185.7400  298.2570  381.8390 N.am  209  ALA209     -0.1980
     74  CA       184.9940  298.5240  380.6180 C.3   209  ALA209      0.1597
     75  C        183.8960  299.5420  380.8850 C.2   209  ALA209      0.2287
     76  O        183.2640  299.5300  381.9450 O.2   209  ALA209     -0.2864
     77  CB       184.3860  297.2350  380.0630 C.3   209  ALA209      0.0319
     78  N        180.1160  298.2260  381.3740 N.3   212  ASP212     -0.1225
     79  CA       179.7870  297.7430  382.7090 C.3   212  ASP212      0.1805
     80  C        179.1520  298.8400  383.5500 C.2   212  ASP212      0.2597
     81  O        178.2080  298.5850  384.3060 O.2   212  ASP212     -0.2718
     82  CB       181.0370  297.2030  383.3910 C.3   212  ASP212      0.1424
     83  CG       181.4570  295.8530  382.8530 C.2   212  ASP212      0.3668
     84  OD1      180.5730  295.0720  382.4480 O.co2 212  ASP212     -0.2456
     85  OD2      182.6740  295.5750  382.8240 O.co2 212  ASP212     -0.2456
     86  N        179.6530  300.0730  383.4320 N.am  213  LEU213     -0.1979
     87  CA       179.0060  301.1880  384.1140 C.3   213  LEU213      0.1596
     88  C        177.5900  301.3840  383.5940 C.2   213  LEU213      0.2287
     89  O        176.6790  301.7220  384.3600 O.2   213  LEU213     -0.2864
     90  CB       179.8220  302.4710  383.9390 C.3   213  LEU213      0.0297
     91  CG       181.2610  302.4700  384.4600 C.3   213  LEU213      0.0022
     92  CD1      181.8980  303.8340  384.2450 C.3   213  LEU213      0.0001
     93  CD2      181.3010  302.1010  385.9340 C.3   213  LEU213      0.0001
     94  N        175.4250  298.6850  385.3550 N.3   216  ASN216     -0.1240
     95  CA       175.0860  299.0500  386.7260 C.3   216  ASN216      0.1653
     96  C        173.9760  300.0920  386.7500 C.2   216  ASN216      0.2266
     97  O        173.0920  300.0550  387.6140 O.2   216  ASN216     -0.2867
     98  CB       176.3280  299.5590  387.4570 C.3   216  ASN216      0.1155
     99  CG       176.0960  299.7430  388.9390 C.2   216  ASN216      0.2627
    100  OD1      175.9910  298.7730  389.6830 O.2   216  ASN216     -0.2716
    101  ND2      176.0410  300.9930  389.3810 N.am  216  ASN216     -0.0877
    102  N        174.7440  290.8240  392.5160 N.3   224  LYS224     -0.1245
    103  CA       176.1620  290.7390  392.2090 C.3   224  LYS224      0.1561
    104  C        176.9720  290.4550  393.4660 C.2   224  LYS224      0.2260
    105  O        176.5540  290.7590  394.5850 O.2   224  LYS224     -0.2867
    106  CB       176.6440  292.0340  391.5510 C.3   224  LYS224      0.0271
    107  CG       175.7790  292.4240  390.3660 C.3   224  LYS224      0.0035
    108  CD       176.3550  293.5820  389.5800 C.3   224  LYS224      0.0206
    109  CE       176.0980  294.9000  390.2700 C.3   224  LYS224      0.1093
    110  NZ       176.2220  296.0360  389.3190 N.3   224  LYS224     -0.1314
    111  N        180.9910  290.7030  395.3940 N.3   226  ALA226     -0.1245
    112  CA       181.8290  291.8580  395.6990 C.3   226  ALA226      0.1562
    113  C        182.6200  292.3150  394.4840 C.2   226  ALA226      0.2260
    114  O        182.9510  293.5000  394.3760 O.2   226  ALA226     -0.2867
    115  CB       182.7750  291.5390  396.8540 C.3   226  ALA226      0.0290
    116  N        181.5080  292.6470  391.5990 N.3   228  LYS228     -0.1245
    117  CA       180.5350  293.1990  390.6590 C.3   228  LYS228      0.1561
    118  C        180.1490  292.2100  389.5610 C.2   228  LYS228      0.2260
    119  O        179.5920  292.6050  388.5320 O.2   228  LYS228     -0.2867
    120  CB       181.0440  294.5120  390.0550 C.3   228  LYS228      0.0271
    121  CG       180.7630  295.7160  390.9450 C.3   228  LYS228      0.0035
    122  CD       181.3680  295.5820  392.3270 C.3   228  LYS228      0.0206
    123  CE       180.9860  296.7570  393.2050 C.3   228  LYS228      0.1093
    124  NZ       179.6060  296.6070  393.7420 N.3   228  LYS228     -0.1314
@<TRIPOS>BOND
     1    77    74    1
     2    55    53    1
     3    74    75    1
     4    74    73    1
     5    75    76    2
     6    68    67    2
     7    51    50    2
     8    59    58    2
     9    78    79    1
    10    73    67   am
    11    53    54    1
    12    53    52    1
    13    67    66    1
    14    58    57    1
    15    50    49    1
    16    50    56   am
    17    84    83   ar
    18    79    82    1
    19    79    80    1
    20    85    83   ar
    21    57    56    1
    22    57    60    1
    23    83    82    1
    24    49    52    1
    25    49    48    1
    26    65    66    1
    27    66    69    1
    28     1     2    1
    29    86    80   am
    30    86    87    1
    31    80    81    2
    32    88    87    1
    33    88    89    2
    34     2     3    1
    35     2     5    1
    36    90    87    1
    37    90    91    1
    38    60    61    1
    39    17    16    2
    40    70    69    1
    41    70    72    1
    42    92    91    1
    43    69    71    1
    44    91    93    1
    45    61    62    1
    46    14    15    1
    47    14    11    1
    48     3    10   am
    49     3     4    2
    50    16    18   am
    51    16    15    1
    52     5     6    1
    53    10    11    1
    54     6     7    1
    55    94    95    1
    56    13    12    2
    57    11    12    1
    58    43    42    2
    59    22    21    2
    60    62    63    2
    61    62    64   am
    62     7     8   ar
    63     7     9   ar
    64    12    19   am
    65    95    96    1
    66    95    98    1
    67    96    97    2
    68    42    41    1
    69    21    20    1
    70    19    20    1
    71    46    45    2
    72    41    44    1
    73    41    40    1
    74    98    99    1
    75    44    45    1
    76    45    47   am
    77   119   118    2
    78    99   101   am
    79    99   100    2
    80    29    28    1
    81   110   109    1
    82   118   117    1
    83   108   109    1
    84   108   107    1
    85   120   117    1
    86   120   121    1
    87    26    25    2
    88   107   106    1
    89    28    30    1
    90    28    27    1
    91   117   116    1
    92    34    33    2
    93   121   122    1
    94    25    24    1
    95    25    31   am
    96   106   103    1
    97    24    27    1
    98    24    23    1
    99    33    32    1
   100   103   102    1
   101   103   104    1
   102   122   123    1
   103    32    31    1
   104    32    35    1
   105   123   124    1
   106   104   105    2
   107    35    36    1
   108    36    37    1
   109   114   113    2
   110   113   112    1
   111    39    38    1
   112    37    38    1
   113   111   112    1
   114   112   115    1
