@<TRIPOS>MOLECULE
tmp/6i0mA01.pdb
 122 115 0 0 0
SMALL
GASTEIGER

@<TRIPOS>ATOM
      1  N        187.3300  294.8350  372.1580 N.3   130  GLY130     -0.1225
      2  CA       188.2640  295.6540  372.9030 C.3   130  GLY130      0.1811
      3  C        189.3460  294.8080  373.5330 C.2   130  GLY130      0.2280
      4  O        189.1160  294.1630  374.5590 O.2   130  GLY130     -0.2866
      5  N        196.3980  299.2250  372.6480 N.3   146  ILE146     -0.1245
      6  CA       195.0100  298.8310  372.8680 C.3   146  ILE146      0.1561
      7  C        194.2710  298.8790  371.5370 C.2   146  ILE146      0.2260
      8  O        194.5540  299.7220  370.6800 O.2   146  ILE146     -0.2867
      9  CB       194.3160  299.7380  373.9180 C.3   146  ILE146      0.0252
     10  CG1      193.3000  298.9400  374.7530 C.3   146  ILE146      0.0019
     11  CG2      193.6830  300.9770  373.2560 C.3   146  ILE146      0.0019
     12  CD1      191.8560  299.3770  374.6060 C.3   146  ILE146      0.0001
     13  N        190.3430  298.8490  369.7130 N.3   148  SER148     -0.1202
     14  CA       188.9160  299.0830  369.8610 C.3   148  SER148      0.2020
     15  C        188.1850  298.5550  368.6350 C.2   148  SER148      0.2619
     16  O        188.7920  298.2130  367.6170 O.2   148  SER148     -0.2717
     17  CB       188.6280  300.5760  370.0460 C.3   148  SER148      0.2103
     18  OG       187.2470  300.8560  369.9260 O.3   148  SER148     -0.2182
     19  N        186.8560  298.5010  368.7400 N.am  149  SER149     -0.1937
     20  CA       186.0450  298.0730  367.6060 C.3   149  SER149      0.2055
     21  C        186.1850  299.0300  366.4320 C.2   149  SER149      0.2643
     22  O        186.0970  298.6090  365.2730 O.2   149  SER149     -0.2714
     23  CB       184.5770  297.9670  368.0190 C.3   149  SER149      0.2130
     24  OG       184.0800  299.2190  368.4640 O.3   149  SER149     -0.2179
     25  N        186.4040  300.3160  366.7090 N.am  150  ARG150     -0.1963
     26  CA       186.5410  301.3000  365.6430 C.3   150  ARG150      0.1729
     27  C        187.8700  301.1640  364.9090 C.2   150  ARG150      0.2616
     28  O        187.9850  301.6280  363.7690 O.2   150  ARG150     -0.2715
     29  CB       186.3810  302.7080  366.2170 C.3   150  ARG150      0.0348
     30  CG       185.1370  302.8580  367.0850 C.3   150  ARG150      0.0492
     31  CD       184.8180  304.3080  367.3990 C.3   150  ARG150      0.2205
     32  NE       183.5100  304.4440  368.0360 N.pl3 150  ARG150     -0.0865
     33  CZ       183.0100  305.5900  368.4880 C.cat 150  ARG150      0.5346
     34  NH1      183.7050  306.7140  368.3720 N.pl3 150  ARG150      0.1354
     35  NH2      181.8120  305.6120  369.0570 N.pl3 150  ARG150      0.1354
     36  N        188.8760  300.5510  365.5390 N.am  151  ASP151     -0.1971
     37  CA       190.1480  300.3180  364.8620 C.3   151  ASP151      0.1709
     38  C        190.0050  299.2640  363.7710 C.2   151  ASP151      0.2293
     39  O        190.6100  299.3820  362.7000 O.2   151  ASP151     -0.2864
     40  CB       191.2080  299.8860  365.8770 C.3   151  ASP151      0.1436
     41  CG       191.4790  300.9450  366.9250 C.2   151  ASP151      0.3671
     42  OD1      191.4420  302.1470  366.5800 O.co2 151  ASP151     -0.2456
     43  OD2      191.7280  300.5750  368.0910 O.co2 151  ASP151     -0.2456
     44  N        196.5070  301.5370  369.1230 N.3   166  THR166     -0.1218
     45  CA       196.9820  302.8300  369.5910 C.3   166  THR166      0.1862
     46  C        198.0500  302.5660  370.6450 C.2   166  THR166      0.2287
     47  O        197.7720  301.9530  371.6830 O.2   166  THR166     -0.2866
     48  CB       195.8500  303.6810  370.1640 C.3   166  THR166      0.1770
     49  OG1      195.7080  303.4090  371.5620 O.3   166  THR166     -0.2211
     50  CG2      194.5380  303.3940  369.4530 C.3   166  THR166      0.0375
     51  N        200.0240  307.3410  373.5630 N.3   170  ASP170     -0.1225
     52  CA       198.7440  308.0070  373.3560 C.3   170  ASP170      0.1805
     53  C        197.6430  307.6790  374.3790 C.2   170  ASP170      0.2598
     54  O        196.9320  308.5720  374.8300 O.2   170  ASP170     -0.2718
     55  CB       198.2300  307.6940  371.9520 C.3   170  ASP170      0.1424
     56  CG       199.1280  308.2460  370.8720 C.2   170  ASP170      0.3668
     57  OD1      200.1800  308.8190  371.2150 O.co2 170  ASP170     -0.2456
     58  OD2      198.7840  308.1080  369.6830 O.co2 170  ASP170     -0.2456
     59  N        197.5000  306.4100  374.7480 N.am  171  LEU171     -0.1966
     60  CA       196.4520  305.9970  375.6760 C.3   171  LEU171      0.1728
     61  C        196.6930  306.3720  377.1390 C.2   171  LEU171      0.2616
     62  O        197.8210  306.5810  377.5630 O.2   171  LEU171     -0.2715
     63  CB       196.2030  304.4980  375.5480 C.3   171  LEU171      0.0311
     64  CG       197.3500  303.6040  375.9830 C.3   171  LEU171      0.0022
     65  CD1      197.4750  303.6490  377.4920 C.3   171  LEU171      0.0001
     66  CD2      197.1110  302.1880  375.4990 C.3   171  LEU171      0.0001
     67  N        195.6100  306.4340  377.9040 N.am  172  VAL172     -0.1977
     68  CA       195.6600  306.7960  379.3120 C.3   172  VAL172      0.1596
     69  C        195.5480  305.5350  380.1740 C.2   172  VAL172      0.2287
     70  O        194.7280  304.6750  379.8890 O.2   172  VAL172     -0.2864
     71  CB       194.5160  307.7670  379.6620 C.3   172  VAL172      0.0276
     72  CG1      193.1920  307.2320  379.1590 C.3   172  VAL172      0.0022
     73  CG2      194.4500  308.0230  381.1540 C.3   172  VAL172      0.0022
     74  N        186.5340  309.5770  378.6740 N.3   191  LYS191     -0.1231
     75  CA       185.5530  309.4320  377.6040 C.3   191  LYS191      0.1693
     76  C        185.8970  308.2770  376.6710 C.2   191  LYS191      0.2592
     77  O        185.3770  308.1970  375.5540 O.2   191  LYS191     -0.2718
     78  CB       185.4220  310.7400  376.8170 C.3   191  LYS191      0.0285
     79  CG       185.0150  311.9210  377.6920 C.3   191  LYS191      0.0035
     80  CD       184.8880  313.2040  376.8950 C.3   191  LYS191      0.0206
     81  CE       184.6150  314.4030  377.7890 C.3   191  LYS191      0.1093
     82  NZ       184.9140  315.6920  377.0980 N.3   191  LYS191     -0.1314
     83  N        186.7850  307.3900  377.1080 N.am  192  LYS192     -0.1966
     84  CA       187.1670  306.2140  376.3470 C.3   192  LYS192      0.1728
     85  C        186.3400  305.0040  376.7630 C.2   192  LYS192      0.2617
     86  O        185.5900  305.0250  377.7420 O.2   192  LYS192     -0.2715
     87  CB       188.6550  305.9200  376.5330 C.3   192  LYS192      0.0311
     88  CG       189.5660  307.0110  376.0060 C.3   192  LYS192      0.0038
     89  CD       189.4940  307.0900  374.4880 C.3   192  LYS192      0.0206
     90  CE       190.3890  308.1870  373.9410 C.3   192  LYS192      0.1093
     91  NZ       190.5560  308.0640  372.4660 N.3   192  LYS192     -0.1314
     92  N        186.4930  303.9270  375.9920 N.am  193  GLY193     -0.1940
     93  CA       185.7260  302.7240  376.2470 C.3   193  GLY193      0.2014
     94  C        186.3150  301.8580  377.3350 C.2   193  GLY193      0.2638
     95  O        185.5860  301.1100  377.9920 O.2   193  GLY193     -0.2714
     96  N        187.6300  301.9400  377.5460 N.am  194  LYS194     -0.1977
     97  CA       188.3020  301.1020  378.5280 C.3   194  LYS194      0.1596
     98  C        189.4330  301.8620  379.2020 C.2   194  LYS194      0.2287
     99  O        189.9280  302.8720  378.6950 O.2   194  LYS194     -0.2864
    100  CB       188.8550  299.8270  377.8850 C.3   194  LYS194      0.0298
    101  CG       187.8270  299.1150  377.0500 C.3   194  LYS194      0.0038
    102  CD       187.9570  297.6210  377.1500 C.3   194  LYS194      0.0206
    103  CE       186.9830  296.9600  376.2040 C.3   194  LYS194      0.1093
    104  NZ       185.5710  297.3830  376.4440 N.3   194  LYS194     -0.1314
    105  N        193.0850  300.7020  381.0090 N.3   196  PRO196     -0.2116
    106  CA       194.0310  299.6910  381.4880 C.3   196  PRO196      0.1372
    107  C        194.5680  300.0530  382.8630 C.2   196  PRO196      0.2244
    108  O        194.7330  301.2270  383.2070 O.2   196  PRO196     -0.2868
    109  CB       195.1450  299.7130  380.4330 C.3   196  PRO196      0.0268
    110  CG       194.5570  300.4190  379.2480 C.3   196  PRO196      0.0207
    111  CD       193.5920  301.3980  379.8170 C.3   196  PRO196      0.0892
    112  N        183.6640  300.4180  379.9070 N.3   210  ARG210     -0.1245
    113  CA       182.6800  301.4790  380.0870 C.3   210  ARG210      0.1563
    114  C        181.2600  300.9220  380.1250 C.2   210  ARG210      0.2260
    115  O        180.4110  301.4240  380.8720 O.2   210  ARG210     -0.2867
    116  CB       182.8240  302.5110  378.9690 C.3   210  ARG210      0.0307
    117  CG       181.9760  303.7560  379.1590 C.3   210  ARG210      0.0489
    118  CD       182.1260  304.7140  377.9920 C.3   210  ARG210      0.2205
    119  NE       181.4610  305.9810  378.2720 N.pl3 210  ARG210     -0.0865
    120  CZ       182.0520  307.0270  378.8450 C.cat 210  ARG210      0.5346
    121  NH1      183.3350  306.9760  379.1930 N.pl3 210  ARG210      0.1354
    122  NH2      181.3590  308.1370  379.0680 N.pl3 210  ARG210      0.1354
@<TRIPOS>BOND
     1    39    38    2
     2    28    27    2
     3    38    37    1
     4    37    36    1
     5    37    40    1
     6    27    36   am
     7    27    26    1
     8    22    21    2
     9    26    29    1
    10    26    25    1
    11    40    41    1
    12    29    30    1
    13    21    25   am
    14    21    20    1
    15    42    41   ar
    16    41    43   ar
    17    30    31    1
    18    31    32    1
    19    20    23    1
    20    20    19    1
    21    16    15    2
    22    23    24    1
    23    32    33    2
    24    34    33    1
    25    33    35    1
    26    15    19   am
    27    15    14    1
    28    44    45    1
    29    50    48    1
    30    45    48    1
    31    45    46    1
    32    58    56   ar
    33    13    14    1
    34    14    17    1
    35    18    17    1
    36    48    49    1
    37    46    47    2
    38     8     7    2
    39    56    57   ar
    40    56    55    1
    41     7     6    1
    42    55    52    1
    43     1     2    1
    44    91    90    1
    45     5     6    1
    46     6     9    1
    47     2     3    1
    48    11     9    1
    49    52    51    1
    50    52    53    1
    51     3     4    2
    52     9    10    1
    53    90    89    1
    54    53    59   am
    55    53    54    2
    56    89    88    1
    57    12    10    1
    58    59    60    1
    59    66    64    1
    60    63    60    1
    61    63    64    1
    62    77    76    2
    63    60    61    1
    64    64    65    1
    65    92    93    1
    66    92    85   am
    67    88    87    1
    68   103   104    1
    69   103   102    1
    70    93    94    1
    71    84    87    1
    72    84    85    1
    73    84    83    1
    74    76    83   am
    75    76    75    1
    76    85    86    2
    77    78    75    1
    78    78    79    1
    79    80    79    1
    80    80    81    1
    81   101   102    1
    82   101   100    1
    83    82    81    1
    84    61    62    2
    85    61    67   am
    86    94    96   am
    87    94    95    2
    88    96    97    1
    89    75    74    1
    90   100    97    1
    91    67    68    1
    92   118   119    1
    93   118   117    1
    94   119   120    2
    95    97    98    1
    96    99    98    2
    97   120   122    1
    98   120   121    1
    99   116   117    1
   100   116   113    1
   101    72    71    1
   102   110   111    1
   103   110   109    1
   104    68    71    1
   105    68    69    1
   106    71    73    1
   107   111   105    1
   108    70    69    2
   109   112   113    1
   110   113   114    1
   111   114   115    2
   112   109   106    1
   113   105   106    1
   114   106   107    1
   115   107   108    2
