@<TRIPOS>MOLECULE
tmp/6i0mA02.pdb
 137 129 0 0 0
SMALL
GASTEIGER

@<TRIPOS>ATOM
      1  N        180.9940  286.0840  383.8270 N.3    98  LYS98      -0.1231
      2  CA       181.7700  286.9880  382.9890 C.3    98  LYS98       0.1693
      3  C        180.9120  288.0110  382.2540 C.2    98  LYS98       0.2592
      4  O        181.4650  288.8990  381.5980 O.2    98  LYS98      -0.2718
      5  CB       182.5880  286.1890  381.9690 C.3    98  LYS98       0.0285
      6  CG       183.9190  285.6530  382.4560 C.3    98  LYS98       0.0035
      7  CD       183.8700  285.2650  383.9020 C.3    98  LYS98       0.0206
      8  CE       185.1430  284.6110  384.3410 C.3    98  LYS98       0.1093
      9  NZ       184.9730  284.2750  385.7700 N.3    98  LYS98      -0.1314
     10  N        179.5850  287.9190  382.3410 N.am   99  TYR99      -0.1976
     11  CA       178.7390  288.8620  381.6170 C.3    99  TYR99       0.1639
     12  C        179.0390  290.2950  382.0390 C.2    99  TYR99       0.2290
     13  O        179.4180  291.1340  381.2150 O.2    99  TYR99      -0.2864
     14  CB       177.2660  288.5300  381.8420 C.3    99  TYR99       0.0560
     15  CG       176.3290  289.4180  381.0600 C.ar   99  TYR99      -0.0198
     16  CD1      175.9660  289.0920  379.7580 C.ar   99  TYR99      -0.0009
     17  CD2      175.8110  290.5800  381.6130 C.ar   99  TYR99      -0.0009
     18  CE1      175.1110  289.8930  379.0340 C.ar   99  TYR99       0.0417
     19  CE2      174.9510  291.3900  380.8920 C.ar   99  TYR99       0.0417
     20  CZ       174.6070  291.0400  379.6030 C.ar   99  TYR99       0.1957
     21  OH       173.7550  291.8360  378.8790 O.3    99  TYR99      -0.2866
     22  N        181.2290  292.8220  384.8540 N.3   101  GLN101     -0.1245
     23  CA       182.5100  292.7310  385.5350 C.3   101  GLN101      0.1566
     24  C        182.9210  294.1040  386.0430 C.2   101  GLN101      0.2260
     25  O        182.4980  295.1370  385.5190 O.2   101  GLN101     -0.2867
     26  CB       183.5770  292.1450  384.6070 C.3   101  GLN101      0.0367
     27  CG       184.6440  291.3520  385.3450 C.3   101  GLN101      0.0905
     28  CD       184.8690  289.9780  384.7490 C.2   101  GLN101      0.2608
     29  OE1      183.9680  289.3980  384.1470 O.2   101  GLN101     -0.2717
     30  NE2      186.0560  289.4280  384.9670 N.am  101  GLN101     -0.0878
     31  N        188.4460  293.6410  385.3180 N.3   104  ILE104     -0.1245
     32  CA       188.5800  292.4420  384.4940 C.3   104  ILE104      0.1561
     33  C        190.0170  291.9650  384.6800 C.2   104  ILE104      0.2260
     34  O        190.9520  292.5180  384.0970 O.2   104  ILE104     -0.2867
     35  CB       188.2430  292.7110  383.0270 C.3   104  ILE104      0.0252
     36  CG1      186.8590  293.3680  382.9280 C.3   104  ILE104      0.0019
     37  CG2      188.2880  291.4110  382.2320 C.3   104  ILE104      0.0019
     38  CD1      186.4420  293.7670  381.5260 C.3   104  ILE104      0.0001
     39  N        191.2790  288.8810  383.9820 N.3   106  ASP106     -0.1225
     40  CA       191.7360  287.8590  383.0340 C.3   106  ASP106      0.1790
     41  C        191.1560  288.1520  381.6550 C.2   106  ASP106      0.2440
     42  O        190.4420  287.3310  381.0750 O.2   106  ASP106     -0.2733
     43  CB       191.3390  286.4630  383.5120 C.3   106  ASP106      0.1423
     44  CG       192.0850  285.3390  382.8320 C.2   106  ASP106      0.3668
     45  OD1      192.9800  285.5490  382.0290 O.co2 106  ASP106     -0.2456
     46  OD2      191.8660  284.1820  383.2010 O.co2 106  ASP106     -0.2456
     47  N        191.4550  289.3200  381.0950 N.am  107  PRO107     -0.2718
     48  CA       190.8920  289.6850  379.7930 C.3   107  PRO107      0.1535
     49  C        191.6030  288.9940  378.6350 C.2   107  PRO107      0.2598
     50  O        192.6520  288.3670  378.7850 O.2   107  PRO107     -0.2715
     51  CB       191.1110  291.1990  379.7420 C.3   107  PRO107      0.0310
     52  CG       192.3850  291.3850  380.4890 C.3   107  PRO107      0.0237
     53  CD       192.3300  290.3840  381.6210 C.3   107  PRO107      0.0939
     54  N        190.9910  289.1310  377.4600 N.am  108  VAL108     -0.1978
     55  CA       191.5870  288.6760  376.2080 C.3   108  VAL108      0.1596
     56  C        192.7520  289.5910  375.8520 C.2   108  VAL108      0.2287
     57  O        192.5820  290.8090  375.7270 O.2   108  VAL108     -0.2864
     58  CB       190.5390  288.6590  375.0870 C.3   108  VAL108      0.0276
     59  CG1      191.1700  288.2730  373.7500 C.3   108  VAL108      0.0022
     60  CG2      189.4020  287.7150  375.4440 C.3   108  VAL108      0.0022
     61  N        182.6460  287.6860  371.7660 N.3   127  GLY127     -0.1210
     62  CA       181.6290  288.6890  371.5070 C.3   127  GLY127      0.1956
     63  C        182.0860  290.1250  371.6510 C.2   127  GLY127      0.2612
     64  O        181.2650  291.0330  371.4720 O.2   127  GLY127     -0.2717
     65  N        183.3540  290.3690  371.9700 N.am  128  PHE128     -0.1962
     66  CA       183.8700  291.7190  372.1450 C.3   128  PHE128      0.1771
     67  C        185.1920  291.8900  371.4100 C.2   128  PHE128      0.2620
     68  O        185.9340  290.9270  371.1920 O.2   128  PHE128     -0.2715
     69  CB       184.0350  292.0550  373.6340 C.3   128  PHE128      0.0574
     70  CG       184.5750  290.9210  374.4540 C.ar  128  PHE128     -0.0200
     71  CD1      185.9100  290.5640  374.3850 C.ar  128  PHE128     -0.0042
     72  CD2      183.7380  290.2160  375.3090 C.ar  128  PHE128     -0.0042
     73  CE1      186.3990  289.5170  375.1450 C.ar  128  PHE128     -0.0003
     74  CE2      184.2200  289.1710  376.0710 C.ar  128  PHE128     -0.0003
     75  CZ       185.5520  288.8210  375.9900 C.ar  128  PHE128     -0.0000
     76  N        185.4730  293.1370  371.0240 N.am  129  CYS129     -0.1954
     77  CA       186.6470  293.4720  370.2310 C.3   129  CYS129      0.1843
     78  C        187.6610  294.3310  370.9710 C.2   129  CYS129      0.2626
     79  O        188.7620  294.5410  370.4480 O.2   129  CYS129     -0.2714
     80  CB       186.2250  294.2130  368.9550 C.3   129  CYS129      0.0997
     81  SG       184.9030  293.4080  368.0420 S.3   129  CYS129     -0.0797
     82  N        187.3300  294.8350  372.1580 N.am  130  GLY130     -0.1954
     83  CA       188.2640  295.6540  372.9030 C.3   130  GLY130      0.1869
     84  C        189.3460  294.8080  373.5330 C.2   130  GLY130      0.2309
     85  O        189.1160  294.1630  374.5590 O.2   130  GLY130     -0.2863
     86  N        186.8560  298.5010  368.7400 N.3   149  SER149     -0.1217
     87  CA       186.0450  298.0730  367.6060 C.3   149  SER149      0.1889
     88  C        186.1850  299.0300  366.4320 C.2   149  SER149      0.2288
     89  O        186.0970  298.6090  365.2730 O.2   149  SER149     -0.2866
     90  CB       184.5770  297.9670  368.0190 C.3   149  SER149      0.2089
     91  OG       184.0800  299.2190  368.4640 O.3   149  SER149     -0.2183
     92  N        187.6300  301.9400  377.5460 N.3   194  LYS194     -0.1245
     93  CA       188.3020  301.1020  378.5280 C.3   194  LYS194      0.1561
     94  C        189.4330  301.8620  379.2020 C.2   194  LYS194      0.2260
     95  O        189.9280  302.8720  378.6950 O.2   194  LYS194     -0.2867
     96  CB       188.8550  299.8270  377.8850 C.3   194  LYS194      0.0271
     97  CG       187.8270  299.1150  377.0500 C.3   194  LYS194      0.0035
     98  CD       187.9570  297.6210  377.1500 C.3   194  LYS194      0.0206
     99  CE       186.9830  296.9600  376.2040 C.3   194  LYS194      0.1093
    100  NZ       185.5710  297.3830  376.4440 N.3   194  LYS194     -0.1314
    101  N        191.7640  295.5330  383.4810 N.3   207  ILE207     -0.1245
    102  CA       191.1000  296.5940  382.7340 C.3   207  ILE207      0.1561
    103  C        189.6700  296.7300  383.2410 C.2   207  ILE207      0.2260
    104  O        189.1010  295.8050  383.8250 O.2   207  ILE207     -0.2867
    105  CB       191.1060  296.3360  381.2090 C.3   207  ILE207      0.0252
    106  CG1      190.2240  295.1320  380.8520 C.3   207  ILE207      0.0019
    107  CG2      192.5230  296.0780  380.7280 C.3   207  ILE207      0.0019
    108  CD1      190.0290  294.9360  379.3610 C.3   207  ILE207      0.0001
    109  N        185.7400  298.2570  381.8390 N.3   209  ALA209     -0.1245
    110  CA       184.9940  298.5240  380.6180 C.3   209  ALA209      0.1562
    111  C        183.8960  299.5420  380.8850 C.2   209  ALA209      0.2260
    112  O        183.2640  299.5300  381.9450 O.2   209  ALA209     -0.2867
    113  CB       184.3860  297.2350  380.0630 C.3   209  ALA209      0.0290
    114  N        180.9800  299.8820  379.3340 N.3   211  THR211     -0.1203
    115  CA       179.6180  299.3600  379.2690 C.3   211  THR211      0.1994
    116  C        179.1790  298.7920  380.6100 C.2   211  THR211      0.2617
    117  O        177.9910  298.8450  380.9490 O.2   211  THR211     -0.2717
    118  CB       179.4940  298.2810  378.1920 C.3   211  THR211      0.1784
    119  OG1      180.2390  297.1220  378.5850 O.3   211  THR211     -0.2211
    120  CG2      180.0090  298.7820  376.8560 C.3   211  THR211      0.0376
    121  N        180.1160  298.2260  381.3740 N.am  212  ASP212     -0.1973
    122  CA       179.7870  297.7430  382.7090 C.3   212  ASP212      0.1709
    123  C        179.1520  298.8400  383.5500 C.2   212  ASP212      0.2293
    124  O        178.2080  298.5850  384.3060 O.2   212  ASP212     -0.2864
    125  CB       181.0370  297.2030  383.3910 C.3   212  ASP212      0.1436
    126  CG       181.4570  295.8530  382.8530 C.2   212  ASP212      0.3671
    127  OD1      180.5730  295.0720  382.4480 O.co2 212  ASP212     -0.2456
    128  OD2      182.6740  295.5750  382.8240 O.co2 212  ASP212     -0.2456
    129  N        175.6970  298.9880  382.5530 N.3   215  LYS215     -0.1245
    130  CA       174.9000  297.8970  383.1050 C.3   215  LYS215      0.1561
    131  C        174.4920  298.1840  384.5420 C.2   215  LYS215      0.2260
    132  O        173.3360  297.9610  384.9220 O.2   215  LYS215     -0.2867
    133  CB       175.6870  296.5920  383.0330 C.3   215  LYS215      0.0271
    134  CG       175.7200  295.9790  381.6570 C.3   215  LYS215      0.0035
    135  CD       176.7760  294.8980  381.5590 C.3   215  LYS215      0.0206
    136  CE       176.8500  294.3360  380.1510 C.3   215  LYS215      0.1093
    137  NZ       177.9890  293.3920  379.9910 N.3   215  LYS215     -0.1314
@<TRIPOS>BOND
     1    89    88    2
     2    88    87    1
     3    87    90    1
     4    87    86    1
     5    90    91    1
     6    81    80    1
     7    80    77    1
     8    77    78    1
     9    77    76    1
    10    79    78    2
    11    78    82   am
    12    76    67   am
    13    68    67    2
    14    67    66    1
    15    64    63    2
    16    62    63    1
    17    62    61    1
    18    63    65   am
    19    65    66    1
    20    66    69    1
    21    82    83    1
    22    83    84    1
    23    84    85    2
    24    69    70    1
    25    59    58    1
    26    71    70   ar
    27    71    73   ar
    28    70    72   ar
    29    58    60    1
    30    58    55    1
    31    73    75   ar
    32    72    74   ar
    33    57    56    2
    34    56    55    1
    35    75    74   ar
    36    99   100    1
    37    99    98    1
    38    55    54    1
    39   120   118    1
    40    97    98    1
    41    97    96    1
    42    54    49   am
    43    92    93    1
    44    96    93    1
    45   118   119    1
    46   118   115    1
    47    93    94    1
    48    49    50    2
    49    49    48    1
    50    95    94    2
    51    21    20    1
    52    18    20   ar
    53    18    16   ar
    54   115   114    1
    55   115   116    1
    56   108   106    1
    57    20    19   ar
    58    51    48    1
    59    51    52    1
    60    16    15   ar
    61    48    47    1
    62   137   136    1
    63   113   110    1
    64   136   135    1
    65    52    53    1
    66   116   117    2
    67   116   121   am
    68   110   111    1
    69   110   109    1
    70   107   105    1
    71   106   105    1
    72   111   112    2
    73    19    17   ar
    74    15    17   ar
    75    15    14    1
    76    42    41    2
    77    47    53    1
    78    47    41   am
    79   105   102    1
    80    13    12    2
    81   121   122    1
    82    38    36    1
    83   135   134    1
    84     4     3    2
    85    11    14    1
    86    11    12    1
    87    11    10    1
    88    41    40    1
    89   134   133    1
    90     5     6    1
    91     5     2    1
    92    45    44   ar
    93    37    35    1
    94     3    10   am
    95     3     2    1
    96   127   126   ar
    97     6     7    1
    98   129   130    1
    99   122   125    1
   100   122   123    1
   101   102   103    1
   102   102   101    1
   103   128   126   ar
   104    44    46   ar
   105    44    43    1
   106   126   125    1
   107    36    35    1
   108     2     1    1
   109    35    32    1
   110   133   130    1
   111    40    43    1
   112    40    39    1
   113   130   131    1
   114   103   104    2
   115   123   124    2
   116     7     8    1
   117    34    33    2
   118    29    28    2
   119     8     9    1
   120    32    33    1
   121    32    31    1
   122   131   132    2
   123    26    27    1
   124    26    23    1
   125    28    30   am
   126    28    27    1
   127    22    23    1
   128    25    24    2
   129    23    24    1
