@<TRIPOS>MOLECULE
tmp/6i0oA02.pdb
 144 134 0 0 0
SMALL
GASTEIGER

@<TRIPOS>ATOM
      1  N        -41.9370  -36.5440  -22.4860 N.3    52  LYS52      -0.1245
      2  CA       -43.1480  -35.7400  -22.4270 C.3    52  LYS52       0.1561
      3  C        -44.3740  -36.4980  -22.9170 C.2    52  LYS52       0.2260
      4  O        -45.4960  -36.0170  -22.7270 O.2    52  LYS52      -0.2867
      5  CB       -42.9670  -34.4550  -23.2410 C.3    52  LYS52       0.0271
      6  CG       -41.8980  -33.5160  -22.6860 C.3    52  LYS52       0.0035
      7  CD       -41.7920  -32.2450  -23.5160 C.3    52  LYS52       0.0206
      8  CE       -40.6870  -31.3260  -23.0170 C.3    52  LYS52       0.1093
      9  NZ       -40.3140  -30.3000  -24.0330 N.3    52  LYS52      -0.1314
     10  N        -31.0390  -33.8950  -35.0510 N.3   101  GLU101     -0.1231
     11  CA       -31.0720  -32.5760  -34.4370 C.3   101  GLU101      0.1699
     12  C        -29.8440  -32.4050  -33.5530 C.2   101  GLU101      0.2592
     13  O        -29.3900  -33.3580  -32.9150 O.2   101  GLU101     -0.2718
     14  CB       -32.3460  -32.3780  -33.6130 C.3   101  GLU101      0.0402
     15  CG       -32.3550  -31.0900  -32.8010 C.3   101  GLU101      0.1161
     16  CD       -33.7340  -30.7290  -32.2830 C.2   101  GLU101      0.3649
     17  OE1      -34.6080  -31.6200  -32.2310 O.co2 101  GLU101     -0.2457
     18  OE2      -33.9430  -29.5510  -31.9250 O.co2 101  GLU101     -0.2457
     19  N        -29.3100  -31.1850  -33.5250 N.am  102  GLN102     -0.1966
     20  CA       -28.0640  -30.9100  -32.8300 C.3   102  GLN102      0.1733
     21  C        -28.0530  -29.4580  -32.3730 C.2   102  GLN102      0.2616
     22  O        -28.7210  -28.6040  -32.9610 O.2   102  GLN102     -0.2715
     23  CB       -26.8630  -31.2110  -33.7360 C.3   102  GLN102      0.0408
     24  CG       -25.6590  -31.7780  -33.0120 C.3   102  GLN102      0.0908
     25  CD       -24.9160  -32.7980  -33.8490 C.2   102  GLN102      0.2608
     26  OE1      -25.5250  -33.5980  -34.5590 O.2   102  GLN102     -0.2717
     27  NE2      -23.5920  -32.7760  -33.7700 N.am  102  GLN102     -0.0878
     28  N        -27.2940  -29.1940  -31.3140 N.am  103  GLY103     -0.1955
     29  CA       -27.0720  -27.8680  -30.7760 C.3   103  GLY103      0.1869
     30  C        -25.7080  -27.3650  -31.1950 C.2   103  GLY103      0.2309
     31  O        -25.5460  -26.8590  -32.3250 O.2   103  GLY103     -0.2863
     32  N        -25.1280  -21.7630  -25.3070 N.3   184  LEU184     -0.1231
     33  CA       -25.9210  -22.0570  -26.4740 C.3   184  LEU184      0.1693
     34  C        -26.9530  -20.9620  -26.7060 C.2   184  LEU184      0.2591
     35  O        -27.1050  -20.5310  -27.8240 O.2   184  LEU184     -0.2718
     36  CB       -26.6170  -23.4000  -26.2960 C.3   184  LEU184      0.0284
     37  CG       -27.2820  -23.9910  -27.5320 C.3   184  LEU184      0.0019
     38  CD1      -26.2660  -24.1900  -28.6360 C.3   184  LEU184      0.0001
     39  CD2      -27.9500  -25.3060  -27.1870 C.3   184  LEU184      0.0001
     40  N        -27.6250  -20.4610  -25.6760 N.am  185  LYS185     -0.1980
     41  CA       -28.5960  -19.4040  -25.8880 C.3   185  LYS185      0.1596
     42  C        -27.9560  -18.1630  -26.5080 C.2   185  LYS185      0.2287
     43  O        -28.4890  -17.6180  -27.4690 O.2   185  LYS185     -0.2864
     44  CB       -29.2090  -19.0430  -24.5400 C.3   185  LYS185      0.0298
     45  CG       -29.9880  -17.7450  -24.4940 C.3   185  LYS185      0.0038
     46  CD       -30.0590  -17.2380  -23.0660 C.3   185  LYS185      0.0206
     47  CE       -31.1140  -16.1610  -22.9130 C.3   185  LYS185      0.1093
     48  NZ       -32.4790  -16.7100  -23.1310 N.3   185  LYS185     -0.1314
     49  N        -27.2320  -18.8850  -30.1470 N.3   188  ASN188     -0.1240
     50  CA       -28.4460  -18.8750  -30.9270 C.3   188  ASN188      0.1653
     51  C        -28.9230  -17.4590  -31.1680 C.2   188  ASN188      0.2266
     52  O        -29.2940  -17.1450  -32.2760 O.2   188  ASN188     -0.2867
     53  CB       -29.5420  -19.6550  -30.2130 C.3   188  ASN188      0.1155
     54  CG       -29.2540  -21.1340  -30.1430 C.2   188  ASN188      0.2627
     55  OD1      -28.3000  -21.6180  -30.7320 O.2   188  ASN188     -0.2716
     56  ND2      -30.0820  -21.8570  -29.4150 N.am  188  ASN188     -0.0877
     57  N        -29.5010  -15.9090  -34.8540 N.3   192  GLN192     -0.1245
     58  CA       -30.7700  -15.3620  -35.2790 C.3   192  GLN192      0.1566
     59  C        -30.6430  -13.9220  -35.7510 C.2   192  GLN192      0.2260
     60  O        -31.2380  -13.5600  -36.7550 O.2   192  GLN192     -0.2867
     61  CB       -31.7720  -15.4380  -34.1340 C.3   192  GLN192      0.0367
     62  CG       -32.1430  -16.8540  -33.7390 C.3   192  GLN192      0.0905
     63  CD       -32.8540  -16.9210  -32.4080 C.2   192  GLN192      0.2608
     64  OE1      -32.9080  -17.9690  -31.7730 O.2   192  GLN192     -0.2717
     65  NE2      -33.4040  -15.8010  -31.9760 N.am  192  GLN192     -0.0878
     66  N        -23.1680  -23.9640  -35.2580 N.3   212  ILE212     -0.1231
     67  CA       -24.5890  -24.1370  -35.0010 C.3   212  ILE212      0.1692
     68  C        -25.3460  -23.7570  -36.2650 C.2   212  ILE212      0.2591
     69  O        -24.9110  -22.8970  -37.0370 O.2   212  ILE212     -0.2718
     70  CB       -25.0660  -23.3040  -33.7890 C.3   212  ILE212      0.0266
     71  CG1      -24.9360  -21.8040  -34.0740 C.3   212  ILE212      0.0019
     72  CG2      -24.2630  -23.6830  -32.5490 C.3   212  ILE212      0.0020
     73  CD1      -25.5370  -20.9230  -33.0020 C.3   212  ILE212      0.0001
     74  N        -26.4850  -24.4100  -36.4760 N.am  213  ALA213     -0.1980
     75  CA       -27.2590  -24.2570  -37.6980 C.3   213  ALA213      0.1597
     76  C        -28.6240  -23.6580  -37.3880 C.2   213  ALA213      0.2287
     77  O        -29.2100  -23.9150  -36.3320 O.2   213  ALA213     -0.2864
     78  CB       -27.4370  -25.5990  -38.4130 C.3   213  ALA213      0.0319
     79  N        -31.7230  -26.1160  -36.8900 N.3   216  ASP216     -0.1225
     80  CA       -31.9250  -26.6980  -35.5680 C.3   216  ASP216      0.1805
     81  C        -32.8910  -25.8610  -34.7390 C.2   216  ASP216      0.2597
     82  O        -33.7060  -26.4050  -33.9860 O.2   216  ASP216     -0.2718
     83  CB       -30.5850  -26.8400  -34.8480 C.3   216  ASP216      0.1424
     84  CG       -29.6800  -27.8730  -35.4910 C.2   216  ASP216      0.3668
     85  OD1      -30.2040  -28.8520  -36.0630 O.co2 216  ASP216     -0.2456
     86  OD2      -28.4430  -27.7080  -35.4190 O.co2 216  ASP216     -0.2456
     87  N        -32.8170  -24.5330  -34.8640 N.am  217  LEU217     -0.1979
     88  CA       -33.7900  -23.6780  -34.1910 C.3   217  LEU217      0.1596
     89  C        -35.1870  -23.8930  -34.7550 C.2   217  LEU217      0.2287
     90  O        -36.1770  -23.8420  -34.0160 O.2   217  LEU217     -0.2864
     91  CB       -33.3850  -22.2090  -34.3150 C.3   217  LEU217      0.0297
     92  CG       -32.0030  -21.8030  -33.7930 C.3   217  LEU217      0.0022
     93  CD1      -31.8970  -20.2870  -33.7440 C.3   217  LEU217      0.0001
     94  CD2      -31.7060  -22.4090  -32.4280 C.3   217  LEU217      0.0001
     95  N        -36.4950  -27.0400  -33.2750 N.3   220  ASN220     -0.1240
     96  CA       -36.8900  -26.7530  -31.9000 C.3   220  ASN220      0.1653
     97  C        -38.2730  -26.1180  -31.8520 C.2   220  ASN220      0.2266
     98  O        -39.1510  -26.5560  -31.1020 O.2   220  ASN220     -0.2867
     99  CB       -35.8750  -25.8170  -31.2520 C.3   220  ASN220      0.1155
    100  CG       -36.0500  -25.7220  -29.7570 C.2   220  ASN220      0.2627
    101  OD1      -35.5550  -26.5640  -29.0090 O.2   220  ASN220     -0.2716
    102  ND2      -36.8130  -24.7280  -29.3130 N.am  220  ASN220     -0.0877
    103  N        -41.0840  -28.6060  -33.1480 N.3   223  TYR223     -0.1228
    104  CA       -41.3290  -29.7950  -32.3320 C.3   223  TYR223      0.1721
    105  C        -41.1030  -29.4590  -30.8610 C.2   223  TYR223      0.2437
    106  O        -40.0200  -29.7160  -30.3130 O.2   223  TYR223     -0.2733
    107  CB       -40.4370  -30.9520  -32.7780 C.3   223  TYR223      0.0547
    108  CG       -40.6150  -31.3070  -34.2370 C.ar  223  TYR223     -0.0200
    109  CD1      -41.7610  -31.9560  -34.6750 C.ar  223  TYR223     -0.0009
    110  CD2      -39.6430  -30.9900  -35.1750 C.ar  223  TYR223     -0.0009
    111  CE1      -41.9340  -32.2810  -36.0060 C.ar  223  TYR223      0.0417
    112  CE2      -39.8070  -31.3120  -36.5090 C.ar  223  TYR223      0.0417
    113  CZ       -40.9530  -31.9570  -36.9180 C.ar  223  TYR223      0.1957
    114  OH       -41.1220  -32.2790  -38.2460 O.3   223  TYR223     -0.2866
    115  N        -42.1060  -28.8900  -30.1860 N.am  224  PRO224     -0.2729
    116  CA       -41.9030  -28.4840  -28.7850 C.3   224  PRO224      0.1401
    117  C        -41.6680  -29.6470  -27.8350 C.2   224  PRO224      0.2269
    118  O        -41.0390  -29.4510  -26.7880 O.2   224  PRO224     -0.2865
    119  CB       -43.2010  -27.7370  -28.4410 C.3   224  PRO224      0.0296
    120  CG       -43.8390  -27.4120  -29.7520 C.3   224  PRO224      0.0237
    121  CD       -43.4320  -28.4970  -30.6890 C.3   224  PRO224      0.0939
    122  N        -40.0090  -32.5370  -28.3710 N.3   226  ALA226     -0.1245
    123  CA       -38.9110  -33.4290  -28.7190 C.3   226  ALA226      0.1562
    124  C        -38.1240  -33.8390  -27.4780 C.2   226  ALA226      0.2260
    125  O        -37.8610  -33.0240  -26.5900 O.2   226  ALA226     -0.2867
    126  CB       -37.9860  -32.7530  -29.7330 C.3   226  ALA226      0.0290
    127  N        -34.8720  -34.6720  -25.8890 N.3   228  LYS228     -0.1245
    128  CA       -33.4500  -34.3620  -26.1530 C.3   228  LYS228      0.1561
    129  C        -32.6570  -34.4500  -24.8520 C.2   228  LYS228      0.2260
    130  O        -33.2680  -34.4140  -23.7790 O.2   228  LYS228     -0.2867
    131  CB       -33.3250  -32.9670  -26.7670 C.3   228  LYS228      0.0271
    132  CG       -34.2600  -32.6950  -27.9350 C.3   228  LYS228      0.0035
    133  CD       -34.2110  -31.2780  -28.4490 C.3   228  LYS228      0.0206
    134  CE       -35.0030  -30.3130  -27.5970 C.3   228  LYS228      0.1093
    135  NZ       -35.1610  -28.9990  -28.2620 N.3   228  LYS228     -0.1314
    136  N        -28.8080  -31.2090  -26.6620 N.3   232  LYS232     -0.1245
    137  CA       -29.9790  -30.8980  -27.5360 C.3   232  LYS232      0.1561
    138  C        -30.0010  -31.8570  -28.7270 C.2   232  LYS232      0.2260
    139  O        -30.3330  -31.4180  -29.8370 O.2   232  LYS232     -0.2867
    140  CB       -30.0340  -29.4460  -28.0310 C.3   232  LYS232      0.0271
    141  CG       -30.5560  -28.4410  -27.0150 C.3   232  LYS232      0.0035
    142  CD       -30.0380  -28.6610  -25.6140 C.3   232  LYS232      0.0206
    143  CE       -30.7260  -27.7870  -24.5870 C.3   232  LYS232      0.1093
    144  NZ       -32.1670  -28.1080  -24.4690 N.3   232  LYS232     -0.1314
@<TRIPOS>BOND
     1    78    75    1
     2   114   113    1
     3    75    76    1
     4    75    74    1
     5    76    77    2
     6    69    68    2
     7   113   112   ar
     8   113   111   ar
     9    79    80    1
    10    60    59    2
    11   112   110   ar
    12    74    68   am
    13    68    67    1
    14    85    84   ar
    15   111   109   ar
    16    59    58    1
    17    80    83    1
    18    80    81    1
    19    84    86   ar
    20    84    83    1
    21    58    57    1
    22    58    61    1
    23    66    67    1
    24   110   108   ar
    25    10    11    1
    26    67    70    1
    27    87    81   am
    28    87    88    1
    29    89    88    1
    30    89    90    2
    31    81    82    2
    32   109   108   ar
    33    26    25    2
    34    11    14    1
    35    11    12    1
    36    91    88    1
    37    91    92    1
    38   108   107    1
    39    61    62    1
    40    71    70    1
    41    71    73    1
    42    25    27   am
    43    25    24    1
    44    92    93    1
    45    92    94    1
    46    70    72    1
    47    62    63    1
    48    23    24    1
    49    23    20    1
    50    14    15    1
    51    12    19   am
    52    12    13    2
    53    19    20    1
    54    95    96    1
    55   103   104    1
    56    22    21    2
    57    20    21    1
    58    15    16    1
    59   107   104    1
    60    63    65   am
    61    63    64    2
    62    21    28   am
    63   104   105    1
    64    31    30    2
    65    16    17   ar
    66    16    18   ar
    67    52    51    2
    68    96    97    1
    69    96    99    1
    70    97    98    2
    71    28    29    1
    72    99   100    1
    73    30    29    1
    74    51    50    1
    75    50    53    1
    76    50    49    1
    77   105   106    2
    78   105   115   am
    79    55    54    2
    80   121   115    1
    81   121   120    1
    82    53    54    1
    83   115   116    1
    84    54    56   am
    85   139   138    2
    86   100   102   am
    87   100   101    2
    88   120   119    1
    89   126   123    1
    90   116   119    1
    91   116   117    1
    92   138   137    1
    93   123   122    1
    94   123   124    1
    95    38    37    1
    96   133   132    1
    97   133   134    1
    98   135   134    1
    99   140   137    1
   100   140   141    1
   101   132   131    1
   102   117   118    2
   103    35    34    2
   104   137   136    1
   105    37    39    1
   106    37    36    1
   107   124   125    2
   108    43    42    2
   109   141   142    1
   110   131   128    1
   111    34    33    1
   112    34    40   am
   113    42    41    1
   114    33    36    1
   115    33    32    1
   116   128   127    1
   117   128   129    1
   118    41    40    1
   119    41    44    1
   120   142   143    1
   121   129   130    2
   122   143   144    1
   123    44    45    1
   124    45    46    1
   125     9     8    1
   126     7     8    1
   127     7     6    1
   128     5     6    1
   129     5     2    1
   130    48    47    1
   131    46    47    1
   132     3     4    2
   133     3     2    1
   134     1     2    1
