@<TRIPOS>MOLECULE
tmp/6i0oA00.pdb
 124 117 0 0 0
SMALL
GASTEIGER

@<TRIPOS>ATOM
      1  N        -25.2930  -29.8640  -47.2610 N.3   130  CYS130     -0.1221
      2  CA       -24.1830  -29.2850  -48.0110 C.3   130  CYS130      0.1808
      3  C        -23.6200  -28.0250  -47.3630 C.2   130  CYS130      0.2601
      4  O        -22.8660  -27.2930  -48.0140 O.2   130  CYS130     -0.2717
      5  CB       -24.6220  -28.9780  -49.4450 C.3   130  CYS130      0.0970
      6  SG       -26.1310  -27.9960  -49.5580 S.3   130  CYS130     -0.0800
      7  N        -23.9640  -27.7510  -46.1070 N.am  131  GLY131     -0.1957
      8  CA       -23.3810  -26.6340  -45.3870 C.3   131  GLY131      0.1869
      9  C        -22.0770  -27.0330  -44.7290 C.2   131  GLY131      0.2309
     10  O        -22.0820  -27.7620  -43.7340 O.2   131  GLY131     -0.2863
     11  N        -16.4550  -20.2960  -45.5490 N.3   147  ILE147     -0.1245
     12  CA       -17.6210  -21.1650  -45.4200 C.3   147  ILE147      0.1561
     13  C        -18.2940  -21.4670  -46.7470 C.2   147  ILE147      0.2260
     14  O        -18.1690  -20.7270  -47.7080 O.2   147  ILE147     -0.2867
     15  CB       -18.6910  -20.5620  -44.5180 C.3   147  ILE147      0.0252
     16  CG1      -19.5000  -21.6750  -43.8700 C.3   147  ILE147      0.0019
     17  CG2      -19.6030  -19.6660  -45.3300 C.3   147  ILE147      0.0019
     18  CD1      -20.3750  -21.1960  -42.7400 C.3   147  ILE147      0.0001
     19  N        -22.0410  -23.0720  -48.5840 N.3   149  SER149     -0.1202
     20  CA       -23.4680  -23.3000  -48.3970 C.3   149  SER149      0.2020
     21  C        -24.0730  -23.8830  -49.6680 C.2   149  SER149      0.2619
     22  O        -23.3900  -24.0930  -50.6740 O.2   149  SER149     -0.2717
     23  CB       -24.2090  -22.0190  -48.0170 C.3   149  SER149      0.2103
     24  OG       -25.5940  -22.1860  -48.2750 O.3   149  SER149     -0.2182
     25  N        -25.3820  -24.1420  -49.6060 N.am  150  SER150     -0.1937
     26  CA       -26.1140  -24.6440  -50.7640 C.3   150  SER150      0.2055
     27  C        -26.1160  -23.6360  -51.9090 C.2   150  SER150      0.2643
     28  O        -25.8340  -23.9850  -53.0610 O.2   150  SER150     -0.2714
     29  CB       -27.5500  -24.9770  -50.3580 C.3   150  SER150      0.2130
     30  OG       -28.1890  -23.8410  -49.8020 O.3   150  SER150     -0.2179
     31  N        -26.4400  -22.3750  -51.6090 N.am  151  ARG151     -0.1963
     32  CA       -26.6120  -21.3790  -52.6640 C.3   151  ARG151      0.1729
     33  C        -25.3170  -21.1200  -53.4230 C.2   151  ARG151      0.2616
     34  O        -25.3550  -20.7090  -54.5880 O.2   151  ARG151     -0.2715
     35  CB       -27.1580  -20.0820  -52.0660 C.3   151  ARG151      0.0348
     36  CG       -28.5270  -20.2540  -51.4300 C.3   151  ARG151      0.0492
     37  CD       -29.1220  -18.9420  -50.9570 C.3   151  ARG151      0.2205
     38  NE       -30.4950  -19.1240  -50.4980 N.pl3 151  ARG151     -0.0865
     39  CZ       -31.2660  -18.1500  -50.0250 C.cat 151  ARG151      0.5346
     40  NH1      -30.8020  -16.9120  -49.9380 N.pl3 151  ARG151      0.1354
     41  NH2      -32.5040  -18.4190  -49.6350 N.pl3 151  ARG151      0.1354
     42  N        -24.1670  -21.3510  -52.7880 N.am  152  ASP152     -0.1971
     43  CA       -22.8980  -21.2430  -53.4990 C.3   152  ASP152      0.1709
     44  C        -22.7680  -22.3080  -54.5810 C.2   152  ASP152      0.2293
     45  O        -22.1560  -22.0570  -55.6250 O.2   152  ASP152     -0.2864
     46  CB       -21.7370  -21.3480  -52.5110 C.3   152  ASP152      0.1436
     47  CG       -21.7650  -20.2550  -51.4620 C.2   152  ASP152      0.3671
     48  OD1      -22.2530  -19.1480  -51.7700 O.co2 152  ASP152     -0.2456
     49  OD2      -21.3020  -20.5030  -50.3290 O.co2 152  ASP152     -0.2456
     50  N        -17.0140  -18.4450  -49.4350 N.3   170  THR170     -0.1218
     51  CA       -17.0150  -17.0460  -49.0310 C.3   170  THR170      0.1862
     52  C        -15.9230  -16.8180  -47.9940 C.2   170  THR170      0.2287
     53  O        -15.8000  -17.5860  -47.0350 O.2   170  THR170     -0.2866
     54  CB       -18.3780  -16.6440  -48.4640 C.3   170  THR170      0.1770
     55  OG1      -18.5110  -17.1460  -47.1290 O.3   170  THR170     -0.2211
     56  CG2      -19.5090  -17.1990  -49.3230 C.3   170  THR170      0.0375
     57  N        -15.7370  -11.6190  -44.7680 N.3   174  ASP174     -0.1225
     58  CA       -17.1600  -11.3320  -44.9020 C.3   174  ASP174      0.1805
     59  C        -17.9870  -11.9940  -43.8090 C.2   174  ASP174      0.2598
     60  O        -19.0980  -11.5330  -43.5250 O.2   174  ASP174     -0.2718
     61  CB       -17.6580  -11.7900  -46.2740 C.3   174  ASP174      0.1424
     62  CG       -17.0660  -10.9800  -47.4110 C.2   174  ASP174      0.3668
     63  OD1      -16.0590  -10.2770  -47.1830 O.co2 174  ASP174     -0.2456
     64  OD2      -17.6080  -11.0470  -48.5350 O.co2 174  ASP174     -0.2456
     65  N        -17.4770  -13.0570  -43.1950 N.am  175  LEU175     -0.1966
     66  CA       -18.2730  -13.8720  -42.2940 C.3   175  LEU175      0.1728
     67  C        -18.4660  -13.2120  -40.9350 C.2   175  LEU175      0.2616
     68  O        -17.7360  -12.2990  -40.5350 O.2   175  LEU175     -0.2715
     69  CB       -17.6040  -15.2260  -42.0680 C.3   175  LEU175      0.0311
     70  CG       -17.6300  -16.2540  -43.1890 C.3   175  LEU175      0.0022
     71  CD1      -16.8320  -17.4650  -42.7640 C.3   175  LEU175      0.0001
     72  CD2      -19.0520  -16.6420  -43.5200 C.3   175  LEU175      0.0001
     73  N        -19.4760  -13.7060  -40.2250 N.am  176  VAL176     -0.1977
     74  CA       -19.7380  -13.3670  -38.8330 C.3   176  VAL176      0.1596
     75  C        -19.4860  -14.6260  -38.0170 C.2   176  VAL176      0.2287
     76  O        -19.9440  -15.7150  -38.3880 O.2   176  VAL176     -0.2864
     77  CB       -21.1680  -12.8310  -38.6300 C.3   176  VAL176      0.0276
     78  CG1      -22.1810  -13.6800  -39.3710 C.3   176  VAL176      0.0022
     79  CG2      -21.5280  -12.7890  -37.1480 C.3   176  VAL176      0.0022
     80  N        -29.1720  -13.5000  -39.3690 N.3   195  LYS195     -0.1231
     81  CA       -29.9960  -13.9410  -40.4940 C.3   195  LYS195      0.1693
     82  C        -29.1780  -14.7760  -41.4760 C.2   195  LYS195      0.2592
     83  O        -29.3130  -14.6480  -42.6950 O.2   195  LYS195     -0.2718
     84  CB       -30.6430  -12.7490  -41.1990 C.3   195  LYS195      0.0285
     85  CG       -31.5750  -11.9000  -40.3340 C.3   195  LYS195      0.0035
     86  CD       -31.9820  -10.6230  -41.0680 C.3   195  LYS195      0.0206
     87  CE       -32.8340   -9.7050  -40.1970 C.3   195  LYS195      0.1093
     88  NZ       -32.1400   -9.3960  -38.9080 N.3   195  LYS195     -0.1314
     89  N        -28.3300  -15.6480  -40.9380 N.am  196  LYS196     -0.1966
     90  CA       -27.4970  -16.5390  -41.7260 C.3   196  LYS196      0.1728
     91  C        -27.8550  -17.9800  -41.3960 C.2   196  LYS196      0.2617
     92  O        -28.4980  -18.2650  -40.3840 O.2   196  LYS196     -0.2715
     93  CB       -26.0050  -16.2990  -41.4540 C.3   196  LYS196      0.0311
     94  CG       -25.5060  -14.9720  -41.9070 C.3   196  LYS196      0.0038
     95  CD       -25.3550  -14.8680  -43.3930 C.3   196  LYS196      0.0206
     96  CE       -24.8140  -13.4800  -43.8170 C.3   196  LYS196      0.1093
     97  NZ       -25.8220  -12.4100  -43.8070 N.3   196  LYS196     -0.1314
     98  N        -27.4340  -18.8880  -42.2690 N.am  197  GLY197     -0.1940
     99  CA       -27.7480  -20.2910  -42.0920 C.3   197  GLY197      0.2014
    100  C        -26.9310  -20.9590  -41.0080 C.2   197  GLY197      0.2638
    101  O        -27.4400  -21.8210  -40.2860 O.2   197  GLY197     -0.2714
    102  N        -25.6630  -20.5690  -40.8840 N.am  198  LYS198     -0.1977
    103  CA       -24.7420  -21.1940  -39.9450 C.3   198  LYS198      0.1596
    104  C        -23.9560  -20.1150  -39.2110 C.2   198  LYS198      0.2287
    105  O        -23.7770  -19.0020  -39.7120 O.2   198  LYS198     -0.2864
    106  CB       -23.7780  -22.1440  -40.6730 C.3   198  LYS198      0.0298
    107  CG       -24.4510  -23.0430  -41.7130 C.3   198  LYS198      0.0038
    108  CD       -25.2180  -24.2020  -41.0970 C.3   198  LYS198      0.0206
    109  CE       -25.8960  -25.0240  -42.1880 C.3   198  LYS198      0.1093
    110  NZ       -26.3010  -26.3780  -41.7290 N.3   198  LYS198     -0.1314
    111  N        -20.2100  -20.1210  -37.2430 N.3   200  PRO200     -0.2116
    112  CA       -19.0390  -20.8360  -36.7230 C.3   200  PRO200      0.1372
    113  C        -18.6290  -20.3420  -35.3450 C.2   200  PRO200      0.2244
    114  O        -18.8330  -19.1810  -34.9840 O.2   200  PRO200     -0.2868
    115  CB       -17.9470  -20.5540  -37.7650 C.3   200  PRO200      0.0268
    116  CG       -18.6510  -19.9680  -38.9450 C.3   200  PRO200      0.0207
    117  CD       -19.8680  -19.2990  -38.4140 C.3   200  PRO200      0.0892
    118  N        -31.4340  -24.2850  -38.9660 N.3   215  THR215     -0.1218
    119  CA       -32.4970  -25.2810  -39.0560 C.3   215  THR215      0.1862
    120  C        -32.7600  -25.9460  -37.7130 C.2   215  THR215      0.2287
    121  O        -33.9040  -26.3090  -37.4160 O.2   215  THR215     -0.2866
    122  CB       -32.1400  -26.3380  -40.1010 C.3   215  THR215      0.1770
    123  OG1      -30.9070  -26.9720  -39.7410 O.3   215  THR215     -0.2211
    124  CG2      -32.0130  -25.7090  -41.4830 C.3   215  THR215      0.0375
@<TRIPOS>BOND
     1    45    44    2
     2    34    33    2
     3    44    43    1
     4    43    42    1
     5    43    46    1
     6    33    42   am
     7    33    32    1
     8    28    27    2
     9    32    35    1
    10    32    31    1
    11    46    47    1
    12    35    36    1
    13    27    31   am
    14    27    26    1
    15    48    47   ar
    16    47    49   ar
    17    36    37    1
    18    37    38    1
    19    26    29    1
    20    26    25    1
    21    22    21    2
    22    38    39    2
    23    29    30    1
    24    39    40    1
    25    39    41    1
    26    21    25   am
    27    21    20    1
    28     6     5    1
    29     5     2    1
    30    50    51    1
    31    56    54    1
    32    51    54    1
    33    51    52    1
    34    19    20    1
    35    64    62   ar
    36    54    55    1
    37    20    23    1
    38    24    23    1
    39     4     3    2
    40     2     3    1
    41     2     1    1
    42    52    53    2
    43    14    13    2
    44    62    63   ar
    45    62    61    1
    46     3     7   am
    47    13    12    1
    48    61    58    1
    49     7     8    1
    50    11    12    1
    51    12    15    1
    52     8     9    1
    53    17    15    1
    54    58    57    1
    55    58    59    1
    56     9    10    2
    57    15    16    1
    58    16    18    1
    59    96    97    1
    60    96    95    1
    61    59    60    2
    62    59    65   am
    63    72    70    1
    64    95    94    1
    65    65    66    1
    66    70    71    1
    67    70    69    1
    68    83    82    2
    69    66    69    1
    70    66    67    1
    71    98    99    1
    72    98    91   am
    73   109   110    1
    74   109   108    1
    75    99   100    1
    76    94    93    1
    77    90    93    1
    78    90    91    1
    79    90    89    1
    80   107   108    1
    81   107   106    1
    82   124   122    1
    83    82    89   am
    84    82    81    1
    85    91    92    2
    86    84    81    1
    87    84    85    1
    88    86    85    1
    89    86    87    1
    90   100   102   am
    91   100   101    2
    92    67    68    2
    93    67    73   am
    94   102   103    1
    95   106   103    1
    96    81    80    1
    97    73    74    1
    98    87    88    1
    99   122   123    1
   100   122   119    1
   101   103   104    1
   102   105   104    2
   103    78    77    1
   104   119   118    1
   105   119   120    1
   106   116   117    1
   107   116   115    1
   108    74    77    1
   109    74    75    1
   110    77    79    1
   111   117   111    1
   112    76    75    2
   113   115   112    1
   114   120   121    2
   115   111   112    1
   116   112   113    1
   117   113   114    2
