@<TRIPOS>MOLECULE
tmp/6i0oA01.pdb
 153 144 0 0 0
SMALL
GASTEIGER

@<TRIPOS>ATOM
      1  N        -27.5890  -37.5810  -34.6080 N.3    99  LYS99      -0.1231
      2  CA       -27.0950  -36.5080  -35.4620 C.3    99  LYS99       0.1693
      3  C        -28.2070  -35.7370  -36.1620 C.2    99  LYS99       0.2592
      4  O        -27.9240  -34.6970  -36.7650 O.2    99  LYS99      -0.2718
      5  CB       -26.1360  -37.0760  -36.5130 C.3    99  LYS99       0.0285
      6  CG       -24.7890  -37.5070  -35.9620 C.3    99  LYS99       0.0035
      7  CD       -23.9610  -36.3110  -35.5420 C.3    99  LYS99       0.0206
      8  CE       -22.7620  -36.7520  -34.7130 C.3    99  LYS99       0.1093
      9  NZ       -22.0790  -35.5780  -34.1020 N.3    99  LYS99      -0.1314
     10  N        -29.4520  -36.2090  -36.1050 N.am  100  TYR100     -0.1976
     11  CA       -30.5460  -35.5300  -36.7910 C.3   100  TYR100      0.1639
     12  C        -30.6740  -34.0880  -36.3150 C.2   100  TYR100      0.2290
     13  O        -30.4560  -33.1540  -37.0930 O.2   100  TYR100     -0.2864
     14  CB       -31.8610  -36.2800  -36.5800 C.3   100  TYR100      0.0560
     15  CG       -33.0410  -35.6200  -37.2500 C.ar  100  TYR100     -0.0198
     16  CD1      -33.3170  -35.8400  -38.5920 C.ar  100  TYR100     -0.0009
     17  CD2      -33.8810  -34.7750  -36.5390 C.ar  100  TYR100     -0.0009
     18  CE1      -34.3950  -35.2360  -39.2070 C.ar  100  TYR100      0.0417
     19  CE2      -34.9610  -34.1680  -37.1450 C.ar  100  TYR100      0.0417
     20  CZ       -35.2140  -34.4020  -38.4780 C.ar  100  TYR100      0.1957
     21  OH       -36.2900  -33.7970  -39.0840 O.3   100  TYR100     -0.2866
     22  N        -29.3100  -31.1850  -33.5250 N.3   102  GLN102     -0.1245
     23  CA       -28.0640  -30.9100  -32.8300 C.3   102  GLN102      0.1566
     24  C        -28.0530  -29.4580  -32.3730 C.2   102  GLN102      0.2260
     25  O        -28.7210  -28.6040  -32.9610 O.2   102  GLN102     -0.2867
     26  CB       -26.8630  -31.2110  -33.7360 C.3   102  GLN102      0.0367
     27  CG       -25.6590  -31.7780  -33.0120 C.3   102  GLN102      0.0905
     28  CD       -24.9160  -32.7980  -33.8490 C.2   102  GLN102      0.2608
     29  OE1      -25.5250  -33.5980  -34.5590 O.2   102  GLN102     -0.2717
     30  NE2      -23.5920  -32.7760  -33.7700 N.am  102  GLN102     -0.0878
     31  N        -22.4900  -28.2750  -32.7860 N.3   105  ILE105     -0.1245
     32  CA       -22.0980  -29.3750  -33.6610 C.3   105  ILE105      0.1561
     33  C        -20.5940  -29.5770  -33.5110 C.2   105  ILE105      0.2260
     34  O        -19.7920  -28.8040  -34.0380 O.2   105  ILE105     -0.2867
     35  CB       -22.4930  -29.1050  -35.1120 C.3   105  ILE105      0.0252
     36  CG1      -24.0050  -28.8750  -35.2070 C.3   105  ILE105      0.0019
     37  CG2      -22.0800  -30.2770  -35.9940 C.3   105  ILE105      0.0019
     38  CD1      -24.4920  -28.4800  -36.5860 C.3   105  ILE105      0.0001
     39  N        -17.4290  -32.1770  -34.3710 N.3   107  ASP107     -0.1225
     40  CA       -17.1070  -33.1130  -35.4390 C.3   107  ASP107      0.1790
     41  C        -18.0520  -32.9350  -36.6240 C.2   107  ASP107      0.2440
     42  O        -18.6520  -33.9130  -37.0870 O.2   107  ASP107     -0.2733
     43  CB       -17.1760  -34.5520  -34.9230 C.3   107  ASP107      0.1423
     44  CG       -16.2680  -35.5330  -35.6390 C.2   107  ASP107      0.3668
     45  OD1      -15.6540  -35.2120  -36.6500 O.co2 107  ASP107     -0.2456
     46  OD2      -16.2640  -36.6860  -35.1670 O.co2 107  ASP107     -0.2456
     47  N        -18.2170  -31.7200  -37.1400 N.am  108  PRO108     -0.2718
     48  CA       -18.9630  -31.5390  -38.3870 C.3   108  PRO108      0.1535
     49  C        -18.0950  -31.8730  -39.5920 C.2   108  PRO108      0.2598
     50  O        -16.8850  -32.0740  -39.4900 O.2   108  PRO108     -0.2715
     51  CB       -19.3270  -30.0530  -38.3640 C.3   108  PRO108      0.0310
     52  CG       -18.1990  -29.4270  -37.6320 C.3   108  PRO108      0.0237
     53  CD       -17.7950  -30.4250  -36.5750 C.3   108  PRO108      0.0939
     54  N        -18.7430  -31.9280  -40.7540 N.am  109  VAL109     -0.1978
     55  CA       -18.0120  -32.1030  -42.0020 C.3   109  VAL109      0.1596
     56  C        -17.2180  -30.8370  -42.2890 C.2   109  VAL109      0.2287
     57  O        -17.7620  -29.7260  -42.2680 O.2   109  VAL109     -0.2864
     58  CB       -18.9750  -32.4290  -43.1530 C.3   109  VAL109      0.0276
     59  CG1      -18.2070  -32.6170  -44.4570 C.3   109  VAL109      0.0022
     60  CG2      -19.7900  -33.6710  -42.8300 C.3   109  VAL109      0.0022
     61  N        -23.1620  -33.8790  -49.5530 N.3   124  LYS124     -0.1245
     62  CA       -24.6150  -33.7670  -49.6350 C.3   124  LYS124      0.1561
     63  C        -25.2650  -35.0990  -49.9840 C.2   124  LYS124      0.2260
     64  O        -26.3750  -35.3890  -49.5240 O.2   124  LYS124     -0.2867
     65  CB       -24.9990  -32.7110  -50.6750 C.3   124  LYS124      0.0271
     66  CG       -26.5020  -32.4530  -50.7890 C.3   124  LYS124      0.0035
     67  CD       -27.0770  -31.7370  -49.5800 C.3   124  LYS124      0.0206
     68  CE       -28.5450  -31.4280  -49.7710 C.3   124  LYS124      0.1093
     69  NZ       -29.1260  -30.6630  -48.6330 N.3   124  LYS124     -0.1314
     70  N        -26.6070  -35.7810  -46.5770 N.3   128  GLY128     -0.1210
     71  CA       -27.8540  -35.0800  -46.8000 C.3   128  GLY128      0.1956
     72  C        -27.8130  -33.5810  -46.5890 C.2   128  GLY128      0.2612
     73  O        -28.8550  -32.9280  -46.7260 O.2   128  GLY128     -0.2717
     74  N        -26.6540  -33.0140  -46.2600 N.am  129  PHE129     -0.1962
     75  CA       -26.5180  -31.5780  -46.0690 C.3   129  PHE129      0.1771
     76  C        -25.2500  -31.1010  -46.7620 C.2   129  PHE129      0.2620
     77  O        -24.2580  -31.8300  -46.8420 O.2   129  PHE129     -0.2715
     78  CB       -26.4840  -31.2040  -44.5800 C.3   129  PHE129      0.0574
     79  CG       -25.5280  -32.0290  -43.7690 C.ar  129  PHE129     -0.0200
     80  CD1      -24.1630  -31.8160  -43.8510 C.ar  129  PHE129     -0.0042
     81  CD2      -25.9970  -33.0160  -42.9180 C.ar  129  PHE129     -0.0042
     82  CE1      -23.2840  -32.5750  -43.1060 C.ar  129  PHE129     -0.0003
     83  CE2      -25.1230  -33.7750  -42.1690 C.ar  129  PHE129     -0.0003
     84  CZ       -23.7650  -33.5560  -42.2650 C.ar  129  PHE129     -0.0000
     85  N        -25.2930  -29.8640  -47.2610 N.am  130  CYS130     -0.1954
     86  CA       -24.1830  -29.2850  -48.0110 C.3   130  CYS130      0.1843
     87  C        -23.6200  -28.0250  -47.3630 C.2   130  CYS130      0.2626
     88  O        -22.8660  -27.2930  -48.0140 O.2   130  CYS130     -0.2714
     89  CB       -24.6220  -28.9780  -49.4450 C.3   130  CYS130      0.0997
     90  SG       -26.1310  -27.9960  -49.5580 S.3   130  CYS130     -0.0797
     91  N        -23.9640  -27.7510  -46.1070 N.am  131  GLY131     -0.1954
     92  CA       -23.3810  -26.6340  -45.3870 C.3   131  GLY131      0.1869
     93  C        -22.0770  -27.0330  -44.7290 C.2   131  GLY131      0.2309
     94  O        -22.0820  -27.7620  -43.7340 O.2   131  GLY131     -0.2863
     95  N        -18.1280  -25.9070  -43.2960 N.3   133  PRO133     -0.2116
     96  CA       -17.0060  -25.0000  -43.0450 C.3   133  PRO133      0.1372
     97  C        -15.7100  -25.5950  -43.5720 C.2   133  PRO133      0.2244
     98  O        -15.5380  -26.8140  -43.6390 O.2   133  PRO133     -0.2868
     99  CB       -16.9900  -24.8730  -41.5180 C.3   133  PRO133      0.0268
    100  CG       -17.5580  -26.1540  -41.0360 C.3   133  PRO133      0.0207
    101  CD       -18.5610  -26.5980  -42.0690 C.3   133  PRO133      0.0892
    102  N        -25.3820  -24.1420  -49.6060 N.3   150  SER150     -0.1217
    103  CA       -26.1140  -24.6440  -50.7640 C.3   150  SER150      0.1889
    104  C        -26.1160  -23.6360  -51.9090 C.2   150  SER150      0.2288
    105  O        -25.8340  -23.9850  -53.0610 O.2   150  SER150     -0.2866
    106  CB       -27.5500  -24.9770  -50.3580 C.3   150  SER150      0.2089
    107  OG       -28.1890  -23.8410  -49.8020 O.3   150  SER150     -0.2183
    108  N        -25.6630  -20.5690  -40.8840 N.3   198  LYS198     -0.1245
    109  CA       -24.7420  -21.1940  -39.9450 C.3   198  LYS198      0.1561
    110  C        -23.9560  -20.1150  -39.2110 C.2   198  LYS198      0.2260
    111  O        -23.7770  -19.0020  -39.7120 O.2   198  LYS198     -0.2867
    112  CB       -23.7780  -22.1440  -40.6730 C.3   198  LYS198      0.0271
    113  CG       -24.4510  -23.0430  -41.7130 C.3   198  LYS198      0.0035
    114  CD       -25.2180  -24.2020  -41.0970 C.3   198  LYS198      0.0206
    115  CE       -25.8960  -25.0240  -42.1880 C.3   198  LYS198      0.1093
    116  NZ       -26.3010  -26.3780  -41.7290 N.3   198  LYS198     -0.1314
    117  N        -19.9550  -25.3980  -34.5940 N.3   211  ILE211     -0.1245
    118  CA       -20.8500  -24.6260  -35.4480 C.3   211  ILE211      0.1561
    119  C        -22.2780  -24.9250  -35.0210 C.2   211  ILE211      0.2260
    120  O        -22.5740  -25.9970  -34.4880 O.2   211  ILE211     -0.2867
    121  CB       -20.6510  -24.9380  -36.9530 C.3   211  ILE211      0.0252
    122  CG1      -21.0730  -26.3780  -37.2720 C.3   211  ILE211      0.0019
    123  CG2      -19.2030  -24.7160  -37.3630 C.3   211  ILE211      0.0019
    124  CD1      -21.0270  -26.7260  -38.7510 C.3   211  ILE211      0.0001
    125  N        -26.4850  -24.4100  -36.4760 N.3   213  ALA213     -0.1245
    126  CA       -27.2590  -24.2570  -37.6980 C.3   213  ALA213      0.1562
    127  C        -28.6240  -23.6580  -37.3880 C.2   213  ALA213      0.2260
    128  O        -29.2100  -23.9150  -36.3320 O.2   213  ALA213     -0.2867
    129  CB       -27.4370  -25.5990  -38.4130 C.3   213  ALA213      0.0290
    130  N        -31.4340  -24.2850  -38.9660 N.3   215  THR215     -0.1203
    131  CA       -32.4970  -25.2810  -39.0560 C.3   215  THR215      0.1994
    132  C        -32.7600  -25.9460  -37.7130 C.2   215  THR215      0.2617
    133  O        -33.9040  -26.3090  -37.4160 O.2   215  THR215     -0.2717
    134  CB       -32.1400  -26.3380  -40.1010 C.3   215  THR215      0.1784
    135  OG1      -30.9070  -26.9720  -39.7410 O.3   215  THR215     -0.2211
    136  CG2      -32.0130  -25.7090  -41.4830 C.3   215  THR215      0.0376
    137  N        -31.7230  -26.1160  -36.8900 N.am  216  ASP216     -0.1973
    138  CA       -31.9250  -26.6980  -35.5680 C.3   216  ASP216      0.1709
    139  C        -32.8910  -25.8610  -34.7390 C.2   216  ASP216      0.2293
    140  O        -33.7060  -26.4050  -33.9860 O.2   216  ASP216     -0.2864
    141  CB       -30.5850  -26.8400  -34.8480 C.3   216  ASP216      0.1436
    142  CG       -29.6800  -27.8730  -35.4910 C.2   216  ASP216      0.3671
    143  OD1      -30.2040  -28.8520  -36.0630 O.co2 216  ASP216     -0.2456
    144  OD2      -28.4430  -27.7080  -35.4190 O.co2 216  ASP216     -0.2456
    145  N        -36.3360  -26.7630  -36.0460 N.3   219  LYS219     -0.1245
    146  CA       -36.7990  -28.0270  -35.4830 C.3   219  LYS219      0.1561
    147  C        -37.2340  -27.8490  -34.0370 C.2   219  LYS219      0.2260
    148  O        -38.2270  -28.4440  -33.5990 O.2   219  LYS219     -0.2867
    149  CB       -35.7040  -29.0880  -35.5860 C.3   219  LYS219      0.0271
    150  CG       -35.3590  -29.4850  -37.0090 C.3   219  LYS219      0.0035
    151  CD       -34.3460  -30.6150  -37.0350 C.3   219  LYS219      0.0206
    152  CE       -33.9590  -30.9790  -38.4570 C.3   219  LYS219      0.1093
    153  NZ       -32.5630  -30.5860  -38.7700 N.3   219  LYS219     -0.1314
@<TRIPOS>BOND
     1   105   104    2
     2   104   103    1
     3    66    65    1
     4    66    67    1
     5   103   106    1
     6   103   102    1
     7    65    62    1
     8   106   107    1
     9    63    62    1
    10    63    64    2
    11    68    67    1
    12    68    69    1
    13    62    61    1
    14    90    89    1
    15    89    86    1
    16    88    87    2
    17    86    87    1
    18    86    85    1
    19    87    91   am
    20    85    76   am
    21    77    76    2
    22    71    72    1
    23    71    70    1
    24    76    75    1
    25    73    72    2
    26    72    74   am
    27    74    75    1
    28    91    92    1
    29    75    78    1
    30    92    93    1
    31    93    94    2
    32    78    79    1
    33    59    58    1
    34    80    79   ar
    35    80    82   ar
    36    79    81   ar
    37    98    97    2
    38    97    96    1
    39    95    96    1
    40    95   101    1
    41    58    60    1
    42    58    55    1
    43    82    84   ar
    44    96    99    1
    45    81    83   ar
    46    56    57    2
    47    56    55    1
    48    84    83   ar
    49   115   116    1
    50   115   114    1
    51   101   100    1
    52    55    54    1
    53   113   114    1
    54   113   112    1
    55    99   100    1
    56   136   134    1
    57   108   109    1
    58    54    49   am
    59   112   109    1
    60   134   135    1
    61   134   131    1
    62   109   110    1
    63   111   110    2
    64    49    50    2
    65    49    48    1
    66    18    16   ar
    67    18    20   ar
    68    21    20    1
    69   131   130    1
    70   131   132    1
    71   153   152    1
    72   124   122    1
    73    16    15   ar
    74    20    19   ar
    75   152   151    1
    76   129   126    1
    77    48    51    1
    78    48    47    1
    79    51    52    1
    80   132   133    2
    81   132   137   am
    82   126   127    1
    83   126   125    1
    84    52    53    1
    85   127   128    2
    86   123   121    1
    87   122   121    1
    88    15    14    1
    89    15    17   ar
    90    19    17   ar
    91    47    41   am
    92    47    53    1
    93    13    12    2
    94    42    41    2
    95   151   150    1
    96   150   149    1
    97   121   118    1
    98   137   138    1
    99    11    14    1
   100    11    12    1
   101    11    10    1
   102     4     3    2
   103    45    44   ar
   104    41    40    1
   105    38    36    1
   106     5     6    1
   107     5     2    1
   108     3    10   am
   109     3     2    1
   110   143   142   ar
   111   145   146    1
   112    37    35    1
   113     6     7    1
   114    44    46   ar
   115    44    43    1
   116   149   146    1
   117   138   141    1
   118   138   139    1
   119     7     8    1
   120   142   144   ar
   121   142   141    1
   122   146   147    1
   123     2     1    1
   124   118   119    1
   125   118   117    1
   126    40    43    1
   127    40    39    1
   128    36    35    1
   129    35    32    1
   130   119   120    2
   131   139   140    2
   132     8     9    1
   133    29    28    2
   134    34    33    2
   135   147   148    2
   136    28    30   am
   137    28    27    1
   138    26    27    1
   139    26    23    1
   140    32    33    1
   141    32    31    1
   142    22    23    1
   143    25    24    2
   144    23    24    1
