@<TRIPOS>MOLECULE
tmp/6i0sA00.pdb
 187 173 0 0 0
SMALL
GASTEIGER

@<TRIPOS>ATOM
      1  N         42.4350  -16.3120   -7.7820 N.3    64  PHE64      -0.1227
      2  CA        41.0910  -16.7140   -8.1900 C.3    64  PHE64       0.1736
      3  C         41.1590  -17.3240   -9.5890 C.2    64  PHE64       0.2596
      4  O         42.2390  -17.5380  -10.1470 O.2    64  PHE64      -0.2718
      5  CB        40.1070  -15.5290   -8.0660 C.3    64  PHE64       0.0547
      6  CG        40.3100  -14.4330   -9.0850 C.ar   64  PHE64      -0.0202
      7  CD1       41.3640  -13.5400   -8.9780 C.ar   64  PHE64      -0.0042
      8  CD2       39.4350  -14.2940  -10.1460 C.ar   64  PHE64      -0.0042
      9  CE1       41.5510  -12.5470   -9.9170 C.ar   64  PHE64      -0.0003
     10  CE2       39.6120  -13.3030  -11.0940 C.ar   64  PHE64      -0.0003
     11  CZ        40.6780  -12.4220  -10.9800 C.ar   64  PHE64      -0.0000
     12  N         39.9970  -17.6720  -10.1290 N.am   65  GLY65      -0.1942
     13  CA        39.9360  -18.2340  -11.4710 C.3    65  GLY65       0.2014
     14  C         39.9420  -19.7470  -11.4880 C.2    65  GLY65       0.2639
     15  O         39.8490  -20.4220  -10.4600 O.2    65  GLY65      -0.2714
     16  N         40.0770  -20.2910  -12.7010 N.am   66  SER66      -0.1949
     17  CA        39.8370  -21.7120  -12.9190 C.3    66  SER66       0.1924
     18  C         40.7850  -22.6010  -12.1160 C.2    66  SER66       0.2314
     19  O         40.3880  -23.6840  -11.6610 O.2    66  SER66      -0.2863
     20  CB        39.9530  -22.0160  -14.4150 C.3    66  SER66       0.2116
     21  OG        41.2660  -21.7140  -14.8680 O.3    66  SER66      -0.2180
     22  N         39.3620  -22.7570   -8.4240 N.3    69  THR69      -0.1218
     23  CA        38.1080  -23.4710   -8.2370 C.3    69  THR69       0.1862
     24  C         38.2200  -24.9570   -8.5300 C.2    69  THR69       0.2287
     25  O         37.3950  -25.7270   -8.0360 O.2    69  THR69      -0.2866
     26  CB        37.0310  -22.8830   -9.1400 C.3    69  THR69       0.1770
     27  OG1       37.4660  -23.0180  -10.4940 O.3    69  THR69      -0.2211
     28  CG2       36.7940  -21.4210   -8.8080 C.3    69  THR69       0.0375
     29  N         38.9980  -26.3660  -11.9930 N.3    71  ILE71      -0.1245
     30  CA        38.6900  -26.7860  -13.3590 C.3    71  ILE71       0.1561
     31  C         39.8230  -26.3860  -14.2850 C.2    71  ILE71       0.2260
     32  O         39.6680  -26.3630  -15.5090 O.2    71  ILE71      -0.2867
     33  CB        37.3480  -26.2120  -13.8390 C.3    71  ILE71       0.0252
     34  CG1       37.3790  -24.6870  -13.8590 C.3    71  ILE71       0.0019
     35  CG2       36.2240  -26.7030  -12.9400 C.3    71  ILE71       0.0019
     36  CD1       36.0790  -24.0640  -14.3750 C.3    71  ILE71       0.0001
     37  N         46.7770  -23.4580  -17.8170 N.3    76  SER76      -0.1202
     38  CA        45.9500  -22.3410  -17.3880 C.3    76  SER76       0.2020
     39  C         46.7970  -21.2000  -16.8440 C.2    76  SER76       0.2618
     40  O         47.8230  -21.4130  -16.1860 O.2    76  SER76      -0.2717
     41  CB        44.9680  -22.7980  -16.3140 C.3    76  SER76       0.2103
     42  OG        44.1300  -23.8120  -16.8110 O.3    76  SER76      -0.2182
     43  N         46.3570  -19.9800  -17.1220 N.am   77  ASP77      -0.1973
     44  CA        46.8860  -18.8230  -16.4220 C.3    77  ASP77       0.1709
     45  C         46.4460  -18.8590  -14.9570 C.2    77  ASP77       0.2293
     46  O         45.4920  -19.5490  -14.5830 O.2    77  ASP77      -0.2864
     47  CB        46.4030  -17.5230  -17.0700 C.3    77  ASP77       0.1436
     48  CG        47.0320  -17.2680  -18.4310 C.2    77  ASP77       0.3671
     49  OD1       47.7680  -18.1450  -18.9310 O.co2  77  ASP77      -0.2456
     50  OD2       46.7930  -16.1750  -19.0010 O.co2  77  ASP77      -0.2456
     51  N         45.0580  -16.2980  -12.1320 N.3    79  ASP79      -0.1239
     52  CA        44.4080  -14.9950  -12.0400 C.3    79  ASP79       0.1674
     53  C         44.6090  -14.4380  -10.6390 C.2    79  ASP79       0.2266
     54  O         44.3260  -15.1190   -9.6530 O.2    79  ASP79      -0.2867
     55  CB        42.9240  -15.1100  -12.3610 C.3    79  ASP79       0.1410
     56  CG        42.6800  -15.6800  -13.7430 C.2    79  ASP79       0.3668
     57  OD1       43.3400  -15.2240  -14.7010 O.co2  79  ASP79      -0.2456
     58  OD2       41.8430  -16.5910  -13.8700 O.co2  79  ASP79      -0.2456
     59  N         36.9180   -5.2430  -20.3050 N.3   126  ARG126     -0.1245
     60  CA        35.9950   -5.0700  -19.1890 C.3   126  ARG126      0.1563
     61  C         36.7580   -5.0330  -17.8710 C.2   126  ARG126      0.2260
     62  O         36.5180   -4.1710  -17.0180 O.2   126  ARG126     -0.2867
     63  CB        34.9750   -6.2080  -19.2030 C.3   126  ARG126      0.0307
     64  CG        33.9880   -6.1930  -18.0670 C.3   126  ARG126      0.0489
     65  CD        33.3380   -7.5670  -17.8870 C.3   126  ARG126      0.2205
     66  NE        32.9130   -7.7480  -16.5030 N.pl3 126  ARG126     -0.0865
     67  CZ        33.4770   -8.5760  -15.6280 C.cat 126  ARG126      0.5346
     68  NH1       33.0010   -8.6340  -14.3930 N.pl3 126  ARG126      0.1354
     69  NH2       34.4930   -9.3580  -15.9740 N.pl3 126  ARG126      0.1354
     70  N         47.6370  -13.4090  -14.8580 N.3   142  ASP142     -0.1239
     71  CA        46.7560  -12.3130  -15.2520 C.3   142  ASP142      0.1674
     72  C         46.4320  -11.5150  -13.9970 C.2   142  ASP142      0.2266
     73  O         45.7720  -12.0240  -13.0840 O.2   142  ASP142     -0.2867
     74  CB        45.4950  -12.8490  -15.9200 C.3   142  ASP142      0.1410
     75  CG        45.8060  -13.6500  -17.1680 C.2   142  ASP142      0.3668
     76  OD1       46.9060  -13.4710  -17.7120 O.co2 142  ASP142     -0.2456
     77  OD2       44.9620  -14.4500  -17.6110 O.co2 142  ASP142     -0.2456
     78  N         35.8380   -8.8400   -7.7380 N.3   148  MET148     -0.1230
     79  CA        34.6390   -9.6610   -7.9000 C.3   148  MET148      0.1702
     80  C         34.9900  -11.1060   -8.2410 C.2   148  MET148      0.2592
     81  O         34.3230  -12.0360   -7.7740 O.2   148  MET148     -0.2718
     82  CB        33.7130   -9.0560   -8.9620 C.3   148  MET148      0.0401
     83  CG        33.1700   -7.6630   -8.6150 C.3   148  MET148      0.0596
     84  SD        32.1880   -7.5850   -7.0980 S.3   148  MET148     -0.1393
     85  CE        30.7550   -8.5380   -7.5620 C.3   148  MET148      0.0692
     86  N         36.0460  -11.3270   -9.0250 N.am  149  GLY149     -0.1957
     87  CA        36.3910  -12.6920   -9.4080 C.3   149  GLY149      0.1869
     88  C         36.7570  -13.5580   -8.2170 C.2   149  GLY149      0.2309
     89  O         36.3950  -14.7350   -8.1550 O.2   149  GLY149     -0.2863
     90  N         33.2960  -14.5830   -6.6230 N.3   152  ASN152     -0.1225
     91  CA        32.5500  -15.6600   -7.2700 C.3   152  ASN152      0.1785
     92  C         33.3740  -16.9380   -7.3440 C.2   152  ASN152      0.2597
     93  O         32.8000  -18.0280   -7.3980 O.2   152  ASN152     -0.2718
     94  CB        32.0190  -15.2320   -8.6420 C.3   152  ASN152      0.1169
     95  CG        33.0960  -14.9610   -9.6740 C.2   152  ASN152      0.2627
     96  OD1       34.0080  -15.7700   -9.8910 O.2   152  ASN152     -0.2716
     97  ND2       32.9620  -13.8320  -10.3620 N.am  152  ASN152     -0.0877
     98  N         34.7050  -16.8330   -7.2730 N.am  153  THR153     -0.1953
     99  CA        35.5360  -18.0210   -7.1200 C.3   153  THR153      0.1897
    100  C         35.2140  -18.7640   -5.8260 C.2   153  THR153      0.2313
    101  O         35.1250  -19.9980   -5.8140 O.2   153  THR153     -0.2863
    102  CB        37.0110  -17.6100   -7.1910 C.3   153  THR153      0.1794
    103  OG1       37.3700  -17.3860   -8.5660 O.3   153  THR153     -0.2208
    104  CG2       37.9260  -18.6490   -6.5950 C.3   153  THR153      0.0378
    105  N         31.9730  -20.6390   -6.3730 N.3   156  LEU156     -0.1245
    106  CA        32.1310  -21.8340   -7.1950 C.3   156  LEU156      0.1561
    107  C         32.8080  -22.9570   -6.4150 C.2   156  LEU156      0.2260
    108  O         32.4680  -24.1330   -6.5910 O.2   156  LEU156     -0.2867
    109  CB        32.9360  -21.5330   -8.4640 C.3   156  LEU156      0.0270
    110  CG        32.4020  -20.5020   -9.4480 C.3   156  LEU156      0.0019
    111  CD1       33.0540  -20.6350  -10.8140 C.3   156  LEU156      0.0001
    112  CD2       30.9060  -20.5690   -9.5660 C.3   156  LEU156      0.0001
    113  N         34.3280  -26.9250  -20.5940 N.3   174  LYS174     -0.1245
    114  CA        35.4420  -26.0130  -20.8410 C.3   174  LYS174      0.1561
    115  C         36.3260  -26.5170  -21.9760 C.2   174  LYS174      0.2260
    116  O         36.6690  -25.7640  -22.8930 O.2   174  LYS174     -0.2867
    117  CB        36.2530  -25.8510  -19.5550 C.3   174  LYS174      0.0271
    118  CG        37.5200  -25.0320  -19.6980 C.3   174  LYS174      0.0035
    119  CD        38.2540  -24.9380  -18.3680 C.3   174  LYS174      0.0206
    120  CE        39.5050  -24.0800  -18.4710 C.3   174  LYS174      0.1093
    121  NZ        40.4790  -24.6090  -19.4520 N.3   174  LYS174     -0.1314
    122  N         36.8590  -25.0010  -25.9280 N.3   178  GLU178     -0.1245
    123  CA        38.1560  -24.7710  -26.5590 C.3   178  GLU178      0.1567
    124  C         38.2890  -25.5340  -27.8720 C.2   178  GLU178      0.2260
    125  O         38.7890  -24.9910  -28.8650 O.2   178  GLU178     -0.2867
    126  CB        39.2710  -25.1510  -25.5790 C.3   178  GLU178      0.0388
    127  CG        39.4250  -24.1250  -24.4560 C.3   178  GLU178      0.1160
    128  CD        40.1120  -24.6790  -23.2260 C.2   178  GLU178      0.3649
    129  OE1       40.6570  -25.7970  -23.3050 O.co2 178  GLU178     -0.2457
    130  OE2       40.0790  -24.0030  -22.1680 O.co2 178  GLU178     -0.2457
    131  N         32.8670  -17.6010  -22.7970 N.3   187  SER187     -0.1202
    132  CA        33.9970  -17.7900  -21.8640 C.3   187  SER187      0.2020
    133  C         33.7940  -19.0040  -20.9720 C.2   187  SER187      0.2619
    134  O         32.6740  -19.4220  -20.7730 O.2   187  SER187     -0.2717
    135  CB        34.1800  -16.5890  -21.0170 C.3   187  SER187      0.2103
    136  OG        33.1390  -16.5040  -20.0800 O.3   187  SER187     -0.2182
    137  N         34.8890  -19.5350  -20.4640 N.am  188  THR188     -0.1938
    138  CA        34.8380  -20.5880  -19.4620 C.3   188  THR188      0.2028
    139  C         33.8860  -20.2430  -18.3390 C.2   188  THR188      0.2642
    140  O         33.1320  -21.1030  -17.8670 O.2   188  THR188     -0.2714
    141  CB        36.2300  -20.8150  -18.8810 C.3   188  THR188      0.1808
    142  OG1       37.0720  -21.3150  -19.9130 O.3   188  THR188     -0.2208
    143  CG2       36.1730  -21.7940  -17.7030 C.3   188  THR188      0.0379
    144  N         33.9480  -19.0050  -17.8790 N.am  189  TYR189     -0.1973
    145  CA        33.1150  -18.5520  -16.7430 C.3   189  TYR189      0.1639
    146  C         31.6470  -18.5870  -17.1440 C.2   189  TYR189      0.2290
    147  O         30.8680  -19.0900  -16.4050 O.2   189  TYR189     -0.2864
    148  CB        33.5250  -17.1720  -16.2500 C.3   189  TYR189      0.0560
    149  CG        32.7590  -16.7450  -15.0280 C.ar  189  TYR189     -0.0198
    150  CD1       32.8080  -17.4900  -13.8720 C.ar  189  TYR189     -0.0009
    151  CD2       31.9510  -15.6290  -15.0410 C.ar  189  TYR189     -0.0009
    152  CE1       32.1050  -17.1140  -12.7450 C.ar  189  TYR189      0.0417
    153  CE2       31.2280  -15.2470  -13.9300 C.ar  189  TYR189      0.0417
    154  CZ        31.3090  -15.9870  -12.7720 C.ar  189  TYR189      0.1957
    155  OH        30.6020  -15.6160  -11.6730 O.3   189  TYR189     -0.2866
    156  N         30.4360  -22.0660  -17.1070 N.3   192  THR192     -0.1218
    157  CA        30.3530  -22.5530  -15.7360 C.3   192  THR192      0.1862
    158  C         29.0240  -22.1560  -15.1040 C.2   192  THR192      0.2287
    159  O         28.3610  -22.9740  -14.4530 O.2   192  THR192     -0.2866
    160  CB        31.5330  -22.0110  -14.9240 C.3   192  THR192      0.1770
    161  OG1       32.7580  -22.5900  -15.4030 O.3   192  THR192     -0.2211
    162  CG2       31.3720  -22.3270  -13.4580 C.3   192  THR192      0.0375
    163  N         25.3210  -13.0020  -14.0940 N.3   312  ASP312     -0.1239
    164  CA        26.1960  -13.3190  -12.9710 C.3   312  ASP312      0.1674
    165  C         25.3850  -13.3490  -11.6810 C.2   312  ASP312      0.2266
    166  O         24.5830  -12.4420  -11.4440 O.2   312  ASP312     -0.2867
    167  CB        27.2970  -12.2680  -12.8780 C.3   312  ASP312      0.1410
    168  CG        28.3980  -12.6700  -11.9380 C.2   312  ASP312      0.3668
    169  OD1       28.2060  -12.5360  -10.7170 O.co2 312  ASP312     -0.2456
    170  OD2       29.4490  -13.1450  -12.4310 O.co2 312  ASP312     -0.2456
    171  N         25.4550   -7.8160  -14.4420 N.3   318  HIS318     -0.1241
    172  CA        26.4100   -8.2820  -15.4650 C.3   318  HIS318      0.1621
    173  C         25.8210   -9.4030  -16.3220 C.2   318  HIS318      0.2264
    174  O         25.6420  -10.4780  -15.8020 O.2   318  HIS318     -0.2867
    175  CB        27.7050   -8.7730  -14.8350 C.3   318  HIS318      0.0745
    176  CG        28.7620   -9.0280  -15.8400 C.ar  318  HIS318      0.0817
    177  ND1       28.7530   -8.4310  -17.0630 N.ar  318  HIS318     -0.2268
    178  CD2       29.8700   -9.7840  -15.8030 C.ar  318  HIS318      0.1154
    179  CE1       29.8030   -8.8190  -17.7400 C.ar  318  HIS318      0.1986
    180  NE2       30.4930   -9.6360  -16.9950 N.ar  318  HIS318     -0.2212
    181  N         27.0380  -11.8320  -18.5880 N.3   320  VAL320     -0.1245
    182  CA        28.4110  -12.3200  -18.9240 C.3   320  VAL320      0.1561
    183  C         28.5470  -12.6350  -20.4210 C.2   320  VAL320      0.2260
    184  O         29.6410  -12.6070  -20.8850 O.2   320  VAL320     -0.2867
    185  CB        28.8760  -13.4860  -18.0330 C.3   320  VAL320      0.0252
    186  CG1       28.8320  -13.1260  -16.5660 C.3   320  VAL320      0.0019
    187  CG2       28.1040  -14.7540  -18.2890 C.3   320  VAL320      0.0019
@<TRIPOS>BOND
     1   125   124    2
     2   124   123    1
     3   123   122    1
     4   123   126    1
     5   126   127    1
     6   127   128    1
     7   129   128   ar
     8   128   130   ar
     9   116   115    2
    10   131   132    1
    11   115   114    1
    12   132   135    1
    13   132   133    1
    14   135   136    1
    15   133   134    2
    16   133   137   am
    17   184   183    2
    18   114   113    1
    19   114   117    1
    20   137   138    1
    21   183   182    1
    22    59    60    1
    23   142   141    1
    24   118   117    1
    25   118   119    1
    26   138   141    1
    27   138   139    1
    28   121   120    1
    29    63    60    1
    30    63    64    1
    31    60    61    1
    32    50    48   ar
    33    49    48   ar
    34   182   181    1
    35   182   185    1
    36   141   143    1
    37   120   119    1
    38    48    47    1
    39   139   144   am
    40   139   140    2
    41   187   185    1
    42    64    65    1
    43   185   186    1
    44    65    66    1
    45   144   145    1
    46    61    62    2
    47    37    38    1
    48   179   177   ar
    49   179   180   ar
    50    76    75   ar
    51    77    75   ar
    52    38    39    1
    53    38    41    1
    54    75    74    1
    55   146   145    1
    56   146   147    2
    57    43    39   am
    58    43    44    1
    59   156   157    1
    60    47    44    1
    61   177   176   ar
    62   180   178   ar
    63    39    40    2
    64    42    41    1
    65   145   148    1
    66    66    67    2
    67    44    45    1
    68   173   174    2
    69   173   172    1
    70   148   149    1
    71    69    67    1
    72    74    71    1
    73   176   178   ar
    74   176   175    1
    75   157   158    1
    76   157   160    1
    77    67    68    1
    78    32    31    2
    79   172   175    1
    80   172   171    1
    81   161   160    1
    82    71    70    1
    83    71    72    1
    84   158   159    2
    85   151   149   ar
    86   151   153   ar
    87   149   150   ar
    88    45    46    2
    89   160   162    1
    90    21    20    1
    91    57    56   ar
    92    20    17    1
    93    36    34    1
    94    31    30    1
    95   163   164    1
    96    72    73    2
    97   153   154   ar
    98   150   152   ar
    99    58    56   ar
   100    34    33    1
   101    33    30    1
   102    33    35    1
   103    56    55    1
   104    30    29    1
   105   164   167    1
   106   164   165    1
   107    17    16    1
   108    17    18    1
   109   167   168    1
   110   154   152   ar
   111   154   155    1
   112    16    14   am
   113   170   168   ar
   114    55    52    1
   115    51    52    1
   116    18    19    2
   117    52    53    1
   118   168   169   ar
   119   165   166    2
   120    14    13    1
   121    14    15    2
   122    13    12    1
   123    10    11   ar
   124    10     8   ar
   125    11     9   ar
   126   111   110    1
   127    53    54    2
   128    27    26    1
   129    97    95   am
   130     4     3    2
   131     8     6   ar
   132    12     3   am
   133     9     7   ar
   134    96    95    2
   135    95    94    1
   136     3     2    1
   137   112   110    1
   138   110   109    1
   139    87    86    1
   140    87    88    1
   141    26    28    1
   142    26    23    1
   143     6     7   ar
   144     6     5    1
   145    86    80   am
   146    82    83    1
   147    82    79    1
   148    94    91    1
   149    83    84    1
   150   103   102    1
   151    24    23    1
   152    24    25    2
   153   109   106    1
   154    22    23    1
   155    80    79    1
   156    80    81    2
   157    88    89    2
   158     2     5    1
   159     2     1    1
   160    79    78    1
   161    85    84    1
   162    93    92    2
   163    92    98   am
   164    92    91    1
   165    98    99    1
   166    91    90    1
   167   106   107    1
   168   106   105    1
   169   102    99    1
   170   102   104    1
   171    99   100    1
   172   108   107    2
   173   100   101    2
