@<TRIPOS>MOLECULE
tmp/6i0xB00.pdb
 144 137 0 0 0
SMALL
GASTEIGER

@<TRIPOS>ATOM
      1  N        -31.3110  -35.0690   -3.9440 N.3    84  TRP84      -0.1241
      2  CA       -31.8310  -35.1700   -2.5720 C.3    84  TRP84       0.1605
      3  C        -31.5930  -33.8620   -1.8120 C.2    84  TRP84       0.2264
      4  O        -30.9080  -33.8260   -0.7790 O.2    84  TRP84      -0.2867
      5  CB       -31.2330  -36.3980   -1.8490 C.3    84  TRP84       0.0550
      6  CG       -31.6910  -37.6680   -2.4810 C.ar   84  TRP84       0.0003
      7  CD1      -32.9770  -38.1280   -2.5420 C.ar   84  TRP84       0.0946
      8  CD2      -30.8920  -38.6000   -3.2100 C.ar   84  TRP84       0.0152
      9  NE1      -33.0340  -39.2680   -3.3040 N.ar   84  TRP84      -0.2442
     10  CE2      -31.7670  -39.5860   -3.7270 C.ar   84  TRP84       0.0810
     11  CE3      -29.5070  -38.7330   -3.4400 C.ar   84  TRP84       0.0012
     12  CZ2      -31.3150  -40.6560   -4.5120 C.ar   84  TRP84       0.0191
     13  CZ3      -29.0660  -39.7760   -4.2500 C.ar   84  TRP84       0.0001
     14  CH2      -29.9580  -40.7520   -4.7320 C.ar   84  TRP84       0.0015
     15  N        -33.4240  -32.3830    0.1340 N.3    86  ARG86      -0.1231
     16  CA       -33.8290  -32.5100    1.5360 C.3    86  ARG86       0.1694
     17  C        -32.6520  -32.7300    2.4510 C.2    86  ARG86       0.2592
     18  O        -32.6890  -32.3100    3.6110 O.2    86  ARG86      -0.2718
     19  CB       -34.7610  -33.7400    1.6860 C.3    86  ARG86       0.0321
     20  CG       -35.1170  -34.1530    3.1360 C.3    86  ARG86       0.0489
     21  CD       -35.8060  -33.0140    3.9230 C.3    86  ARG86       0.2205
     22  NE       -36.9450  -32.4740    3.1850 N.pl3  86  ARG86      -0.0865
     23  CZ       -37.5810  -31.3530    3.5040 C.cat  86  ARG86       0.5346
     24  NH1      -37.2360  -30.6740    4.5970 N.pl3  86  ARG86       0.1354
     25  NH2      -38.5890  -30.9190    2.7550 N.pl3  86  ARG86       0.1354
     26  N        -31.6410  -33.4530    1.9700 N.am   87  ASP87      -0.1974
     27  CA       -30.5930  -33.9860    2.8260 C.3    87  ASP87       0.1709
     28  C        -29.3410  -33.1640    2.9640 C.2    87  ASP87       0.2293
     29  O        -28.7300  -33.1800    4.0410 O.2    87  ASP87      -0.2864
     30  CB       -30.2180  -35.3790    2.2930 C.3    87  ASP87       0.1436
     31  CG       -31.3710  -36.3820    2.3450 C.2    87  ASP87       0.3671
     32  OD1      -32.3430  -36.1320    3.0830 O.co2  87  ASP87      -0.2456
     33  OD2      -31.2970  -37.4130    1.6350 O.co2  87  ASP87      -0.2456
     34  N        -22.4990  -33.1830    5.4740 N.3   107  TYR107     -0.1241
     35  CA       -23.4570  -34.0930    4.8630 C.3   107  TYR107      0.1605
     36  C        -22.9590  -35.5380    5.0570 C.2   107  TYR107      0.2264
     37  O        -21.7790  -35.8320    4.8100 O.2   107  TYR107     -0.2867
     38  CB       -23.6100  -33.7270    3.3800 C.3   107  TYR107      0.0534
     39  CG       -24.5490  -34.5750    2.5440 C.ar  107  TYR107     -0.0201
     40  CD1      -25.6830  -35.1690    3.1030 C.ar  107  TYR107     -0.0009
     41  CD2      -24.3840  -34.6680    1.1680 C.ar  107  TYR107     -0.0009
     42  CE1      -26.5600  -35.9250    2.3270 C.ar  107  TYR107      0.0417
     43  CE2      -25.2670  -35.3920    0.3780 C.ar  107  TYR107      0.0417
     44  CZ       -26.3670  -35.9980    0.9500 C.ar  107  TYR107      0.1957
     45  OH       -27.2360  -36.6640    0.1170 O.3   107  TYR107     -0.2866
     46  N        -23.0180  -38.2060    3.4600 N.3   109  ARG109     -0.1245
     47  CA       -22.7990  -38.9750    2.2400 C.3   109  ARG109      0.1563
     48  C        -21.5340  -38.4860    1.5590 C.2   109  ARG109      0.2260
     49  O        -21.2270  -37.2960    1.6560 O.2   109  ARG109     -0.2867
     50  CB       -23.9930  -38.8230    1.2750 C.3   109  ARG109      0.0307
     51  CG       -25.2940  -39.3950    1.7890 C.3   109  ARG109      0.0489
     52  CD       -25.2990  -40.9000    1.6040 C.3   109  ARG109      0.2205
     53  NE       -26.5830  -41.4650    1.9690 N.pl3 109  ARG109     -0.0865
     54  CZ       -26.8910  -41.8850    3.1910 C.cat 109  ARG109      0.5346
     55  NH1      -26.0110  -41.7820    4.1800 N.pl3 109  ARG109      0.1354
     56  NH2      -28.0830  -42.4020    3.4350 N.pl3 109  ARG109      0.1354
     57  N        -20.5500  -36.9830   -1.0360 N.3   111  ARG111     -0.1245
     58  CA       -21.0390  -36.1490   -2.1470 C.3   111  ARG111      0.1563
     59  C        -20.5050  -34.7240   -1.9380 C.2   111  ARG111      0.2260
     60  O        -21.1710  -33.8930   -1.3130 O.2   111  ARG111     -0.2867
     61  CB       -22.5850  -36.1990   -2.1880 C.3   111  ARG111      0.0307
     62  CG       -23.0980  -37.5900   -2.5550 C.3   111  ARG111      0.0489
     63  CD       -24.6030  -37.7030   -2.5220 C.3   111  ARG111      0.2205
     64  NE       -24.9920  -39.0680   -2.8730 N.pl3 111  ARG111     -0.0865
     65  CZ       -25.9670  -39.7630   -2.2950 C.cat 111  ARG111      0.5346
     66  NH1      -26.7440  -39.1980   -1.3760 N.pl3 111  ARG111      0.1354
     67  NH2      -26.1910  -41.0160   -2.6530 N.pl3 111  ARG111      0.1354
     68  N        -32.9620  -35.3410    5.8830 N.3   139  GLY139     -0.1225
     69  CA       -33.9980  -36.3690    5.8820 C.3   139  GLY139      0.1811
     70  C        -34.2090  -36.9600    7.2560 C.2   139  GLY139      0.2280
     71  O        -35.3120  -37.4070    7.5760 O.2   139  GLY139     -0.2866
     72  N        -31.6780  -49.4630    5.4320 N.3   190  TYR190     -0.1227
     73  CA       -30.3090  -48.9650    5.5320 C.3   190  TYR190      0.1736
     74  C        -30.2420  -47.4970    5.9120 C.2   190  TYR190      0.2595
     75  O        -29.1980  -47.0370    6.3730 O.2   190  TYR190     -0.2718
     76  CB       -29.6140  -49.1120    4.1410 C.3   190  TYR190      0.0548
     77  CG       -29.9470  -48.0220    3.1330 C.ar  190  TYR190     -0.0200
     78  CD1      -31.1460  -48.0410    2.4230 C.ar  190  TYR190     -0.0009
     79  CD2      -29.0790  -46.9530    2.9170 C.ar  190  TYR190     -0.0009
     80  CE1      -31.4660  -47.0310    1.5070 C.ar  190  TYR190      0.0417
     81  CE2      -29.3620  -45.9750    1.9580 C.ar  190  TYR190      0.0417
     82  CZ       -30.5820  -45.9880    1.2990 C.ar  190  TYR190      0.1957
     83  OH       -30.8940  -45.0330    0.3380 O.3   190  TYR190     -0.2866
     84  N        -31.2860  -46.7340    5.5650 N.am  191  ILE191     -0.1980
     85  CA       -31.1800  -45.2760    5.5360 C.3   191  ILE191      0.1595
     86  C        -31.3420  -44.5940    6.9100 C.2   191  ILE191      0.2287
     87  O        -30.6580  -43.5840    7.1520 O.2   191  ILE191     -0.2864
     88  CB       -32.1260  -44.6840    4.4720 C.3   191  ILE191      0.0276
     89  CG1      -31.6530  -43.2700    4.0610 C.3   191  ILE191      0.0022
     90  CG2      -33.6170  -44.7460    4.8490 C.3   191  ILE191      0.0022
     91  CD1      -32.2690  -42.7190    2.8670 C.3   191  ILE191      0.0001
     92  N        -33.6770  -42.6460    8.3140 N.3   193  HIS193     -0.1241
     93  CA       -34.1780  -41.2670    8.2540 C.3   193  HIS193      0.1621
     94  C        -35.5550  -41.1920    8.8450 C.2   193  HIS193      0.2264
     95  O        -36.4390  -41.9390    8.4150 O.2   193  HIS193     -0.2867
     96  CB       -34.2630  -40.7350    6.8070 C.3   193  HIS193      0.0745
     97  CG       -32.9660  -40.3710    6.1580 C.ar  193  HIS193      0.0817
     98  ND1      -32.9530  -39.6880    4.9560 N.ar  193  HIS193     -0.2268
     99  CD2      -31.6920  -40.6140    6.5410 C.ar  193  HIS193      0.1154
    100  CE1      -31.6800  -39.5810    4.6190 C.ar  193  HIS193      0.1986
    101  NE2      -30.8820  -40.0780    5.5650 N.ar  193  HIS193     -0.2212
    102  N        -37.9360  -39.1470    8.2050 N.3   195  ASP195     -0.1225
    103  CA       -39.0140  -38.8210    7.2610 C.3   195  ASP195      0.1805
    104  C        -39.6440  -40.0510    6.5510 C.2   195  ASP195      0.2598
    105  O        -40.7390  -39.9240    5.9990 O.2   195  ASP195     -0.2718
    106  CB       -38.5910  -37.7640    6.2360 C.3   195  ASP195      0.1424
    107  CG       -37.4700  -38.0790    5.2590 C.2   195  ASP195      0.3668
    108  OD1      -36.9450  -39.2120    5.2990 O.co2 195  ASP195     -0.2456
    109  OD2      -37.1080  -37.1670    4.4540 O.co2 195  ASP195     -0.2456
    110  N        -39.0140  -41.2320    6.6380 N.am  196  CYS196     -0.1970
    111  CA       -39.5930  -42.4560    6.0730 C.3   196  CYS196      0.1712
    112  C        -40.6350  -43.1050    7.0250 C.2   196  CYS196      0.2296
    113  O        -41.2840  -44.0800    6.6440 O.2   196  CYS196     -0.2864
    114  CB       -38.4860  -43.4300    5.7050 C.3   196  CYS196      0.0983
    115  SG       -37.3470  -42.7740    4.4670 S.3   196  CYS196     -0.0798
    116  N        -39.8710  -44.4180   -3.5450 N.3   301  LEU301     -0.1245
    117  CA       -39.4430  -45.6470   -2.8530 C.3   301  LEU301      0.1561
    118  C        -39.7910  -45.4950   -1.4030 C.2   301  LEU301      0.2260
    119  O        -39.9820  -44.3550   -0.9630 O.2   301  LEU301     -0.2867
    120  CB       -37.9190  -45.8690   -3.0070 C.3   301  LEU301      0.0270
    121  CG       -37.3050  -45.7320   -4.4260 C.3   301  LEU301      0.0019
    122  CD1      -35.7980  -45.8050   -4.3560 C.3   301  LEU301      0.0001
    123  CD2      -37.8040  -46.8360   -5.3950 C.3   301  LEU301      0.0001
    124  N        -37.8550  -45.7420    1.0410 N.3   303  THR303     -0.1203
    125  CA       -36.6990  -45.0800    1.6560 C.3   303  THR303      0.1994
    126  C        -36.3800  -43.7340    0.9680 C.2   303  THR303      0.2617
    127  O        -35.3310  -43.1690    1.2400 O.2   303  THR303     -0.2717
    128  CB       -35.4650  -45.9770    1.5130 C.3   303  THR303      0.1784
    129  OG1      -35.3670  -46.4050    0.1590 O.3   303  THR303     -0.2211
    130  CG2      -35.4790  -47.1790    2.4380 C.3   303  THR303      0.0376
    131  N        -37.2050  -43.2730    0.0140 N.am  304  ASP304     -0.1973
    132  CA       -36.8590  -42.0960   -0.7770 C.3   304  ASP304      0.1709
    133  C        -38.0530  -41.6660   -1.5910 C.2   304  ASP304      0.2293
    134  O        -38.2990  -42.2400   -2.6640 O.2   304  ASP304     -0.2864
    135  CB       -35.6670  -42.4390   -1.7210 C.3   304  ASP304      0.1436
    136  CG       -35.3120  -41.3930   -2.7560 C.2   304  ASP304      0.3671
    137  OD1      -35.7790  -40.2540   -2.6230 O.co2 304  ASP304     -0.2456
    138  OD2      -34.5300  -41.7090   -3.6600 O.co2 304  ASP304     -0.2456
    139  N        -37.9830  -36.3060    0.4000 N.3   308  CYS308     -0.1235
    140  CA       -36.5580  -36.5370    0.2450 C.3   308  CYS308      0.1677
    141  C        -35.9530  -35.7640   -0.9070 C.2   308  CYS308      0.2270
    142  O        -34.7260  -35.6230   -0.9660 O.2   308  CYS308     -0.2867
    143  CB       -36.3180  -38.0320   -0.0160 C.3   308  CYS308      0.0956
    144  SG       -37.1020  -39.0570    1.2920 S.3   308  CYS308     -0.0801
@<TRIPOS>BOND
     1   123   121    1
     2    14    12   ar
     3    14    13   ar
     4    12    10   ar
     5   121   122    1
     6   121   120    1
     7    13    11   ar
     8     1     2    1
     9    10     9   ar
    10    10     8   ar
    11   138   136   ar
    12   116   117    1
    13    11     8   ar
    14     9     7   ar
    15     8     6   ar
    16   120   117    1
    17    64    63    1
    18    64    65    2
    19   117   118    1
    20   136   137   ar
    21   136   135    1
    22   134   133    2
    23    67    65    1
    24     2     5    1
    25     2     3    1
    26    62    63    1
    27    62    61    1
    28     7     6   ar
    29     6     5    1
    30    65    66    1
    31    61    58    1
    32    58    59    1
    33    58    57    1
    34    59    60    2
    35     3     4    2
    36   135   132    1
    37   133   132    1
    38   118   119    2
    39   142   141    2
    40   141   140    1
    41   132   131    1
    42   143   140    1
    43   143   144    1
    44   131   126   am
    45    45    44    1
    46    15    16    1
    47   129   128    1
    48   140   139    1
    49    83    82    1
    50    43    44   ar
    51    43    41   ar
    52    44    42   ar
    53   126   127    2
    54   126   125    1
    55   124   125    1
    56    41    39   ar
    57    50    51    1
    58    50    47    1
    59    82    80   ar
    60    82    81   ar
    61    80    78   ar
    62   128   125    1
    63   128   130    1
    64    16    19    1
    65    16    17    1
    66    48    49    2
    67    48    47    1
    68    52    51    1
    69    52    53    1
    70    33    31   ar
    71    19    20    1
    72    81    79   ar
    73    53    54    2
    74    26    17   am
    75    26    27    1
    76    47    46    1
    77    30    31    1
    78    30    27    1
    79    42    40   ar
    80    31    32   ar
    81    78    77   ar
    82    17    18    2
    83    39    40   ar
    84    39    38    1
    85    25    23    1
    86    27    28    1
    87    91    89    1
    88    79    77   ar
    89    28    29    2
    90    77    76    1
    91    20    21    1
    92    22    23    2
    93    22    21    1
    94    54    56    1
    95    54    55    1
    96    38    35    1
    97    23    24    1
    98    89    88    1
    99    76    73    1
   100   109   107   ar
   101   115   114    1
   102    88    90    1
   103    88    85    1
   104   100    98   ar
   105   100   101   ar
   106    37    36    2
   107    35    36    1
   108    35    34    1
   109    98    97   ar
   110   107   108   ar
   111   107   106    1
   112    72    73    1
   113    73    74    1
   114    85    84    1
   115    85    86    1
   116    84    74   am
   117   101    99   ar
   118   114   111    1
   119    69    68    1
   120    69    70    1
   121    74    75    2
   122   105   104    2
   123   111   110    1
   124   111   112    1
   125    97    99   ar
   126    97    96    1
   127   106   103    1
   128   104   110   am
   129   104   103    1
   130   113   112    2
   131    96    93    1
   132    86    87    2
   133    70    71    2
   134   103   102    1
   135    93    92    1
   136    93    94    1
   137    95    94    2
