@<TRIPOS>MOLECULE
tmp/6i30A00.pdb
 133 125 0 0 0
SMALL
GASTEIGER

@<TRIPOS>ATOM
      1  N         -6.0930    8.6880  -16.3560 N.3    61  SER61      -0.1217
      2  CA        -5.7410    7.9650  -17.5740 C.3    61  SER61       0.1889
      3  C         -5.4330    6.4920  -17.3110 C.2    61  SER61       0.2288
      4  O         -5.1920    5.7820  -18.2220 O.2    61  SER61      -0.2866
      5  CB        -4.5430    8.6180  -18.2540 C.3    61  SER61       0.2089
      6  OG        -4.9340    9.8940  -18.6780 O.3    61  SER61      -0.2183
      7  N         -7.5530    4.2320  -19.2510 N.3    64  LYS64      -0.1245
      8  CA        -7.1750    3.7190  -20.5670 C.3    64  LYS64       0.1561
      9  C         -6.9200    2.2160  -20.5450 C.2    64  LYS64       0.2260
     10  O         -7.0490    1.5500  -21.5790 O.2    64  LYS64      -0.2867
     11  CB        -5.9290    4.4510  -21.0810 C.3    64  LYS64       0.0271
     12  CG        -6.1480    5.9260  -21.4220 C.3    64  LYS64       0.0035
     13  CD        -4.8350    6.6490  -21.6260 C.3    64  LYS64       0.0206
     14  CE        -5.0370    8.0550  -22.1920 C.3    64  LYS64       0.1093
     15  NZ        -5.9220    8.9150  -21.3580 N.3    64  LYS64      -0.1314
     16  N         -3.0330   16.0750  -27.2710 N.3   116  LEU116     -0.1231
     17  CA        -3.2990   15.4960  -25.9580 C.3   116  LEU116      0.1693
     18  C         -4.7850   15.5510  -25.6240 C.2   116  LEU116      0.2591
     19  O         -5.3800   14.5450  -25.2210 O.2   116  LEU116     -0.2718
     20  CB        -2.4830   16.2220  -24.8900 C.3   116  LEU116      0.0284
     21  CG        -2.6790   15.7130  -23.4600 C.3   116  LEU116      0.0019
     22  CD1       -2.2200   14.2710  -23.3360 C.3   116  LEU116      0.0001
     23  CD2       -1.9300   16.5940  -22.4690 C.3   116  LEU116      0.0001
     24  N         -5.4000   16.7190  -25.7830 N.am  117  GLN117     -0.1979
     25  CA        -6.7950   16.9350  -25.4360 C.3   117  GLN117      0.1601
     26  C         -7.5860   17.3880  -26.6570 C.2   117  GLN117      0.2287
     27  O         -7.0310   17.9100  -27.6280 O.2   117  GLN117     -0.2864
     28  CB        -6.9330   17.9950  -24.3340 C.3   117  GLN117      0.0394
     29  CG        -6.1030   17.7380  -23.0800 C.3   117  GLN117      0.0908
     30  CD        -6.6350   16.5850  -22.2610 C.2   117  GLN117      0.2608
     31  OE1       -7.5920   15.9190  -22.6600 O.2   117  GLN117     -0.2717
     32  NE2       -6.0210   16.3410  -21.1060 N.am  117  GLN117     -0.0878
     33  N          1.1080   11.0670  -27.0220 N.3   148  TYR148     -0.1241
     34  CA         0.0820   10.7710  -26.0310 C.3   148  TYR148      0.1605
     35  C         -1.1620   11.6130  -26.2830 C.2   148  TYR148      0.2264
     36  O         -1.0850   12.8430  -26.3700 O.2   148  TYR148     -0.2867
     37  CB         0.6460   11.0460  -24.6350 C.3   148  TYR148      0.0534
     38  CG        -0.1370   10.4510  -23.4870 C.ar  148  TYR148     -0.0201
     39  CD1       -0.3490    9.0830  -23.3970 C.ar  148  TYR148     -0.0009
     40  CD2       -0.6300   11.2590  -22.4680 C.ar  148  TYR148     -0.0009
     41  CE1       -1.0580    8.5360  -22.3300 C.ar  148  TYR148      0.0417
     42  CE2       -1.3280   10.7240  -21.4000 C.ar  148  TYR148      0.0417
     43  CZ        -1.5370    9.3660  -21.3330 C.ar  148  TYR148      0.1957
     44  OH        -2.2310    8.8380  -20.2700 O.3   148  TYR148     -0.2866
     45  N         -5.6390   11.8130  -25.7610 N.3   150  ASN150     -0.1240
     46  CA        -6.9810   11.3520  -25.4040 C.3   150  ASN150      0.1653
     47  C         -7.8620   11.1550  -26.6260 C.2   150  ASN150      0.2266
     48  O         -8.5640   10.1300  -26.6950 O.2   150  ASN150     -0.2867
     49  CB        -7.6300   12.3310  -24.4260 C.3   150  ASN150      0.1155
     50  CG        -7.1920   12.1010  -23.0060 C.2   150  ASN150      0.2627
     51  OD1       -6.8110   10.9930  -22.6350 O.2   150  ASN150     -0.2716
     52  ND2       -7.2510   13.1420  -22.1960 N.am  150  ASN150     -0.0877
     53  N        -13.4670   15.9110  -11.3670 N.3   210  VAL210     -0.1245
     54  CA       -13.4850   15.9440  -12.8220 C.3   210  VAL210      0.1561
     55  C        -14.8870   16.2610  -13.3250 C.2   210  VAL210      0.2260
     56  O        -15.8940   15.8090  -12.7600 O.2   210  VAL210     -0.2867
     57  CB       -12.9770   14.6120  -13.3980 C.3   210  VAL210      0.0252
     58  CG1      -13.9130   13.4760  -13.0390 C.3   210  VAL210      0.0019
     59  CG2      -12.7890   14.7270  -14.9050 C.3   210  VAL210      0.0019
     60  N        -10.3600    8.9440  -19.3250 N.3   220  TYR220     -0.1241
     61  CA        -9.9710    9.2680  -17.9570 C.3   220  TYR220      0.1605
     62  C        -11.1380    9.3000  -16.9770 C.2   220  TYR220      0.2264
     63  O        -11.1080   10.0710  -16.0140 O.2   220  TYR220     -0.2867
     64  CB        -9.2780   10.6330  -17.9420 C.3   220  TYR220      0.0534
     65  CG       -10.1040   11.7390  -18.5790 C.ar  220  TYR220     -0.0201
     66  CD1      -11.0930   12.4010  -17.8620 C.ar  220  TYR220     -0.0009
     67  CD2       -9.8890   12.1190  -19.8980 C.ar  220  TYR220     -0.0009
     68  CE1      -11.8480   13.4130  -18.4410 C.ar  220  TYR220      0.0417
     69  CE2      -10.6370   13.1320  -20.4880 C.ar  220  TYR220      0.0417
     70  CZ       -11.6170   13.7760  -19.7530 C.ar  220  TYR220      0.1957
     71  OH       -12.3750   14.7840  -20.3200 O.3   220  TYR220     -0.2866
     72  N          4.4210   12.6830  -22.0940 N.3   290  ALA290     -0.1231
     73  CA         3.0040   12.9940  -22.2200 C.3   290  ALA290      0.1694
     74  C          2.7300   14.1600  -23.1570 C.2   290  ALA290      0.2591
     75  O          1.6620   14.1950  -23.7790 O.2   290  ALA290     -0.2718
     76  CB         2.4070   13.3070  -20.8420 C.3   290  ALA290      0.0304
     77  N          3.6710   15.1040  -23.2960 N.am  291  LEU291     -0.1980
     78  CA         3.4120   16.3320  -24.0370 C.3   291  LEU291      0.1596
     79  C          4.2050   16.4840  -25.3280 C.2   291  LEU291      0.2287
     80  O          3.8730   17.3650  -26.1270 O.2   291  LEU291     -0.2864
     81  CB         3.7030   17.5520  -23.1550 C.3   291  LEU291      0.0297
     82  CG         3.1030   17.4950  -21.7530 C.3   291  LEU291      0.0022
     83  CD1        3.3720   18.8050  -21.0450 C.3   291  LEU291      0.0001
     84  CD2        1.6080   17.1980  -21.7760 C.3   291  LEU291      0.0001
     85  N          0.9480    2.1850  -15.4510 N.3   313  LYS313     -0.1231
     86  CA         0.2270    3.2740  -16.0920 C.3   313  LYS313      0.1693
     87  C         -0.0170    4.3600  -15.0590 C.2   313  LYS313      0.2593
     88  O         -0.4610    4.0690  -13.9440 O.2   313  LYS313     -0.2718
     89  CB        -1.1040    2.8060  -16.6910 C.3   313  LYS313      0.0285
     90  CG        -1.8410    3.9070  -17.4640 C.3   313  LYS313      0.0035
     91  CD        -1.1140    4.2700  -18.7590 C.3   313  LYS313      0.0206
     92  CE        -1.6140    5.5710  -19.3560 C.3   313  LYS313      0.1093
     93  NZ        -1.1110    6.7540  -18.6280 N.3   313  LYS313     -0.1314
     94  N          0.2810    5.5970  -15.4330 N.am  314  THR314     -0.1939
     95  CA         0.0090    6.7540  -14.5980 C.3   314  THR314      0.2028
     96  C         -1.3900    7.2930  -14.8880 C.2   314  THR314      0.2643
     97  O         -2.0180    6.9480  -15.8910 O.2   314  THR314     -0.2714
     98  CB         1.0580    7.8430  -14.8330 C.3   314  THR314      0.1808
     99  OG1        1.2080    8.0700  -16.2410 O.3   314  THR314     -0.2208
    100  CG2        2.4100    7.4350  -14.2420 C.3   314  THR314      0.0379
    101  N         -1.8720    8.1490  -13.9850 N.am  315  GLY315     -0.1939
    102  CA        -3.1850    8.7610  -14.1000 C.3   315  GLY315      0.2014
    103  C         -3.2890   10.0710  -13.3400 C.2   315  GLY315      0.2640
    104  O         -3.0290   10.1140  -12.1340 O.2   315  GLY315     -0.2714
    105  N         -3.6810   11.1440  -14.0260 N.am  316  SER316     -0.1935
    106  CA        -3.7120   12.4780  -13.4370 C.3   316  SER316      0.2055
    107  C         -4.9680   13.2150  -13.8840 C.2   316  SER316      0.2644
    108  O         -5.2510   13.2990  -15.0810 O.2   316  SER316     -0.2714
    109  CB        -2.4650   13.2910  -13.8350 C.3   316  SER316      0.2130
    110  OG        -1.2620   12.6140  -13.4980 O.3   316  SER316     -0.2179
    111  N         -5.7200   13.7350  -12.9240 N.am  317  THR317     -0.1936
    112  CA        -6.7380   14.7400  -13.1780 C.3   317  THR317      0.2028
    113  C         -6.3050   16.0350  -12.4970 C.2   317  THR317      0.2642
    114  O         -5.1870   16.1450  -11.9810 O.2   317  THR317     -0.2714
    115  CB        -8.1040   14.2620  -12.6860 C.3   317  THR317      0.1808
    116  OG1       -8.0130   13.8940  -11.3040 O.3   317  THR317     -0.2208
    117  CG2       -8.5870   13.0610  -13.5090 C.3   317  THR317      0.0379
    118  N         -7.1900   17.0290  -12.4970 N.am  318  ASN318     -0.1971
    119  CA        -6.8380   18.2990  -11.8760 C.3   318  ASN318      0.1688
    120  C         -6.6860   18.1870  -10.3620 C.2   318  ASN318      0.2292
    121  O         -6.0550   19.0580   -9.7540 O.2   318  ASN318     -0.2864
    122  CB        -7.8790   19.3620  -12.2210 C.3   318  ASN318      0.1181
    123  CG        -7.8130   19.7900  -13.6710 C.2   318  ASN318      0.2629
    124  OD1       -6.7460   19.7920  -14.2860 O.2   318  ASN318     -0.2716
    125  ND2       -8.9570   20.1620  -14.2250 N.am  318  ASN318     -0.0877
    126  N          4.5150   12.5930  -11.2940 N.3   344  ASN344     -0.1240
    127  CA         4.6390   11.1650  -11.5560 C.3   344  ASN344      0.1653
    128  C          5.9480   10.6210  -11.0030 C.2   344  ASN344      0.2266
    129  O          5.9980    9.4890  -10.5090 O.2   344  ASN344     -0.2867
    130  CB         4.5430   10.8960  -13.0570 C.3   344  ASN344      0.1155
    131  CG         3.1650   11.1670  -13.6070 C.2   344  ASN344      0.2627
    132  OD1        2.2660   11.5830  -12.8780 O.2   344  ASN344     -0.2716
    133  ND2        2.9930   10.9440  -14.9020 N.am  344  ASN344     -0.0877
@<TRIPOS>BOND
     1    27    26    2
     2    16    17    1
     3    33    34    1
     4    48    47    2
     5    26    25    1
     6    47    46    1
     7    36    35    2
     8    35    34    1
     9    80    79    2
    10    34    37    1
    11    17    18    1
    12    17    20    1
    13    24    18   am
    14    24    25    1
    15    45    46    1
    16    18    19    2
    17    25    28    1
    18    46    49    1
    19    79    78    1
    20    20    21    1
    21    37    38    1
    22    49    50    1
    23    28    29    1
    24    78    77    1
    25    78    81    1
    26    75    74    2
    27    38    39   ar
    28    38    40   ar
    29    21    22    1
    30    21    23    1
    31    39    41   ar
    32    77    74   am
    33    74    73    1
    34    81    82    1
    35    29    30    1
    36    50    51    2
    37    50    52   am
    38    31    30    2
    39    40    42   ar
    40    41    43   ar
    41    30    32   am
    42    73    72    1
    43    73    76    1
    44    14    13    1
    45    14    15    1
    46    84    82    1
    47    82    83    1
    48    13    12    1
    49    10     9    2
    50    12    11    1
    51    42    43   ar
    52    43    44    1
    53    11     8    1
    54     8     9    1
    55     8     7    1
    56    69    67   ar
    57    69    70   ar
    58    71    70    1
    59    67    65   ar
    60    70    68   ar
    61    92    91    1
    62    92    93    1
    63    60    61    1
    64    91    90    1
    65     6     5    1
    66    65    64    1
    67    65    66   ar
    68    68    66   ar
    69     5     2    1
    70     4     3    2
    71    61    64    1
    72    61    62    1
    73     2     3    1
    74     2     1    1
    75    90    89    1
    76    62    63    2
    77    89    86    1
    78    99    98    1
    79    86    85    1
    80    86    87    1
    81    97    96    2
    82    94    87   am
    83    94    95    1
    84   108   107    2
    85    87    88    2
    86    59    57    1
    87   133   131   am
    88    96    95    1
    89    96   101   am
    90    98    95    1
    91    98   100    1
    92   124   123    2
    93   125   123   am
    94   102   101    1
    95   102   103    1
    96   105   106    1
    97   105   103   am
    98   107   106    1
    99   107   111   am
   100   109   110    1
   101   109   106    1
   102   123   122    1
   103   131   130    1
   104   131   132    2
   105   117   115    1
   106    57    58    1
   107    57    54    1
   108   103   104    2
   109    55    54    1
   110    55    56    2
   111   112   111    1
   112   112   115    1
   113   112   113    1
   114   130   127    1
   115    54    53    1
   116   115   116    1
   117   118   113   am
   118   118   119    1
   119   113   114    2
   120   122   119    1
   121   119   120    1
   122   127   126    1
   123   127   128    1
   124   128   129    2
   125   120   121    2
