@<TRIPOS>MOLECULE
tmp/6i3sA00.pdb
 169 162 0 0 0
SMALL
GASTEIGER

@<TRIPOS>ATOM
      1  N          4.2080    5.8950   -0.4520 N.3     7  GLN7       -0.1245
      2  CA         3.7320    6.0680    0.9150 C.3     7  GLN7        0.1566
      3  C          4.7790    5.7580    2.0280 C.2     7  GLN7        0.2260
      4  O          4.5980    6.2000    3.1810 O.2     7  GLN7       -0.2867
      5  CB         2.4580    5.2490    1.0910 C.3     7  GLN7        0.0367
      6  CG         1.2970    5.8650    0.3060 C.3     7  GLN7        0.0905
      7  CD        -0.0550    5.7000    0.9770 C.2     7  GLN7        0.2608
      8  OE1       -0.2140    4.9020    1.9040 O.2     7  GLN7       -0.2717
      9  NE2       -1.0430    6.4370    0.4910 N.am    7  GLN7       -0.0878
     10  N         -0.5440   11.9410    4.3290 N.3    37  LEU37      -0.1231
     11  CA        -1.8000   11.8350    3.5790 C.3    37  LEU37       0.1693
     12  C         -3.0010   11.5500    4.4890 C.2    37  LEU37       0.2592
     13  O         -4.0850   12.1330    4.3020 O.2    37  LEU37      -0.2718
     14  CB        -1.7100   10.7280    2.5130 C.3    37  LEU37       0.0284
     15  CG        -0.9400   11.1140    1.2790 C.3    37  LEU37       0.0019
     16  CD1       -0.5350    9.8060    0.5860 C.3    37  LEU37       0.0001
     17  CD2       -1.7550   12.0380    0.3600 C.3    37  LEU37       0.0001
     18  N         -2.8250   10.6530    5.4530 N.am   38  PHE38      -0.1976
     19  CA        -3.8690   10.3800    6.4140 C.3    38  PHE38       0.1639
     20  C         -4.2650   11.6300    7.2160 C.2    38  PHE38       0.2290
     21  O         -5.4470   11.9540    7.3130 O.2    38  PHE38      -0.2864
     22  CB        -3.4860    9.2510    7.3840 C.3    38  PHE38       0.0560
     23  CG        -4.4420    9.1240    8.5110 C.ar   38  PHE38      -0.0200
     24  CD1       -5.6490    8.4520    8.3490 C.ar   38  PHE38      -0.0042
     25  CD2       -4.1630    9.7230    9.7380 C.ar   38  PHE38      -0.0042
     26  CE1       -6.5340    8.3700    9.3930 C.ar   38  PHE38      -0.0003
     27  CE2       -5.0530    9.6260   10.8040 C.ar   38  PHE38      -0.0003
     28  CZ        -6.2390    8.9620   10.6210 C.ar   38  PHE38      -0.0000
     29  N         -3.6050   14.9170    6.6580 N.3    40  LEU40      -0.1231
     30  CA        -4.2230   15.9250    5.8030 C.3    40  LEU40       0.1693
     31  C         -5.6400   15.5450    5.3670 C.2    40  LEU40       0.2592
     32  O         -6.4890   16.4090    5.3590 O.2    40  LEU40      -0.2718
     33  CB        -3.3570   16.2870    4.6030 C.3    40  LEU40       0.0284
     34  CG        -2.0890   17.0740    4.8760 C.3    40  LEU40       0.0019
     35  CD1       -1.2380   17.1510    3.6130 C.3    40  LEU40       0.0001
     36  CD2       -2.3610   18.4710    5.4480 C.3    40  LEU40       0.0001
     37  N         -5.8900   14.2770    5.0290 N.am   41  GLY41      -0.1957
     38  CA        -7.2400   13.7950    4.7910 C.3    41  GLY41       0.1869
     39  C         -8.1700   14.0300    5.9810 C.2    41  GLY41       0.2309
     40  O         -9.2790   14.4920    5.8210 O.2    41  GLY41      -0.2863
     41  N         -8.9300   17.8010    6.3890 N.3    44  ILE44      -0.1231
     42  CA        -9.9530   18.1310    5.3930 C.3    44  ILE44       0.1692
     43  C        -11.3720   17.6600    5.7880 C.2    44  ILE44       0.2591
     44  O        -12.3290   18.4270    5.6460 O.2    44  ILE44      -0.2718
     45  CB        -9.5510   17.5250    4.0240 C.3    44  ILE44       0.0266
     46  CG1       -8.3440   18.2880    3.4280 C.3    44  ILE44       0.0019
     47  CG2      -10.7270   17.5200    3.0660 C.3    44  ILE44       0.0020
     48  CD1       -7.5780   17.4690    2.3880 C.3    44  ILE44       0.0001
     49  N        -11.5050   16.4220    6.2750 N.am   45  MET45      -0.1979
     50  CA       -12.8170   15.8420    6.5670 C.3    45  MET45       0.1605
     51  C        -13.3920   16.4220    7.8280 C.2    45  MET45       0.2287
     52  O        -14.5650   16.7950    7.8530 O.2    45  MET45      -0.2864
     53  CB       -12.7550   14.3170    6.7310 C.3    45  MET45       0.0413
     54  CG       -12.6940   13.5420    5.4400 C.3    45  MET45       0.0598
     55  SD       -14.0960   13.8820    4.3600 S.3    45  MET45      -0.1393
     56  CE       -15.4350   13.8810    5.5330 C.3    45  MET45       0.0692
     57  N        -14.2930   19.1330    2.1320 N.3    50  TYR50      -0.1241
     58  CA       -14.4560   18.2350    0.9870 C.3    50  TYR50       0.1605
     59  C        -15.9250   18.1190    0.6020 C.2    50  TYR50       0.2264
     60  O        -16.7580   17.7710    1.4280 O.2    50  TYR50      -0.2867
     61  CB       -13.8900   16.8670    1.3540 C.3    50  TYR50       0.0534
     62  CG       -14.0390   15.7800    0.3060 C.ar   50  TYR50      -0.0201
     63  CD1      -13.7030   16.0120   -1.0320 C.ar   50  TYR50      -0.0009
     64  CD2      -14.4010   14.4890    0.6740 C.ar   50  TYR50      -0.0009
     65  CE1      -13.7900   14.9920   -1.9760 C.ar   50  TYR50       0.0417
     66  CE2      -14.4840   13.4630   -0.2680 C.ar   50  TYR50       0.0417
     67  CZ       -14.1780   13.7230   -1.5880 C.ar   50  TYR50       0.1957
     68  OH       -14.2670   12.7010   -2.5100 O.3    50  TYR50      -0.2866
     69  N        -16.1150   15.8860   -6.1930 N.3    56  HIS56      -0.1241
     70  CA       -14.9350   15.4090   -5.4610 C.3    56  HIS56       0.1621
     71  C        -13.8650   16.4960   -5.3550 C.2    56  HIS56       0.2264
     72  O        -12.6820   16.2540   -5.5820 O.2    56  HIS56      -0.2867
     73  CB       -14.3870   14.1070   -6.0930 C.3    56  HIS56       0.0745
     74  CG       -15.3460   12.9310   -5.9980 C.ar   56  HIS56       0.0817
     75  ND1      -15.1700   11.9250   -5.1180 N.ar   56  HIS56      -0.2268
     76  CD2      -16.5290   12.6510   -6.6810 C.ar   56  HIS56       0.1154
     77  CE1      -16.1790   11.0390   -5.2390 C.ar   56  HIS56       0.1986
     78  NE2      -17.0120   11.4850   -6.1930 N.ar   56  HIS56      -0.2212
     79  N        -12.0110   19.5500   -3.0850 N.3    58  VAL58      -0.1245
     80  CA       -11.7070   20.1270   -1.7850 C.3    58  VAL58       0.1561
     81  C        -11.6330   21.6330   -2.0030 C.2    58  VAL58       0.2260
     82  O        -10.9450   22.0740   -2.9260 O.2    58  VAL58      -0.2867
     83  CB       -10.3760   19.6360   -1.2280 C.3    58  VAL58       0.0252
     84  CG1       -9.9550   20.4670   -0.0040 C.3    58  VAL58       0.0019
     85  CG2      -10.4890   18.1600   -0.8460 C.3    58  VAL58       0.0019
     86  N         -5.0220   25.4580    4.6240 N.3    65  LEU65      -0.1245
     87  CA        -4.6740   24.5070    3.5510 C.3    65  LEU65       0.1561
     88  C         -4.4730   25.1820    2.1780 C.2    65  LEU65       0.2260
     89  O         -3.5840   24.7920    1.4090 O.2    65  LEU65      -0.2867
     90  CB        -5.7030   23.3740    3.4820 C.3    65  LEU65       0.0270
     91  CG        -5.4400   22.2920    2.4190 C.3    65  LEU65       0.0019
     92  CD1       -4.1250   21.5470    2.6500 C.3    65  LEU65       0.0001
     93  CD2       -6.6220   21.3340    2.4010 C.3    65  LEU65       0.0001
     94  N         -1.0330   25.0240   -0.1250 N.3    69  PHE69      -0.1241
     95  CA        -1.0320   24.4710   -1.4720 C.3    69  PHE69       0.1605
     96  C         -1.0150   25.5050   -2.5810 C.2    69  PHE69       0.2264
     97  O         -0.6940   25.1580   -3.7200 O.2    69  PHE69      -0.2867
     98  CB        -2.2460   23.5620   -1.6500 C.3    69  PHE69       0.0534
     99  CG        -2.1070   22.1920   -1.0340 C.ar   69  PHE69      -0.0203
    100  CD1       -1.0040   21.8140   -0.2430 C.ar   69  PHE69      -0.0042
    101  CD2       -3.0880   21.2510   -1.2800 C.ar   69  PHE69      -0.0042
    102  CE1       -0.9410   20.5450    0.2930 C.ar   69  PHE69      -0.0003
    103  CE2       -3.0080   19.9630   -0.7530 C.ar   69  PHE69      -0.0003
    104  CZ        -1.9350   19.6170    0.0400 C.ar   69  PHE69      -0.0000
    105  N         -9.0500   22.0420   -5.2300 N.3    74  PHE74      -0.1241
    106  CA        -8.4630   21.0000   -6.0700 C.3    74  PHE74       0.1605
    107  C         -9.3280   19.7350   -6.0260 C.2    74  PHE74       0.2264
    108  O        -10.1760   19.5620   -5.1320 O.2    74  PHE74      -0.2867
    109  CB        -7.0210   20.7060   -5.6150 C.3    74  PHE74       0.0534
    110  CG        -6.9260   20.1800   -4.2230 C.ar   74  PHE74      -0.0203
    111  CD1       -6.9910   18.8200   -3.9790 C.ar   74  PHE74      -0.0042
    112  CD2       -6.7750   21.0410   -3.1410 C.ar   74  PHE74      -0.0042
    113  CE1       -6.9090   18.3210   -2.6850 C.ar   74  PHE74      -0.0003
    114  CE2       -6.6980   20.5600   -1.8470 C.ar   74  PHE74      -0.0003
    115  CZ        -6.7560   19.1970   -1.6090 C.ar   74  PHE74      -0.0000
    116  N         -9.7710   15.7100   -5.5640 N.3    76  VAL76      -0.1231
    117  CA        -9.1070   14.6470   -4.8320 C.3    76  VAL76       0.1692
    118  C         -8.6560   13.5040   -5.7650 C.2    76  VAL76       0.2591
    119  O         -7.9010   12.6470   -5.3380 O.2    76  VAL76      -0.2718
    120  CB        -9.9880   14.0850   -3.6860 C.3    76  VAL76       0.0266
    121  CG1      -10.3430   15.2160   -2.7300 C.3    76  VAL76       0.0020
    122  CG2      -11.2110   13.3800   -4.2350 C.3    76  VAL76       0.0020
    123  N         -9.1480   13.4950   -6.9920 N.am   77  LYS77      -0.1980
    124  CA        -8.7390   12.5180   -8.0210 C.3    77  LYS77       0.1596
    125  C         -7.3460   12.7790   -8.6250 C.2    77  LYS77       0.2287
    126  O         -6.7350   11.8550   -9.1780 O.2    77  LYS77      -0.2864
    127  CB        -9.7880   12.4240   -9.1340 C.3    77  LYS77       0.0298
    128  CG       -11.2000   12.1080   -8.6480 C.3    77  LYS77       0.0038
    129  CD       -12.1330   11.7070   -9.7720 C.3    77  LYS77       0.0206
    130  CE       -13.5810   11.6990   -9.3310 C.3    77  LYS77       0.1093
    131  NZ       -14.5010   11.3020  -10.4330 N.3    77  LYS77      -0.1314
    132  N         -4.1070   12.8320   -8.0310 N.3    79  HIS79      -0.1241
    133  CA        -3.0800   12.4240   -7.0370 C.3    79  HIS79       0.1621
    134  C         -1.6830   12.9320   -7.2870 C.2    79  HIS79       0.2264
    135  O         -1.0270   13.3750   -6.3420 O.2    79  HIS79      -0.2867
    136  CB        -3.0840   10.9150   -6.8020 C.3    79  HIS79       0.0745
    137  CG        -4.2830   10.4340   -6.0220 C.ar   79  HIS79       0.0817
    138  ND1       -4.3400    9.2180   -5.4450 N.ar   79  HIS79      -0.2268
    139  CD2       -5.4580   11.0930   -5.6700 C.ar   79  HIS79       0.1154
    140  CE1       -5.5110    9.0920   -4.7860 C.ar   79  HIS79       0.1986
    141  NE2       -6.1980   10.2390   -4.9320 N.ar   79  HIS79      -0.2212
    142  N         -1.6270   16.5740   -6.1930 N.3    82  ILE82      -0.1231
    143  CA        -1.6350   16.5880   -4.7330 C.3    82  ILE82       0.1692
    144  C         -0.2630   16.2560   -4.1160 C.2    82  ILE82       0.2592
    145  O          0.2210   16.9720   -3.2350 O.2    82  ILE82      -0.2718
    146  CB        -2.7690   15.6980   -4.1620 C.3    82  ILE82       0.0266
    147  CG1       -4.1390   16.3310   -4.4810 C.3    82  ILE82       0.0019
    148  CG2       -2.5990   15.5200   -2.6530 C.3    82  ILE82       0.0020
    149  CD1       -5.2960   15.3500   -4.3730 C.3    82  ILE82       0.0001
    150  N          0.4030   15.2180   -4.6130 N.am   83  TYR83      -0.1976
    151  CA         1.7380   14.8930   -4.1060 C.3    83  TYR83       0.1639
    152  C          2.7120   16.0970   -4.3070 C.2    83  TYR83       0.2290
    153  O          3.5170   16.4100   -3.4260 O.2    83  TYR83      -0.2864
    154  CB         2.2770   13.6410   -4.7850 C.3    83  TYR83       0.0560
    155  CG         1.8540   12.3740   -4.1230 C.ar   83  TYR83      -0.0198
    156  CD1        2.2960   12.0790   -2.8320 C.ar   83  TYR83      -0.0009
    157  CD2        0.9980   11.4760   -4.7550 C.ar   83  TYR83      -0.0009
    158  CE1        1.8990   10.9230   -2.1900 C.ar   83  TYR83       0.0417
    159  CE2        0.6000   10.3030   -4.1250 C.ar   83  TYR83       0.0417
    160  CZ         1.0580   10.0370   -2.8410 C.ar   83  TYR83       0.1957
    161  OH         0.6880    8.8890   -2.2030 O.3    83  TYR83      -0.2866
    162  N          1.9970   18.8100   -1.8290 N.3    86  ILE86      -0.1245
    163  CA         2.5140   18.3870   -0.5310 C.3    86  ILE86       0.1561
    164  C          4.0450   18.4600   -0.4950 C.2    86  ILE86       0.2260
    165  O          4.6120   18.9470    0.4760 O.2    86  ILE86      -0.2867
    166  CB         2.0440   16.9700   -0.1610 C.3    86  ILE86       0.0252
    167  CG1        0.5370   16.9440    0.1100 C.3    86  ILE86       0.0019
    168  CG2        2.7700   16.4210    1.0750 C.3    86  ILE86       0.0019
    169  CD1       -0.0380   15.5340    0.1210 C.3    86  ILE86       0.0001
@<TRIPOS>BOND
     1   131   130    1
     2   129   130    1
     3   129   128    1
     4   126   125    2
     5   127   128    1
     6   127   124    1
     7   125   124    1
     8   132   133    1
     9   124   123    1
    10   134   133    1
    11   134   135    2
    12   133   136    1
    13   123   118   am
    14   136   137    1
    15    76    78   ar
    16    76    74   ar
    17    69    70    1
    18    78    77   ar
    19   142   143    1
    20    73    74    1
    21    73    70    1
    22   106   107    1
    23   106   109    1
    24   106   105    1
    25   107   108    2
    26   137   139   ar
    27   137   138   ar
    28    74    75   ar
    29   118   119    2
    30   118   117    1
    31   139   141   ar
    32   109   110    1
    33    72    71    2
    34   116   117    1
    35    70    71    1
    36   138   140   ar
    37    77    75   ar
    38   141   140   ar
    39   117   120    1
    40   154   155    1
    41   154   151    1
    42   157   159   ar
    43   157   155   ar
    44   143   146    1
    45   143   144    1
    46   150   144   am
    47   150   151    1
    48   147   149    1
    49   147   146    1
    50   152   151    1
    51   152   153    2
    52   122   120    1
    53   110   111   ar
    54   110   112   ar
    55   146   148    1
    56   159   160   ar
    57   155   156   ar
    58   144   145    2
    59   111   113   ar
    60    97    96    2
    61   120   121    1
    62   112   114   ar
    63    79    80    1
    64    82    81    2
    65   160   161    1
    66   160   158   ar
    67   156   158   ar
    68   113   115   ar
    69    96    95    1
    70    68    67    1
    71    81    80    1
    72    65    67   ar
    73    65    63   ar
    74   114   115   ar
    75   162   163    1
    76    80    83    1
    77    98    95    1
    78    98    99    1
    79    67    66   ar
    80    95    94    1
    81   101    99   ar
    82   101   103   ar
    83    83    85    1
    84    83    84    1
    85    99   100   ar
    86    63    62   ar
    87   103   104   ar
    88   163   164    1
    89   163   166    1
    90   164   165    2
    91     1     2    1
    92    66    64   ar
    93   100   102   ar
    94   166   167    1
    95   166   168    1
    96   104   102   ar
    97   167   169    1
    98     6     7    1
    99     6     5    1
   100    62    64   ar
   101    62    61    1
   102    17    15    1
   103     9     7   am
   104    16    15    1
   105    59    58    1
   106    59    60    2
   107     2     5    1
   108     2     3    1
   109     7     8    2
   110    58    61    1
   111    58    57    1
   112    15    14    1
   113    89    88    2
   114     3     4    2
   115    88    87    1
   116    48    46    1
   117    93    91    1
   118    91    92    1
   119    91    90    1
   120    14    11    1
   121    47    45    1
   122    46    45    1
   123    90    87    1
   124    87    86    1
   125    11    10    1
   126    11    12    1
   127    35    34    1
   128    45    42    1
   129    13    12    2
   130    55    54    1
   131    55    56    1
   132    12    18   am
   133    33    34    1
   134    33    30    1
   135    38    37    1
   136    38    39    1
   137    34    36    1
   138    37    31   am
   139    32    31    2
   140    31    30    1
   141    42    43    1
   142    42    41    1
   143    54    53    1
   144    18    19    1
   145    44    43    2
   146    43    49   am
   147    30    29    1
   148    40    39    2
   149    49    50    1
   150    19    20    1
   151    19    22    1
   152    50    53    1
   153    50    51    1
   154    20    21    2
   155    22    23    1
   156    51    52    2
   157    24    23   ar
   158    24    26   ar
   159    23    25   ar
   160    26    28   ar
   161    25    27   ar
   162    28    27   ar
