@<TRIPOS>MOLECULE
tmp/6i44A03.pdb
 108 106 0 0 0
SMALL
GASTEIGER

@<TRIPOS>ATOM
      1  N        115.5770   39.1170    0.1050 N.3     7  TYR7       -0.1227
      2  CA       116.0920   39.6910   -1.1590 C.3     7  TYR7        0.1736
      3  C        117.6000   39.5480   -1.1550 C.2     7  TYR7        0.2595
      4  O        118.2940   40.2500   -0.3880 O.2     7  TYR7       -0.2718
      5  CB       115.5890   41.1000   -1.3210 C.3     7  TYR7        0.0548
      6  CG       114.1160   41.2480   -1.0960 C.ar    7  TYR7       -0.0200
      7  CD1      113.2180   40.5490   -1.8700 C.ar    7  TYR7       -0.0009
      8  CD2      113.5990   42.0050   -0.0570 C.ar    7  TYR7       -0.0009
      9  CE1      111.8520   40.5990   -1.6620 C.ar    7  TYR7        0.0417
     10  CE2      112.2370   42.0900    0.1580 C.ar    7  TYR7        0.0417
     11  CZ       111.3520   41.3770   -0.6290 C.ar    7  TYR7        0.1957
     12  OH       109.9920   41.4120   -0.4790 O.3     7  TYR7       -0.2866
     13  N        118.1310   38.7200   -2.0650 N.am    8  GLU8       -0.1965
     14  CA       119.5800   38.5070   -2.1780 C.3     8  GLU8        0.1733
     15  C        120.2200   39.6090   -3.0030 C.2     8  GLU8        0.2616
     16  O        119.5810   40.1670   -3.9050 O.2     8  GLU8       -0.2715
     17  CB       119.8840   37.1900   -2.8980 C.3     8  GLU8        0.0429
     18  CG       119.5560   35.9640   -2.0870 C.3     8  GLU8        0.1163
     19  CD       120.2760   34.7570   -2.6730 C.2     8  GLU8        0.3649
     20  OE1      120.9030   34.0050   -1.9050 O.co2   8  GLU8       -0.2457
     21  OE2      120.2520   34.6170   -3.9240 O.co2   8  GLU8       -0.2457
     22  N        121.4070   39.9860   -2.6390 N.am    9  ASN9       -0.1958
     23  CA       122.2430   40.9560   -3.3390 C.3     9  ASN9        0.1819
     24  C        121.5060   42.2770   -3.3870 C.2     9  ASN9        0.2621
     25  O        121.5870   42.9890   -4.3940 O.2     9  ASN9       -0.2715
     26  CB       122.6700   40.4450   -4.7190 C.3     9  ASN9        0.1195
     27  CG       123.4180   39.1290   -4.6350 C.2     9  ASN9        0.2630
     28  OD1      124.3520   38.9840   -3.8600 O.2     9  ASN9       -0.2716
     29  ND2      122.9440   38.1480   -5.3770 N.am    9  ASN9       -0.0877
     30  N        120.8350   42.6570   -2.2940 N.am   10  ALA10      -0.1977
     31  CA       119.9690   43.8650   -2.3060 C.3    10  ALA10       0.1597
     32  C        120.1400   44.6980   -1.0430 C.2    10  ALA10       0.2287
     33  O        120.2200   44.0720    0.0430 O.2    10  ALA10      -0.2864
     34  CB       118.5470   43.4880   -2.4680 C.3    10  ALA10       0.0319
     35  N        118.3530   48.2480    0.7550 N.3    12  PHE12      -0.1241
     36  CA       117.3230   49.2950    0.6530 C.3    12  PHE12       0.1605
     37  C        117.9210   50.6520    0.8610 C.2    12  PHE12       0.2264
     38  O        118.7180   50.8850    1.7850 O.2    12  PHE12      -0.2867
     39  CB       116.1920   49.0910    1.6560 C.3    12  PHE12       0.0534
     40  CG       115.2780   47.9630    1.3840 C.ar   12  PHE12      -0.0203
     41  CD1      114.4660   47.9790    0.2320 C.ar   12  PHE12      -0.0042
     42  CD2      115.1110   46.8730    2.2480 C.ar   12  PHE12      -0.0042
     43  CE1      113.5700   46.9610   -0.0030 C.ar   12  PHE12      -0.0003
     44  CE2      114.2100   45.8650    1.9980 C.ar   12  PHE12      -0.0003
     45  CZ       113.4470   45.8960    0.8610 C.ar   12  PHE12      -0.0000
     46  N        111.4540   47.0490    7.4000 N.3    40  LEU40      -0.1245
     47  CA       112.3710   46.5560    6.3560 C.3    40  LEU40       0.1561
     48  C        113.7670   46.6040    6.9480 C.2    40  LEU40       0.2260
     49  O        114.0880   47.4990    7.6970 O.2    40  LEU40      -0.2867
     50  CB       112.3060   47.4600    5.1150 C.3    40  LEU40       0.0270
     51  CG       110.9560   47.4840    4.3940 C.3    40  LEU40       0.0019
     52  CD1      110.9520   48.6100    3.3340 C.3    40  LEU40       0.0001
     53  CD2      110.5930   46.1310    3.7670 C.3    40  LEU40       0.0001
     54  N        105.5740   51.0600    3.2260 N.3    66  GLY66      -0.1210
     55  CA       106.0160   49.6950    3.4110 C.3    66  GLY66       0.1956
     56  C        107.0070   49.2330    2.3470 C.2    66  GLY66       0.2613
     57  O        107.3720   48.0790    2.3520 O.2    66  GLY66      -0.2717
     58  N        107.4500   50.1570    1.5010 N.am   67  THR67      -0.1938
     59  CA       108.3540   49.8200    0.3840 C.3    67  THR67       0.2028
     60  C        109.4360   50.8860    0.3380 C.2    67  THR67       0.2642
     61  O        109.2530   52.0140    0.7490 O.2    67  THR67      -0.2714
     62  CB       107.6160   49.7110   -0.9660 C.3    67  THR67       0.1808
     63  OG1      107.1130   51.0150   -1.2140 O.3    67  THR67      -0.2208
     64  CG2      106.5160   48.6670   -1.0100 C.3    67  THR67       0.0379
     65  N        110.6010   50.5280   -0.2040 N.am   68  LEU68      -0.1977
     66  CA       111.7150   51.4540   -0.3670 C.3    68  LEU68       0.1596
     67  C        112.4220   51.1430   -1.6770 C.2    68  LEU68       0.2287
     68  O        112.3620   50.0320   -2.1210 O.2    68  LEU68      -0.2864
     69  CB       112.7220   51.2830    0.7930 C.3    68  LEU68       0.0297
     70  CG       112.2950   51.8690    2.1460 C.3    68  LEU68       0.0022
     71  CD1      113.3150   51.4310    3.2070 C.3    68  LEU68       0.0001
     72  CD2      112.2030   53.3560    2.0850 C.3    68  LEU68       0.0001
     73  N        115.5660   49.9680   -3.7690 N.3    70  LYS70      -0.1231
     74  CA       116.6720   49.0910   -3.4230 C.3    70  LYS70       0.1693
     75  C        117.6840   49.0210   -4.5380 C.2    70  LYS70       0.2592
     76  O        117.3240   49.3260   -5.6950 O.2    70  LYS70      -0.2718
     77  CB       116.2160   47.7390   -3.0070 C.3    70  LYS70       0.0285
     78  CG       115.3200   47.0770   -4.0030 C.3    70  LYS70       0.0035
     79  CD       114.9850   45.6300   -3.7080 C.3    70  LYS70       0.0206
     80  CE       113.8710   45.0480   -4.5640 C.3    70  LYS70       0.1093
     81  NZ       114.2680   45.0770   -5.9920 N.3    70  LYS70      -0.1314
     82  N        118.9130   48.8050   -4.1680 N.am   71  VAL71      -0.1966
     83  CA       120.0220   48.7380   -5.1300 C.3    71  VAL71       0.1727
     84  C        120.6190   47.3550   -5.0690 C.2    71  VAL71       0.2616
     85  O        120.6290   46.6580   -3.9890 O.2    71  VAL71      -0.2715
     86  CB       121.1050   49.8020   -4.9060 C.3    71  VAL71       0.0290
     87  CG1      120.5590   51.2030   -5.0430 C.3    71  VAL71       0.0023
     88  CG2      121.8340   49.6500   -3.5590 C.3    71  VAL71       0.0023
     89  N        121.2180   46.9710   -6.1720 N.am   72  HIS72      -0.1973
     90  CA       121.9850   45.7270   -6.2220 C.3    72  HIS72       0.1656
     91  C        123.2780   45.9550   -5.4820 C.2    72  HIS72       0.2291
     92  O        123.9880   46.9070   -5.7030 O.2    72  HIS72      -0.2864
     93  CB       122.2340   45.3190   -7.6860 C.3    72  HIS72       0.0771
     94  CG       123.1230   44.1080   -7.7110 C.ar   72  HIS72       0.0820
     95  ND1      124.5000   44.1840   -7.5630 N.ar   72  HIS72      -0.2267
     96  CD2      122.7970   42.8250   -7.8060 C.ar   72  HIS72       0.1154
     97  CE1      124.9770   42.9400   -7.5730 C.ar   72  HIS72       0.1986
     98  NE2      123.9500   42.1040   -7.7880 N.ar   72  HIS72      -0.2212
     99  N        112.0110   41.7900    5.2450 N.3    80  HIS80      -0.1241
    100  CA       110.9490   42.4670    6.0170 C.3    80  HIS80       0.1621
    101  C        111.0760   42.0790    7.4980 C.2    80  HIS80       0.2264
    102  O        111.5920   41.0110    7.8510 O.2    80  HIS80      -0.2867
    103  CB       109.5680   42.0570    5.5380 C.3    80  HIS80       0.0745
    104  CG       109.3400   42.3390    4.0810 C.ar   80  HIS80       0.0817
    105  ND1      108.6430   43.4680    3.6890 N.ar   80  HIS80      -0.2268
    106  CD2      109.7410   41.6840    2.9610 C.ar   80  HIS80       0.1154
    107  CE1      108.6450   43.5050    2.3360 C.ar   80  HIS80       0.1986
    108  NE2      109.2660   42.4380    1.8930 N.ar   80  HIS80      -0.2212
@<TRIPOS>BOND
     1    96    98   ar
     2    96    94   ar
     3    98    97   ar
     4    94    93    1
     5    94    95   ar
     6    93    90    1
     7    97    95   ar
     8    90    89    1
     9    90    91    1
    10    89    84   am
    11    81    80    1
    12    92    91    2
    13    76    75    2
    14    29    27   am
    15    83    84    1
    16    83    86    1
    17    83    82    1
    18    84    85    2
    19    87    86    1
    20    86    88    1
    21    26    27    1
    22    26    23    1
    23    27    28    2
    24    80    79    1
    25    75    82   am
    26    75    74    1
    27    25    24    2
    28    78    79    1
    29    78    77    1
    30    21    19   ar
    31    16    15    2
    32    73    74    1
    33    74    77    1
    34    24    23    1
    35    24    30   am
    36    23    22    1
    37    15    22   am
    38    15    14    1
    39    17    14    1
    40    17    18    1
    41    19    18    1
    42    19    20   ar
    43    34    31    1
    44    31    30    1
    45    31    32    1
    46    14    13    1
    47    68    67    2
    48    13     3   am
    49     7     9   ar
    50     7     6   ar
    51    67    66    1
    52     9    11   ar
    53     5     2    1
    54     5     6    1
    55    63    62    1
    56     2     3    1
    57     2     1    1
    58     3     4    2
    59     6     8   ar
    60    32    33    2
    61    64    62    1
    62    62    59    1
    63    11    12    1
    64    11    10   ar
    65    66    65    1
    66    66    69    1
    67    65    60   am
    68     8    10   ar
    69    43    41   ar
    70    43    45   ar
    71    41    40   ar
    72    60    59    1
    73    60    61    2
    74    59    58    1
    75    36    35    1
    76    36    37    1
    77    36    39    1
    78    69    70    1
    79    45    44   ar
    80    37    38    2
    81    40    39    1
    82    40    42   ar
    83    58    56   am
    84   108   107   ar
    85   108   106   ar
    86    44    42   ar
    87    72    70    1
    88    70    71    1
    89   107   105   ar
    90    56    57    2
    91    56    55    1
    92   106   104   ar
    93    54    55    1
    94    52    51    1
    95   105   104   ar
    96    53    51    1
    97   104   103    1
    98    51    50    1
    99    50    47    1
   100    99   100    1
   101   103   100    1
   102   100   101    1
   103    47    48    1
   104    47    46    1
   105    48    49    2
   106   101   102    2
