@<TRIPOS>MOLECULE
tmp/6i44A02.pdb
 102 100 0 0 0
SMALL
GASTEIGER

@<TRIPOS>ATOM
      1  N        119.3800   37.4280   12.5050 N.3    27  TYR27      -0.1241
      2  CA       119.3810   38.1710   13.7910 C.3    27  TYR27       0.1605
      3  C        118.9850   39.6160   13.5000 C.2    27  TYR27       0.2264
      4  O        118.1890   40.1960   14.2480 O.2    27  TYR27      -0.2867
      5  CB       120.7320   38.0860   14.5150 C.3    27  TYR27       0.0534
      6  CG       120.6510   38.6260   15.9180 C.ar   27  TYR27      -0.0201
      7  CD1      120.2940   37.8220   16.9880 C.ar   27  TYR27      -0.0009
      8  CD2      120.8520   39.9510   16.1730 C.ar   27  TYR27      -0.0009
      9  CE1      120.1580   38.3820   18.2720 C.ar   27  TYR27       0.0417
     10  CE2      120.7190   40.5100   17.4300 C.ar   27  TYR27       0.0417
     11  CZ       120.3400   39.7160   18.4640 C.ar   27  TYR27       0.1957
     12  OH       120.1540   40.3120   19.7040 O.3    27  TYR27      -0.2866
     13  N        115.3080   39.7400   13.1920 N.3    30  MET30      -0.1230
     14  CA       114.6780   39.6300   14.5390 C.3    30  MET30       0.1702
     15  C        114.6860   41.0150   15.2240 C.2    30  MET30       0.2592
     16  O        113.6380   41.4260   15.7930 O.2    30  MET30      -0.2718
     17  CB       115.3940   38.5720   15.3870 C.3    30  MET30       0.0401
     18  CG       114.7410   38.3390   16.7330 C.3    30  MET30       0.0596
     19  SD       115.1140   39.4500   18.0640 S.3    30  MET30      -0.1393
     20  CE       116.7900   38.9590   18.4660 C.3    30  MET30       0.0692
     21  N        115.7570   41.7560   15.1100 N.am   31  ARG31      -0.1980
     22  CA       115.7890   43.0820   15.6870 C.3    31  ARG31       0.1597
     23  C        114.7400   43.9500   14.9910 C.2    31  ARG31       0.2287
     24  O        114.0820   44.7660   15.6200 O.2    31  ARG31      -0.2864
     25  CB       117.1720   43.7050   15.6820 C.3    31  ARG31       0.0334
     26  CG       118.1690   42.9110   16.5210 C.3    31  ARG31       0.0492
     27  CD       117.7220   42.7490   17.9680 C.3    31  ARG31       0.2205
     28  NE       117.8010   44.0150   18.6570 N.pl3  31  ARG31      -0.0865
     29  CZ       118.5600   44.2880   19.7700 C.cat  31  ARG31       0.5346
     30  NH1      119.2690   43.3440   20.3240 N.pl3  31  ARG31       0.1354
     31  NH2      118.5360   45.4760   20.2170 N.pl3  31  ARG31       0.1354
     32  N        111.1650   43.1820   16.3720 N.3    34  PHE34      -0.1241
     33  CA       110.8870   43.7100   17.7180 C.3    34  PHE34       0.1605
     34  C        111.0370   45.2030   17.7840 C.2    34  PHE34       0.2264
     35  O        110.4670   45.7930   18.7210 O.2    34  PHE34      -0.2867
     36  CB       111.7380   42.9850   18.7750 C.3    34  PHE34       0.0534
     37  CG       111.1920   41.6140   19.0420 C.ar   34  PHE34      -0.0203
     38  CD1      111.5830   40.5090   18.3050 C.ar   34  PHE34      -0.0042
     39  CD2      110.3250   41.3800   20.0920 C.ar   34  PHE34      -0.0042
     40  CE1      111.0610   39.2530   18.5340 C.ar   34  PHE34      -0.0003
     41  CE2      109.8360   40.1090   20.3480 C.ar   34  PHE34      -0.0003
     42  CZ       110.1670   39.0490   19.5540 C.ar   34  PHE34      -0.0000
     43  N        112.0860   35.8610   19.8570 N.3    91  ALA91      -0.1245
     44  CA       113.4050   36.4080   20.1110 C.3    91  ALA91       0.1562
     45  C        114.4720   35.3420   20.3280 C.2    91  ALA91       0.2260
     46  O        115.6370   35.6920   20.5150 O.2    91  ALA91      -0.2867
     47  CB       113.3480   37.3540   21.2690 C.3    91  ALA91       0.0290
     48  N        122.1290   45.3130   23.6970 N.3   155  GLY155     -0.1225
     49  CA       122.3110   43.8770   23.5290 C.3   155  GLY155      0.1811
     50  C        122.9270   43.4400   22.2270 C.2   155  GLY155      0.2280
     51  O        122.9030   42.2510   21.9710 O.2   155  GLY155     -0.2866
     52  N        115.7890   34.0720   25.7740 N.3   174  PRO174     -0.2116
     53  CA       114.5230   34.2630   25.0190 C.3   174  PRO174      0.1372
     54  C        114.0080   32.9740   24.3750 C.2   174  PRO174      0.2244
     55  O        112.9340   33.0100   23.7660 O.2   174  PRO174     -0.2868
     56  CB       114.8660   35.2900   23.9500 C.3   174  PRO174      0.0268
     57  CG       116.3430   35.2240   23.8130 C.3   174  PRO174      0.0207
     58  CD       116.8770   34.8480   25.1880 C.3   174  PRO174      0.0892
     59  N        110.7320   43.0880   29.8940 N.3   213  THR213     -0.1203
     60  CA       111.1460   41.7370   29.4980 C.3   213  THR213      0.1994
     61  C        111.8680   41.7930   28.1570 C.2   213  THR213      0.2618
     62  O        112.8740   41.0660   27.9670 O.2   213  THR213     -0.2717
     63  CB       109.9380   40.8120   29.4850 C.3   213  THR213      0.1784
     64  OG1      109.4330   40.7220   30.8410 O.3   213  THR213     -0.2211
     65  CG2      110.3170   39.4430   28.9560 C.3   213  THR213      0.0376
     66  N        111.3340   42.5300   27.1880 N.am  214  TYR214     -0.1961
     67  CA       111.8700   42.5290   25.8270 C.3   214  TYR214      0.1771
     68  C        112.8370   43.6570   25.5780 C.2   214  TYR214      0.2620
     69  O        113.3070   43.8130   24.4480 O.2   214  TYR214     -0.2715
     70  CB       110.7220   42.4740   24.8170 C.3   214  TYR214      0.0574
     71  CG       110.0250   41.1250   24.8280 C.ar  214  TYR214     -0.0198
     72  CD1      110.6400   40.0520   24.2160 C.ar  214  TYR214     -0.0009
     73  CD2      108.8510   40.9040   25.5160 C.ar  214  TYR214     -0.0009
     74  CE1      110.0430   38.7870   24.2410 C.ar  214  TYR214      0.0417
     75  CE2      108.2460   39.6660   25.5860 C.ar  214  TYR214      0.0417
     76  CZ       108.8710   38.6020   24.9600 C.ar  214  TYR214      0.1957
     77  OH       108.3390   37.3200   24.9450 O.3   214  TYR214     -0.2866
     78  N        113.1480   44.4660   26.5640 N.am  215  HIS215     -0.1960
     79  CA       114.1160   45.5490   26.3770 C.3   215  HIS215      0.1772
     80  C        115.4740   45.0030   26.7330 C.2   215  HIS215      0.2462
     81  O        115.6780   44.5300   27.8430 O.2   215  HIS215     -0.2730
     82  CB       113.7970   46.7580   27.2520 C.3   215  HIS215      0.0785
     83  CG       114.5730   47.9750   26.8700 C.ar  215  HIS215      0.0821
     84  ND1      115.9300   48.0620   26.9870 N.ar  215  HIS215     -0.2267
     85  CD2      114.1260   49.1180   26.3690 C.ar  215  HIS215      0.1154
     86  CE1      116.2460   49.3070   26.5310 C.ar  215  HIS215      0.1986
     87  NE2      115.2180   49.9270   26.1650 N.ar  215  HIS215     -0.2212
     88  N        116.4880   45.0060   25.8330 N.am  216  PRO216     -0.2727
     89  CA       117.7750   44.4070   26.1330 C.3   216  PRO216      0.1402
     90  C        118.4910   44.9260   27.3680 C.2   216  PRO216      0.2269
     91  O        119.1730   44.1080   28.0170 O.2   216  PRO216     -0.2865
     92  CB       118.6310   44.6890   24.8850 C.3   216  PRO216      0.0296
     93  CG       117.6370   44.9060   23.8440 C.3   216  PRO216      0.0237
     94  CD       116.4270   45.5660   24.4790 C.3   216  PRO216      0.0939
     95  N        112.3490   37.6960   31.3030 N.3   263  LEU263     -0.1245
     96  CA       113.1320   37.0470   30.2240 C.3   263  LEU263      0.1561
     97  C        113.7600   35.7420   30.6850 C.2   263  LEU263      0.2260
     98  O        114.0060   34.8540   29.8160 O.2   263  LEU263     -0.2867
     99  CB       114.1900   37.9780   29.6820 C.3   263  LEU263      0.0270
    100  CG       114.7980   37.5610   28.3320 C.3   263  LEU263      0.0019
    101  CD1      113.7780   37.7060   27.2300 C.3   263  LEU263      0.0001
    102  CD2      116.0110   38.4360   28.0870 C.3   263  LEU263      0.0001
@<TRIPOS>BOND
     1     1     2    1
     2    13    14    1
     3     3     2    1
     4     3     4    2
     5     2     5    1
     6     5     6    1
     7    14    15    1
     8    14    17    1
     9    23    24    2
    10    23    22    1
    11    21    15   am
    12    21    22    1
    13    15    16    2
    14    17    18    1
    15    25    22    1
    16    25    26    1
    17     6     8   ar
    18     6     7   ar
    19     8    10   ar
    20    32    33    1
    21    26    27    1
    22    18    19    1
    23     7     9   ar
    24    10    11   ar
    25    33    34    1
    26    33    36    1
    27    34    35    2
    28    27    28    1
    29    19    20    1
    30     9    11   ar
    31    38    40   ar
    32    38    37   ar
    33    11    12    1
    34    40    42   ar
    35    28    29    2
    36    36    37    1
    37    37    39   ar
    38    42    41   ar
    39    29    31    1
    40    29    30    1
    41    43    44    1
    42    39    41   ar
    43    44    45    1
    44    44    47    1
    45    45    46    2
    46    51    50    2
    47    50    49    1
    48    49    48    1
    49    55    54    2
    50    57    56    1
    51    57    58    1
    52    93    94    1
    53    93    92    1
    54    56    53    1
    55    72    74   ar
    56    72    71   ar
    57    74    76   ar
    58    54    53    1
    59    69    68    2
    60    94    88    1
    61    70    71    1
    62    70    67    1
    63    71    73   ar
    64    92    89    1
    65    77    76    1
    66    76    75   ar
    67    53    52    1
    68    58    52    1
    69    73    75   ar
    70    68    67    1
    71    68    78   am
    72    67    66    1
    73    88    89    1
    74    88    80   am
    75    89    90    1
    76    87    85   ar
    77    87    86   ar
    78    85    83   ar
    79    79    78    1
    80    79    80    1
    81    79    82    1
    82    86    84   ar
    83    80    81    2
    84    83    84   ar
    85    83    82    1
    86    66    61   am
    87   101   100    1
    88    90    91    2
    89    62    61    2
    90   102   100    1
    91    61    60    1
    92   100    99    1
    93    65    63    1
    94    63    60    1
    95    63    64    1
    96    60    59    1
    97    99    96    1
    98    98    97    2
    99    96    97    1
   100    96    95    1
