@<TRIPOS>MOLECULE
tmp/6i44A01.pdb
 107 106 0 0 0
SMALL
GASTEIGER

@<TRIPOS>ATOM
      1  N         98.9930    5.2650    8.5600 N.3   405  HIS405     -0.1241
      2  CA        99.1640    3.8720    9.0420 C.3   405  HIS405      0.1621
      3  C         99.2090    3.7740   10.5480 C.2   405  HIS405      0.2264
      4  O         99.0100    2.6830   11.0720 O.2   405  HIS405     -0.2867
      5  CB       100.3390    3.1480    8.3870 C.3   405  HIS405      0.0745
      6  CG       101.6900    3.4150    8.9650 C.ar  405  HIS405      0.0817
      7  ND1      102.5790    4.2980    8.3830 N.ar  405  HIS405     -0.2268
      8  CD2      102.2610    2.9000   10.0570 C.ar  405  HIS405      0.1154
      9  CE1      103.6810    4.2600    9.0560 C.ar  405  HIS405      0.1986
     10  NE2      103.5210    3.4630   10.1180 N.ar  405  HIS405     -0.2212
     11  N        118.7380    6.7910   10.3600 N.3   537  ASP537     -0.1225
     12  CA       117.3870    6.6160    9.7700 C.3   537  ASP537      0.1805
     13  C        116.3610    6.7740   10.8580 C.2   537  ASP537      0.2598
     14  O        116.6590    6.6890   12.0170 O.2   537  ASP537     -0.2718
     15  CB       117.2880    5.1920    9.1530 C.3   537  ASP537      0.1424
     16  CG       116.1570    4.9380    8.1950 C.2   537  ASP537      0.3668
     17  OD1      115.4130    5.8840    7.7620 O.co2 537  ASP537     -0.2456
     18  OD2      116.0290    3.7570    7.7800 O.co2 537  ASP537     -0.2456
     19  N        115.1140    6.9560   10.4370 N.am  538  ALA538     -0.1966
     20  CA       113.9590    6.7380   11.3120 C.3   538  ALA538      0.1728
     21  C        113.7260    5.2490   11.5390 C.2   538  ALA538      0.2616
     22  O        114.2990    4.3890   10.7680 O.2   538  ALA538     -0.2715
     23  CB       112.7550    7.3650   10.7210 C.3   538  ALA538      0.0334
     24  N        112.9050    4.9020   12.5040 N.am  539  CYS539     -0.1954
     25  CA       112.5710    3.4720   12.7450 C.3   539  CYS539      0.1843
     26  C        111.2080    3.3500   13.3700 C.2   539  CYS539      0.2625
     27  O        110.5160    4.3620   13.5490 O.2   539  CYS539     -0.2714
     28  CB       113.6560    2.8320   13.5760 C.3   539  CYS539      0.0997
     29  SG       113.8180    1.0140   13.4250 S.3   539  CYS539     -0.0797
     30  N        110.7740    2.1370   13.7080 N.am  540  LYS540     -0.1977
     31  CA       109.5070    1.8760   14.3840 C.3   540  LYS540      0.1596
     32  C        109.3520    2.7970   15.5920 C.2   540  LYS540      0.2287
     33  O        110.2620    2.8770   16.4230 O.2   540  LYS540     -0.2864
     34  CB       109.4880    0.4040   14.8070 C.3   540  LYS540      0.0298
     35  CG       108.1600   -0.0350   15.3820 C.3   540  LYS540      0.0038
     36  CD       108.0990   -1.5240   15.5550 C.3   540  LYS540      0.0206
     37  CE       107.3750   -1.8700   16.8230 C.3   540  LYS540      0.1093
     38  NZ       106.0050   -1.3250   16.7700 N.3   540  LYS540     -0.1314
     39  N        107.2230    6.7580   13.1000 N.3   543  ALA543     -0.1245
     40  CA       106.3200    7.0860   12.0030 C.3   543  ALA543      0.1562
     41  C        105.3040    8.1760   12.3790 C.2   543  ALA543      0.2260
     42  O        104.8750    8.2200   13.4740 O.2   543  ALA543     -0.2867
     43  CB       105.5440    5.8650   11.5280 C.3   543  ALA543      0.0290
     44  N        107.3820   10.9620    8.3450 N.3   561  THR561     -0.1203
     45  CA       108.0340    9.6200    8.4670 C.3   561  THR561      0.1994
     46  C        107.0180    8.5280    8.1230 C.2   561  THR561      0.2619
     47  O        105.9600    8.4610    8.7540 O.2   561  THR561     -0.2717
     48  CB       108.6250    9.4250    9.8340 C.3   561  THR561      0.1784
     49  OG1      109.5200   10.5330   10.0040 O.3   561  THR561     -0.2211
     50  CG2      109.3820    8.1200    9.9830 C.3   561  THR561      0.0376
     51  N        107.3470    7.6420    7.1620 N.am  562  SER562     -0.1937
     52  CA       106.3700    6.6490    6.6370 C.3   562  SER562      0.2055
     53  C        106.9230    5.2170    6.7380 C.2   562  SER562      0.2643
     54  O        106.3710    4.4340    7.5080 O.2   562  SER562     -0.2714
     55  CB       105.9370    7.0280    5.2490 C.3   562  SER562      0.2130
     56  OG       104.9650    6.0710    4.7960 O.3   562  SER562     -0.2179
     57  N        107.9630    4.8810    5.9760 N.am  563  TRP563     -0.1959
     58  CA       108.4430    3.4830    5.9690 C.3   563  TRP563      0.1771
     59  C        109.8800    3.3720    5.5110 C.2   563  TRP563      0.2620
     60  O        110.4350    4.3190    5.0030 O.2   563  TRP563     -0.2715
     61  CB       107.5190    2.6360    5.1040 C.3   563  TRP563      0.0590
     62  CG       107.4420    3.0130    3.6870 C.ar  563  TRP563      0.0006
     63  CD1      106.6320    3.9470    3.1240 C.ar  563  TRP563      0.0946
     64  CD2      108.1940    2.4360    2.6120 C.ar  563  TRP563      0.0152
     65  NE1      106.8180    4.0030    1.7670 N.ar  563  TRP563     -0.2442
     66  CE2      107.7890    3.0810    1.4220 C.ar  563  TRP563      0.0810
     67  CE3      109.1910    1.4560    2.5400 C.ar  563  TRP563      0.0012
     68  CZ2      108.3380    2.7740    0.1700 C.ar  563  TRP563      0.0191
     69  CZ3      109.7460    1.1600    1.3050 C.ar  563  TRP563      0.0001
     70  CH2      109.3120    1.7960    0.1440 C.ar  563  TRP563      0.0015
     71  N        110.4300    2.1760    5.6860 N.am  564  GLY564     -0.1954
     72  CA       111.6930    1.7980    5.0540 C.3   564  GLY564      0.1869
     73  C        111.7230    0.2810    5.0850 C.2   564  GLY564      0.2309
     74  O        110.9060   -0.3310    5.8430 O.2   564  GLY564     -0.2863
     75  N        113.2950   -2.3860    6.8060 N.3   566  GLY566     -0.1210
     76  CA       114.0340   -2.4180    8.0600 C.3   566  GLY566      0.1956
     77  C        114.3710   -0.9760    8.4590 C.2   566  GLY566      0.2612
     78  O        113.5390   -0.0830    8.2030 O.2   566  GLY566     -0.2717
     79  N        115.5080   -0.7460    9.0600 N.am  567  CYS567     -0.1970
     80  CA       115.8720    0.6270    9.4660 C.3   567  CYS567      0.1712
     81  C        117.3810    0.7710    9.3570 C.2   567  CYS567      0.2296
     82  O        118.1030   -0.1410    9.8320 O.2   567  CYS567     -0.2864
     83  CB       115.5280    0.8480   10.9270 C.3   567  CYS567      0.0983
     84  SG       113.7890    0.5750   11.3210 S.3   567  CYS567     -0.0798
     85  N        115.1770    5.9290    4.0190 N.3   574  GLY574     -0.1210
     86  CA       113.8210    6.1430    4.5630 C.3   574  GLY574      0.1956
     87  C        112.9220    6.7920    3.5800 C.2   574  GLY574      0.2612
     88  O        113.3710    7.6430    2.7860 O.2   574  GLY574     -0.2717
     89  N        111.6520    6.4310    3.6070 N.am  575  VAL575     -0.1965
     90  CA       110.6590    7.0080    2.6920 C.3   575  VAL575      0.1727
     91  C        109.6690    7.8040    3.5390 C.2   575  VAL575      0.2616
     92  O        109.2460    7.3590    4.6090 O.2   575  VAL575     -0.2715
     93  CB       109.9310    5.9330    1.8630 C.3   575  VAL575      0.0290
     94  CG1      108.9970    6.5320    0.8480 C.3   575  VAL575      0.0023
     95  CG2      110.9580    5.0150    1.1630 C.3   575  VAL575      0.0023
     96  N        109.3860    8.9980    3.0790 N.am  576  TYR576     -0.1974
     97  CA       108.5310    9.9650    3.8100 C.3   576  TYR576      0.1639
     98  C        107.4290   10.4050    2.8730 C.2   576  TYR576      0.2290
     99  O        107.6340   10.5290    1.6650 O.2   576  TYR576     -0.2864
    100  CB       109.4000   11.1580    4.1960 C.3   576  TYR576      0.0560
    101  CG       110.5400   10.8170    5.1020 C.ar  576  TYR576     -0.0198
    102  CD1      111.7020   10.2170    4.5980 C.ar  576  TYR576     -0.0009
    103  CD2      110.4720   11.0000    6.4580 C.ar  576  TYR576     -0.0009
    104  CE1      112.7360    9.8730    5.4280 C.ar  576  TYR576      0.0417
    105  CE2      111.4990   10.6540    7.2890 C.ar  576  TYR576      0.0417
    106  CZ       112.6550   10.0590    6.7870 C.ar  576  TYR576      0.1957
    107  OH       113.6320    9.7310    7.6670 O.3   576  TYR576     -0.2866
@<TRIPOS>BOND
     1    70    68   ar
     2    70    69   ar
     3    68    66   ar
     4    94    93    1
     5    95    93    1
     6    69    67   ar
     7    66    65   ar
     8    66    64   ar
     9    99    98    2
    10    65    63   ar
    11    93    90    1
    12    67    64   ar
    13    64    62   ar
    14    90    91    1
    15    90    89    1
    16    88    87    2
    17    98    97    1
    18    96    91   am
    19    96    97    1
    20    63    62   ar
    21    91    92    2
    22    87    89   am
    23    87    86    1
    24    62    61    1
    25    97   100    1
    26    85    86    1
    27   100   101    1
    28   102   101   ar
    29   102   104   ar
    30    56    55    1
    31    60    59    2
    32    72    73    1
    33    72    71    1
    34    73    74    2
    35   101   103   ar
    36    61    58    1
    37    55    52    1
    38   104   106   ar
    39    59    71   am
    40    59    58    1
    41    58    57    1
    42    57    53   am
    43   103   105   ar
    44    52    53    1
    45    52    51    1
    46    53    54    2
    47   106   105   ar
    48   106   107    1
    49    75    76    1
    50    51    46   am
    51    17    16   ar
    52    18    16   ar
    53    76    77    1
    54    46    45    1
    55    46    47    2
    56    16    15    1
    57    78    77    2
    58    44    45    1
    59     7     6   ar
    60     7     9   ar
    61     5     6    1
    62     5     2    1
    63    77    79   am
    64    45    48    1
    65     1     2    1
    66     6     8   ar
    67     2     3    1
    68     9    10   ar
    69    79    80    1
    70    15    12    1
    71    81    80    1
    72    81    82    2
    73    80    83    1
    74    12    11    1
    75    12    13    1
    76    48    50    1
    77    48    49    1
    78     8    10   ar
    79    19    13   am
    80    19    20    1
    81     3     4    2
    82    23    20    1
    83    22    21    2
    84    13    14    2
    85    83    84    1
    86    20    21    1
    87    84    29    1
    88    43    40    1
    89    21    24   am
    90    40    41    1
    91    40    39    1
    92    41    42    2
    93    24    25    1
    94    25    26    1
    95    25    28    1
    96    26    27    2
    97    26    30   am
    98    29    28    1
    99    30    31    1
   100    31    34    1
   101    31    32    1
   102    34    35    1
   103    35    36    1
   104    36    37    1
   105    32    33    2
   106    38    37    1
