@<TRIPOS>MOLECULE
tmp/6i4bA02.pdb
 169 161 0 0 0
SMALL
GASTEIGER

@<TRIPOS>ATOM
      1  N         19.3540  -44.0530   31.7510 N.3    12  TYR12      -0.1241
      2  CA        18.9710  -42.6560   31.9520 C.3    12  TYR12       0.1605
      3  C         17.5940  -42.5490   32.6000 C.2    12  TYR12       0.2264
      4  O         17.4120  -41.8160   33.5820 O.2    12  TYR12      -0.2867
      5  CB        19.0270  -41.9030   30.6200 C.3    12  TYR12       0.0534
      6  CG        20.4490  -41.7360   30.1280 C.ar   12  TYR12      -0.0201
      7  CD1       21.4060  -41.1180   30.9270 C.ar   12  TYR12      -0.0009
      8  CD2       20.8510  -42.2390   28.8940 C.ar   12  TYR12      -0.0009
      9  CE1       22.7170  -40.9780   30.5040 C.ar   12  TYR12       0.0417
     10  CE2       22.1640  -42.1040   28.4590 C.ar   12  TYR12       0.0417
     11  CZ        23.0920  -41.4700   29.2730 C.ar   12  TYR12       0.1957
     12  OH        24.4000  -41.3210   28.8620 O.3    12  TYR12      -0.2866
     13  N         17.9000  -43.4280   36.4120 N.3    15  PHE15      -0.1227
     14  CA        18.3670  -42.3060   37.2180 C.3    15  PHE15       0.1736
     15  C         17.3090  -41.2090   37.3080 C.2    15  PHE15       0.2595
     16  O         17.2060  -40.5300   38.3370 O.2    15  PHE15      -0.2718
     17  CB        19.6660  -41.7460   36.6300 C.3    15  PHE15       0.0547
     18  CG        20.4310  -40.8340   37.5670 C.ar   15  PHE15      -0.0202
     19  CD1       20.1530  -40.8010   38.9330 C.ar   15  PHE15      -0.0042
     20  CD2       21.4040  -39.9750   37.0690 C.ar   15  PHE15      -0.0042
     21  CE1       20.8560  -39.9490   39.7880 C.ar   15  PHE15      -0.0003
     22  CE2       22.1070  -39.1200   37.9150 C.ar   15  PHE15      -0.0003
     23  CZ        21.8320  -39.1090   39.2780 C.ar   15  PHE15      -0.0000
     24  N         16.5020  -41.0340   36.2520 N.am   16  LEU16      -0.1980
     25  CA        15.5480  -39.9280   36.2220 C.3    16  LEU16       0.1596
     26  C         14.3620  -40.1880   37.1430 C.2    16  LEU16       0.2287
     27  O         13.9160  -39.2800   37.8540 O.2    16  LEU16      -0.2864
     28  CB        15.0800  -39.6710   34.7870 C.3    16  LEU16       0.0297
     29  CG        14.0920  -38.5240   34.5140 C.3    16  LEU16       0.0022
     30  CD1       12.7060  -38.8260   35.0520 C.3    16  LEU16       0.0001
     31  CD2       14.6130  -37.2050   35.0960 C.3    16  LEU16       0.0001
     32  N         15.6450  -39.3720   40.5090 N.3    19  CYS19      -0.1221
     33  CA        15.7070  -37.9280   40.7160 C.3    19  CYS19       0.1808
     34  C         14.3240  -37.3460   40.9570 C.2    19  CYS19       0.2601
     35  O         14.1450  -36.5020   41.8430 O.2    19  CYS19      -0.2717
     36  CB        16.3680  -37.2540   39.5170 C.3    19  CYS19       0.0970
     37  SG        18.1530  -37.4310   39.5000 S.3    19  CYS19      -0.0800
     38  N         13.3300  -37.8070   40.1900 N.am   20  LEU20      -0.1979
     39  CA        11.9800  -37.2600   40.2780 C.3    20  LEU20       0.1596
     40  C         11.3750  -37.4280   41.6650 C.2    20  LEU20       0.2287
     41  O         10.5960  -36.5770   42.1080 O.2    20  LEU20      -0.2864
     42  CB        11.0820  -37.9200   39.2330 C.3    20  LEU20       0.0297
     43  CG        11.2860  -37.4310   37.8020 C.3    20  LEU20       0.0022
     44  CD1       10.1900  -37.9790   36.8930 C.3    20  LEU20       0.0001
     45  CD2       11.3190  -35.9140   37.7720 C.3    20  LEU20       0.0001
     46  N         14.2880  -30.1010   42.6170 N.3    25  GLY25      -0.1225
     47  CA        14.1810  -29.8070   41.1930 C.3    25  GLY25       0.1811
     48  C         15.3720  -29.0390   40.6440 C.2    25  GLY25       0.2280
     49  O         15.9730  -29.4330   39.6410 O.2    25  GLY25      -0.2866
     50  N         18.5870  -31.1550   40.4610 N.3    28  CYS28      -0.1221
     51  CA        18.5390  -31.9900   39.2610 C.3    28  CYS28       0.1808
     52  C         18.9610  -31.2070   38.0220 C.2    28  CYS28       0.2601
     53  O         19.7330  -31.7000   37.1890 O.2    28  CYS28      -0.2717
     54  CB        17.1230  -32.5390   39.0480 C.3    28  CYS28       0.0970
     55  SG        16.5140  -33.6610   40.3050 S.3    28  CYS28      -0.0800
     56  N         18.4390  -29.9840   37.8790 N.am   29  HIS29      -0.1975
     57  CA        18.7170  -29.1900   36.6880 C.3    29  HIS29       0.1656
     58  C         20.1940  -28.8320   36.5900 C.2    29  HIS29       0.2291
     59  O         20.7910  -28.9050   35.5070 O.2    29  HIS29      -0.2864
     60  CB        17.8630  -27.9220   36.6990 C.3    29  HIS29       0.0771
     61  CG        18.0110  -27.0960   35.4630 C.ar   29  HIS29       0.0820
     62  ND1       17.4350  -27.4530   34.2640 N.ar   29  HIS29      -0.2267
     63  CD2       18.6880  -25.9470   35.2310 C.ar   29  HIS29       0.1154
     64  CE1       17.7410  -26.5530   33.3480 C.ar   29  HIS29       0.1986
     65  NE2       18.5060  -25.6330   33.9060 N.ar   29  HIS29      -0.2212
     66  N         22.6800  -30.4570   37.9200 N.3    31  LEU31      -0.1231
     67  CA        23.3880  -31.6850   37.5690 C.3    31  LEU31       0.1693
     68  C         23.3580  -31.9140   36.0620 C.2    31  LEU31       0.2592
     69  O         24.3800  -32.2450   35.4480 O.2    31  LEU31      -0.2718
     70  CB        22.7740  -32.8830   38.2870 C.3    31  LEU31       0.0284
     71  CG        23.4540  -34.2000   37.8970 C.3    31  LEU31       0.0019
     72  CD1       24.9020  -34.2210   38.3900 C.3    31  LEU31       0.0001
     73  CD2       22.6970  -35.4370   38.3980 C.3    31  LEU31       0.0001
     74  N         22.1810  -31.7530   35.4520 N.am   32  PHE32      -0.1976
     75  CA        22.0640  -31.8570   34.0010 C.3    32  PHE32       0.1639
     76  C         23.0340  -30.9080   33.3030 C.2    32  PHE32       0.2290
     77  O         23.7680  -31.3140   32.3930 O.2    32  PHE32      -0.2864
     78  CB        20.6160  -31.5800   33.5790 C.3    32  PHE32       0.0560
     79  CG        20.3820  -31.6470   32.0910 C.ar   32  PHE32      -0.0200
     80  CD1       19.7660  -32.7460   31.5300 C.ar   32  PHE32      -0.0042
     81  CD2       20.7490  -30.5930   31.2590 C.ar   32  PHE32      -0.0042
     82  CE1       19.5340  -32.8130   30.1600 C.ar   32  PHE32      -0.0003
     83  CE2       20.5270  -30.6560   29.8890 C.ar   32  PHE32      -0.0003
     84  CZ        19.9170  -31.7670   29.3420 C.ar   32  PHE32      -0.0000
     85  N         26.6840  -32.1150   33.5890 N.3    35  LEU35      -0.1245
     86  CA        26.9640  -33.1510   32.5970 C.3    35  LEU35       0.1561
     87  C         27.1760  -32.5420   31.2140 C.2    35  LEU35       0.2260
     88  O         28.1240  -32.8990   30.5020 O.2    35  LEU35      -0.2867
     89  CB        25.8290  -34.1760   32.5580 C.3    35  LEU35       0.0270
     90  CG        25.4760  -34.9940   33.8040 C.3    35  LEU35       0.0019
     91  CD1       24.0700  -35.5770   33.6480 C.3    35  LEU35       0.0001
     92  CD2       26.4950  -36.1040   34.0500 C.3    35  LEU35       0.0001
     93  N         15.7830  -23.0750   30.2590 N.3    71  PHE71      -0.1241
     94  CA        16.4660  -24.3400   30.4780 C.3    71  PHE71       0.1605
     95  C         17.9760  -24.1520   30.4770 C.2    71  PHE71       0.2264
     96  O         18.6720  -24.6740   31.3580 O.2    71  PHE71      -0.2867
     97  CB        16.0400  -25.3830   29.4420 C.3    71  PHE71       0.0534
     98  CG        16.2860  -26.7960   29.9000 C.ar   71  PHE71      -0.0203
     99  CD1       15.2960  -27.5080   30.5600 C.ar   71  PHE71      -0.0042
    100  CD2       17.5240  -27.3910   29.7170 C.ar   71  PHE71      -0.0042
    101  CE1       15.5310  -28.8120   31.0130 C.ar   71  PHE71      -0.0003
    102  CE2       17.7710  -28.6890   30.1720 C.ar   71  PHE71      -0.0003
    103  CZ        16.7720  -29.3990   30.8160 C.ar   71  PHE71      -0.0000
    104  N         11.6470  -24.3460   42.4750 N.3   107  ILE107     -0.1245
    105  CA        11.1930  -25.2040   41.3850 C.3   107  ILE107      0.1561
    106  C         10.6190  -26.4620   42.0180 C.2   107  ILE107      0.2260
    107  O         11.3120  -27.1440   42.7830 O.2   107  ILE107     -0.2867
    108  CB        12.3200  -25.5590   40.3980 C.3   107  ILE107      0.0252
    109  CG1       12.9410  -24.2870   39.8060 C.3   107  ILE107      0.0019
    110  CG2       11.7790  -26.4460   39.2860 C.3   107  ILE107      0.0019
    111  CD1       14.1390  -24.5220   38.8960 C.3   107  ILE107      0.0001
    112  N          8.0500  -30.0180   41.3540 N.3   109  ARG109     -0.1245
    113  CA         7.4590  -30.9180   40.3760 C.3   109  ARG109      0.1563
    114  C          6.2630  -31.6520   40.9630 C.2   109  ARG109      0.2260
    115  O          6.1110  -31.7730   42.1810 O.2   109  ARG109     -0.2867
    116  CB         8.4820  -31.9410   39.8780 C.3   109  ARG109      0.0307
    117  CG         9.6970  -31.3330   39.2170 C.3   109  ARG109      0.0489
    118  CD        10.8340  -32.3290   39.2080 C.3   109  ARG109      0.2205
    119  NE        10.9650  -33.0090   40.4940 N.pl3 109  ARG109     -0.0865
    120  CZ        12.1270  -33.3200   41.0530 C.cat 109  ARG109      0.5346
    121  NH1       13.2570  -33.0130   40.4340 N.pl3 109  ARG109      0.1354
    122  NH2       12.1590  -33.9450   42.2260 N.pl3 109  ARG109      0.1354
    123  N          4.9820  -28.5870   36.5860 N.3   116  ILE116     -0.1245
    124  CA         5.9870  -27.8690   37.3580 C.3   116  ILE116      0.1561
    125  C          5.4170  -26.5110   37.7310 C.2   116  ILE116      0.2260
    126  O          4.6540  -25.9140   36.9680 O.2   116  ILE116     -0.2867
    127  CB         7.2980  -27.7010   36.5550 C.3   116  ILE116      0.0252
    128  CG1        7.7060  -29.0360   35.9220 C.3   116  ILE116      0.0019
    129  CG2        8.4110  -27.1380   37.4280 C.3   116  ILE116      0.0019
    130  CD1        8.8480  -28.9170   34.9470 C.3   116  ILE116      0.0001
    131  N         10.1580  -27.8260   27.5430 N.3   342  TYR342     -0.1241
    132  CA        10.8570  -27.7180   28.8120 C.3   342  TYR342      0.1605
    133  C         10.4310  -28.8880   29.6870 C.2   342  TYR342      0.2264
    134  O         11.2470  -29.7600   29.9940 O.2   342  TYR342     -0.2867
    135  CB        10.5740  -26.3760   29.4950 C.3   342  TYR342      0.0534
    136  CG        11.5310  -26.0660   30.6320 C.ar  342  TYR342     -0.0201
    137  CD1       12.2570  -24.8830   30.6500 C.ar  342  TYR342     -0.0009
    138  CD2       11.7110  -26.9560   31.6800 C.ar  342  TYR342     -0.0009
    139  CE1       13.1310  -24.6020   31.6730 C.ar  342  TYR342      0.0417
    140  CE2       12.5860  -26.6840   32.7090 C.ar  342  TYR342      0.0417
    141  CZ        13.2910  -25.5000   32.7010 C.ar  342  TYR342      0.1957
    142  OH        14.1650  -25.2280   33.7300 O.3   342  TYR342     -0.2866
    143  N         11.5880  -32.4420   29.0510 N.3   345  LEU345     -0.1231
    144  CA        12.9380  -32.8130   29.4560 C.3   345  LEU345      0.1693
    145  C         12.9890  -33.1930   30.9240 C.2   345  LEU345      0.2591
    146  O         13.7630  -34.0750   31.3080 O.2   345  LEU345     -0.2718
    147  CB        13.9110  -31.6710   29.1790 C.3   345  LEU345      0.0284
    148  CG        14.5250  -31.5860   27.7820 C.3   345  LEU345      0.0019
    149  CD1       15.4530  -30.3740   27.6800 C.3   345  LEU345      0.0001
    150  CD2       15.2500  -32.8870   27.4070 C.3   345  LEU345      0.0001
    151  N         12.1690  -32.5480   31.7530 N.am  346  VAL346     -0.1980
    152  CA        12.1790  -32.8390   33.1820 C.3   346  VAL346      0.1595
    153  C         11.6550  -34.2430   33.4480 C.2   346  VAL346      0.2287
    154  O         12.2190  -34.9880   34.2600 O.2   346  VAL346     -0.2864
    155  CB        11.3610  -31.7800   33.9380 C.3   346  VAL346      0.0276
    156  CG1       11.3150  -32.0960   35.4200 C.3   346  VAL346      0.0022
    157  CG2       11.9260  -30.3850   33.6700 C.3   346  VAL346      0.0022
    158  N         13.4240  -36.8720   30.1730 N.3   349  GLY349     -0.1210
    159  CA        14.8640  -37.0400   30.2390 C.3   349  GLY349      0.1956
    160  C         15.5540  -36.9370   28.8880 C.2   349  GLY349      0.2611
    161  O         15.0940  -36.2510   27.9680 O.2   349  GLY349     -0.2717
    162  N         16.6810  -37.6490   28.7810 N.am  350  MET350     -0.1979
    163  CA        17.5610  -37.5300   27.6210 C.3   350  MET350      0.1605
    164  C         16.8450  -37.8970   26.3240 C.2   350  MET350      0.2287
    165  O         17.1210  -37.3120   25.2690 O.2   350  MET350     -0.2864
    166  CB        18.7960  -38.4160   27.8050 C.3   350  MET350      0.0413
    167  CG        19.3640  -38.4280   29.2270 C.3   350  MET350      0.0598
    168  SD        19.7880  -36.7620   29.7470 S.3   350  MET350     -0.1393
    169  CE        20.8280  -36.2170   28.4180 C.3   350  MET350      0.0692
@<TRIPOS>BOND
     1   165   164    2
     2   164   163    1
     3   150   148    1
     4   131   132    1
     5   163   166    1
     6   163   162    1
     7   149   148    1
     8   148   147    1
     9   166   167    1
    10   161   160    2
    11   169   168    1
    12    10     8   ar
    13    10    11   ar
    14   162   160   am
    15   132   135    1
    16   132   133    1
    17    12    11    1
    18   160   159    1
    19     8     6   ar
    20   143   144    1
    21   147   144    1
    22   167   168    1
    23    11     9   ar
    24    84    83   ar
    25    84    82   ar
    26    97    98    1
    27    97    94    1
    28   144   145    1
    29   135   136    1
    30   133   134    2
    31   100    98   ar
    32   100   102   ar
    33    83    81   ar
    34    98    99   ar
    35     6     5    1
    36     6     7   ar
    37    82    80   ar
    38   102   103   ar
    39   158   159    1
    40    93    94    1
    41    95    94    1
    42    95    96    2
    43    88    87    2
    44     9     7   ar
    45    99   101   ar
    46     5     2    1
    47   136   137   ar
    48   136   138   ar
    49   137   139   ar
    50   103   101   ar
    51   145   146    2
    52   145   151   am
    53    87    86    1
    54    81    79   ar
    55    80    79   ar
    56   139   141   ar
    57   138   140   ar
    58     1     2    1
    59   151   152    1
    60     2     3    1
    61    79    78    1
    62    77    76    2
    63    89    86    1
    64    89    90    1
    65    86    85    1
    66     3     4    2
    67   141   140   ar
    68   141   142    1
    69   152   153    1
    70   152   155    1
    71    76    75    1
    72    64    65   ar
    73    64    62   ar
    74   153   154    2
    75    78    75    1
    76    91    90    1
    77   157   155    1
    78    90    92    1
    79    65    63   ar
    80   155   156    1
    81    75    74    1
    82    62    61   ar
    83    29    28    1
    84    29    30    1
    85    29    31    1
    86    28    25    1
    87   130   128    1
    88    63    61   ar
    89    69    68    2
    90    74    68   am
    91    61    60    1
    92    59    58    2
    93   128   127    1
    94    68    67    1
    95    25    24    1
    96    25    26    1
    97    24    15   am
    98    13    14    1
    99   127   124    1
   100   127   129    1
   101   123   124    1
   102    58    57    1
   103    17    14    1
   104    17    18    1
   105    57    60    1
   106    57    56    1
   107    44    43    1
   108   126   125    2
   109    20    18   ar
   110    20    22   ar
   111    26    27    2
   112    53    52    2
   113    14    15    1
   114    15    16    2
   115   124   125    1
   116    18    19   ar
   117    67    66    1
   118    67    70    1
   119    45    43    1
   120    43    42    1
   121    56    52   am
   122    71    70    1
   123    71    72    1
   124    71    73    1
   125    22    23   ar
   126    52    51    1
   127   111   109    1
   128    19    21   ar
   129    54    51    1
   130    54    55    1
   131   118   117    1
   132   118   119    1
   133   117   116    1
   134    42    39    1
   135    51    50    1
   136    23    21   ar
   137   110   108    1
   138    37    36    1
   139    36    33    1
   140    49    48    2
   141   109   108    1
   142   116   113    1
   143    38    39    1
   144    38    34   am
   145    39    40    1
   146   113   114    1
   147   113   112    1
   148   108   105    1
   149   121   120    1
   150   119   120    2
   151    32    33    1
   152    48    47    1
   153    33    34    1
   154    34    35    2
   155   114   115    2
   156   120   122    1
   157    47    46    1
   158   105   106    1
   159   105   104    1
   160    40    41    2
   161   106   107    2
