@<TRIPOS>MOLECULE
tmp/6i4bA01.pdb
 98 92 0 0 0
SMALL
GASTEIGER

@<TRIPOS>ATOM
      1  N         19.5730  -20.9740   30.9480 N.3    73  LYS73      -0.1245
      2  CA        19.4400  -19.5350   31.1770 C.3    73  LYS73       0.1561
      3  C         20.7280  -18.7940   30.8370 C.2    73  LYS73       0.2260
      4  O         20.6840  -17.6620   30.3400 O.2    73  LYS73      -0.2867
      5  CB        19.0330  -19.2650   32.6280 C.3    73  LYS73       0.0271
      6  CG        17.5330  -19.3860   32.8900 C.3    73  LYS73       0.0035
      7  CD        17.2160  -19.5870   34.3730 C.3    73  LYS73       0.0206
      8  CE        15.7220  -19.3860   34.6630 C.3    73  LYS73       0.1093
      9  NZ        15.1600  -18.0520   34.2170 N.3    73  LYS73      -0.1314
     10  N         15.9870  -16.5560   30.0110 N.3    93  THR93      -0.1218
     11  CA        16.0150  -15.1040   29.8230 C.3    93  THR93       0.1862
     12  C         17.1930  -14.4190   30.5190 C.2    93  THR93       0.2287
     13  O         17.4850  -14.7140   31.6700 O.2    93  THR93      -0.2866
     14  CB        14.7000  -14.4830   30.3450 C.3    93  THR93       0.1770
     15  OG1       13.5950  -14.9110   29.5240 O.3    93  THR93      -0.2211
     16  CG2       14.7810  -12.9600   30.3160 C.3    93  THR93       0.0375
     17  N          7.2400  -22.8540   39.2170 N.3   118  ASN118     -0.1240
     18  CA         8.5380  -22.2500   39.4590 C.3   118  ASN118      0.1653
     19  C          8.3680  -20.7760   39.7790 C.2   118  ASN118      0.2266
     20  O          7.5040  -20.1050   39.2100 O.2   118  ASN118     -0.2867
     21  CB         9.4770  -22.4060   38.2560 C.3   118  ASN118      0.1155
     22  CG         9.3980  -21.2230   37.2930 C.2   118  ASN118      0.2627
     23  OD1       10.0810  -20.2110   37.4790 O.2   118  ASN118     -0.2716
     24  ND2        8.5680  -21.3520   36.2510 N.am  118  ASN118     -0.0877
     25  N         11.3980  -18.7000   39.7410 N.3   120  CYS120     -0.1221
     26  CA        12.8330  -18.4590   39.5960 C.3   120  CYS120      0.1808
     27  C         13.1750  -16.9720   39.6940 C.2   120  CYS120      0.2602
     28  O         13.9970  -16.5620   40.5260 O.2   120  CYS120     -0.2717
     29  CB        13.3160  -19.0400   38.2690 C.3   120  CYS120      0.0970
     30  SG        13.3540  -20.8520   38.2670 S.3   120  CYS120     -0.0800
     31  N         12.5810  -16.1530   38.8320 N.am  121  GLY121     -0.1942
     32  CA        12.8240  -14.7220   38.8830 C.3   121  GLY121      0.2014
     33  C         14.0410  -14.2570   38.1110 C.2   121  GLY121      0.2638
     34  O         14.7950  -13.4060   38.6030 O.2   121  GLY121     -0.2714
     35  N         14.2520  -14.7940   36.9100 N.am  122  PHE122     -0.1973
     36  CA        15.3220  -14.3560   36.0070 C.3   122  PHE122      0.1639
     37  C         16.7000  -14.4770   36.6590 C.2   122  PHE122      0.2290
     38  O         17.5170  -13.5560   36.6000 O.2   122  PHE122     -0.2864
     39  CB        15.0930  -12.9180   35.5220 C.3   122  PHE122      0.0560
     40  CG        14.0060  -12.7750   34.4940 C.ar  122  PHE122     -0.0200
     41  CD1       13.5350  -11.5140   34.1430 C.ar  122  PHE122     -0.0042
     42  CD2       13.4490  -13.8810   33.8920 C.ar  122  PHE122     -0.0042
     43  CE1       12.5250  -11.3600   33.1810 C.ar  122  PHE122     -0.0003
     44  CE2       12.4300  -13.7410   32.9390 C.ar  122  PHE122     -0.0003
     45  CZ        11.9710  -12.4780   32.5830 C.ar  122  PHE122     -0.0000
     46  N         10.7650  -10.9650   26.4060 N.3   186  ASN186     -0.1240
     47  CA        10.0180  -11.6110   27.4880 C.3   186  ASN186      0.1653
     48  C          9.2210  -10.5490   28.2470 C.2   186  ASN186      0.2266
     49  O          9.7590   -9.8400   29.1070 O.2   186  ASN186     -0.2867
     50  CB        10.9640  -12.3830   28.4070 C.3   186  ASN186      0.1155
     51  CG        10.2300  -13.3010   29.3690 C.2   186  ASN186      0.2627
     52  OD1        9.0670  -13.0760   29.6870 O.2   186  ASN186     -0.2716
     53  ND2       10.9200  -14.3200   29.8680 N.am  186  ASN186     -0.0877
     54  N          7.0030  -13.3510   31.9500 N.3   189  SER189     -0.1203
     55  CA         7.3840  -14.0120   33.1910 C.3   189  SER189      0.2005
     56  C          6.4180  -13.6170   34.3030 C.2   189  SER189      0.2461
     57  O          6.1760  -12.4210   34.5090 O.2   189  SER189     -0.2732
     58  CB         8.8040  -13.6370   33.6130 C.3   189  SER189      0.2103
     59  OG         9.1590  -14.3070   34.8190 O.3   189  SER189     -0.2182
     60  N          5.8440  -14.5750   35.0290 N.am  190  PRO190     -0.2717
     61  CA         5.0180  -14.2180   36.1850 C.3   190  PRO190      0.1535
     62  C          5.8180  -13.8640   37.4320 C.2   190  PRO190      0.2598
     63  O          5.2070  -13.5260   38.4510 O.2   190  PRO190     -0.2715
     64  CB         4.1830  -15.4880   36.4050 C.3   190  PRO190      0.0310
     65  CG         5.0880  -16.5940   35.9570 C.3   190  PRO190      0.0237
     66  CD         5.9450  -16.0350   34.8390 C.3   190  PRO190      0.0939
     67  N          7.1530  -13.9010   37.3820 N.am  191  ASN191     -0.1973
     68  CA         7.9820  -13.8780   38.5880 C.3   191  ASN191      0.1688
     69  C          8.8370  -12.6230   38.7370 C.2   191  ASN191      0.2292
     70  O          9.6530  -12.5540   39.6660 O.2   191  ASN191     -0.2864
     71  CB         8.8830  -15.1120   38.6270 C.3   191  ASN191      0.1181
     72  CG         8.0970  -16.3850   38.6310 C.2   191  ASN191      0.2629
     73  OD1        7.1120  -16.5090   39.3620 O.2   191  ASN191     -0.2716
     74  ND2        8.5120  -17.3430   37.8130 N.am  191  ASN191     -0.0877
     75  N          7.1290  -13.2980   23.5350 N.3   243  LYS243     -0.1245
     76  CA         6.5570  -14.3810   24.3260 C.3   243  LYS243      0.1561
     77  C          5.4520  -13.8160   25.2080 C.2   243  LYS243      0.2260
     78  O          5.6980  -12.9090   26.0100 O.2   243  LYS243     -0.2867
     79  CB         7.6210  -15.0670   25.1810 C.3   243  LYS243      0.0271
     80  CG         7.1200  -16.3340   25.8420 C.3   243  LYS243      0.0035
     81  CD         8.2470  -17.1350   26.4250 C.3   243  LYS243      0.0206
     82  CE         7.7670  -18.4970   26.9090 C.3   243  LYS243      0.1093
     83  NZ         8.9230  -19.3160   27.3330 N.3   243  LYS243     -0.1314
     84  N          3.8600  -18.5720   27.7310 N.3   272  ASN272     -0.1225
     85  CA         4.6000  -18.7010   28.9750 C.3   272  ASN272      0.1785
     86  C          3.7740  -19.5010   29.9780 C.2   272  ASN272      0.2597
     87  O          2.6950  -20.0060   29.6650 O.2   272  ASN272     -0.2718
     88  CB         4.9530  -17.3180   29.5260 C.3   272  ASN272      0.1169
     89  CG         6.3070  -17.2960   30.2170 C.2   272  ASN272      0.2627
     90  OD1        6.6110  -18.1650   31.0380 O.2   272  ASN272     -0.2716
     91  ND2        7.1350  -16.3120   29.8670 N.am  272  ASN272     -0.0877
     92  N          4.2770  -19.6170   31.2060 N.am  273  THR273     -0.1953
     93  CA         3.5530  -20.3510   32.2340 C.3   273  THR273      0.1897
     94  C          2.3250  -19.5660   32.6990 C.2   273  THR273      0.2313
     95  O          2.1980  -18.3650   32.4670 O.2   273  THR273     -0.2863
     96  CB         4.4710  -20.6470   33.4240 C.3   273  THR273      0.1794
     97  OG1        4.9050  -19.4150   34.0070 O.3   273  THR273     -0.2208
     98  CG2        5.6900  -21.4070   32.9580 C.3   273  THR273      0.0378
@<TRIPOS>BOND
     1    75    76    1
     2    76    79    1
     3    76    77    1
     4    79    80    1
     5    77    78    2
     6    80    81    1
     7    46    47    1
     8    81    82    1
     9    82    83    1
    10    47    48    1
    11    47    50    1
    12    84    85    1
    13    48    49    2
    14    50    51    1
    15    85    88    1
    16    85    86    1
    17    51    52    2
    18    51    53   am
    19    15    14    1
    20    88    89    1
    21    87    86    2
    22    11    10    1
    23    11    14    1
    24    11    12    1
    25    91    89   am
    26    86    92   am
    27    89    90    2
    28    16    14    1
    29     4     3    2
    30    12    13    2
    31     3     2    1
    32     1     2    1
    33     2     5    1
    34    92    93    1
    35    54    55    1
    36    93    94    1
    37    93    96    1
    38    95    94    2
    39    45    44   ar
    40    45    43   ar
    41     5     6    1
    42     6     7    1
    43    44    42   ar
    44    98    96    1
    45    43    41   ar
    46    55    58    1
    47    55    56    1
    48    96    97    1
    49    58    59    1
    50    42    40   ar
    51    41    40   ar
    52     9     8    1
    53    56    57    2
    54    56    60   am
    55     7     8    1
    56    40    39    1
    57    66    60    1
    58    66    65    1
    59    60    61    1
    60    39    36    1
    61    65    64    1
    62    36    37    1
    63    36    35    1
    64    61    64    1
    65    61    62    1
    66    24    22   am
    67    38    37    2
    68    35    33   am
    69    22    23    2
    70    22    21    1
    71    67    62   am
    72    67    68    1
    73    62    63    2
    74    74    72   am
    75    33    34    2
    76    33    32    1
    77    21    18    1
    78    30    29    1
    79    29    26    1
    80    68    71    1
    81    68    69    1
    82    71    72    1
    83    72    73    2
    84    69    70    2
    85    31    32    1
    86    31    27   am
    87    20    19    2
    88    17    18    1
    89    18    19    1
    90    26    27    1
    91    26    25    1
    92    27    28    2
