@<TRIPOS>MOLECULE
tmp/6i53B02.pdb
 133 128 0 0 0
SMALL
GASTEIGER

@<TRIPOS>ATOM
      1  N        149.2090  156.9090  134.1230 N.3   213  LYS213     -0.1231
      2  CA       149.9530  156.7250  132.8870 C.3   213  LYS213      0.1693
      3  C        149.0450  156.0960  131.8400 C.2   213  LYS213      0.2592
      4  O        148.4330  155.0520  132.0840 O.2   213  LYS213     -0.2718
      5  CB       151.1710  155.8390  133.1280 C.3   213  LYS213      0.0285
      6  CG       152.2320  156.4450  134.0210 C.3   213  LYS213      0.0035
      7  CD       153.3870  155.4760  134.2050 C.3   213  LYS213      0.0206
      8  CE       154.4520  156.0430  135.1230 C.3   213  LYS213      0.1093
      9  NZ       155.5690  155.0800  135.3260 N.3   213  LYS213     -0.1314
     10  N        148.9580  156.7230  130.6730 N.am  214  ILE214     -0.1966
     11  CA       148.0110  156.3120  129.6490 C.3   214  ILE214      0.1727
     12  C        148.6510  155.3670  128.6330 C.2   214  ILE214      0.2616
     13  O        148.0930  155.1480  127.5610 O.2   214  ILE214     -0.2715
     14  CB       147.3750  157.5240  128.9550 C.3   214  ILE214      0.0290
     15  CG1      148.4410  158.3500  128.2360 C.3   214  ILE214      0.0022
     16  CG2      146.6500  158.3760  129.9680 C.3   214  ILE214      0.0023
     17  CD1      147.8700  159.4140  127.3340 C.3   214  ILE214      0.0001
     18  N        149.8090  154.7930  128.9600 N.am  215  GLY215     -0.1955
     19  CA       150.4730  153.8860  128.0430 C.3   215  GLY215      0.1869
     20  C        149.7570  152.5680  127.8390 C.2   215  GLY215      0.2309
     21  O        149.9440  151.9310  126.7990 O.2   215  GLY215     -0.2863
     22  N        146.5300  153.1700  125.2490 N.3   218  VAL218     -0.1231
     23  CA       146.9270  153.3690  123.8610 C.3   218  VAL218      0.1692
     24  C        147.1500  152.0240  123.1810 C.2   218  VAL218      0.2591
     25  O        146.7200  151.8110  122.0420 O.2   218  VAL218     -0.2718
     26  CB       148.1740  154.2690  123.7910 C.3   218  VAL218      0.0266
     27  CG1      148.7050  154.3620  122.3750 C.3   218  VAL218      0.0020
     28  CG2      147.8400  155.6530  124.3020 C.3   218  VAL218      0.0020
     29  N        147.7760  151.0800  123.8860 N.am  219  ILE219     -0.1980
     30  CA       148.0600  149.7720  123.3040 C.3   219  ILE219      0.1595
     31  C        146.7820  148.9530  123.1670 C.2   219  ILE219      0.2287
     32  O        146.5520  148.3000  122.1420 O.2   219  ILE219     -0.2864
     33  CB       149.1090  149.0370  124.1570 C.3   219  ILE219      0.0276
     34  CG1      150.3980  149.8450  124.2370 C.3   219  ILE219      0.0022
     35  CG2      149.4150  147.6640  123.5860 C.3   219  ILE219      0.0022
     36  CD1      151.3500  149.3220  125.2770 C.3   219  ILE219      0.0001
     37  N        143.1860  152.5360  122.1910 N.3   222  TYR222     -0.1227
     38  CA       143.2740  153.6150  121.2090 C.3   222  TYR222      0.1736
     39  C        143.8200  153.1260  119.8720 C.2   222  TYR222      0.2595
     40  O        143.2510  153.4280  118.8190 O.2   222  TYR222     -0.2718
     41  CB       144.1200  154.7650  121.7530 C.3   222  TYR222      0.0548
     42  CG       143.4160  155.6010  122.8000 C.ar  222  TYR222     -0.0200
     43  CD1      142.4890  156.5620  122.4290 C.ar  222  TYR222     -0.0009
     44  CD2      143.6860  155.4420  124.1510 C.ar  222  TYR222     -0.0009
     45  CE1      141.8400  157.3320  123.3700 C.ar  222  TYR222      0.0417
     46  CE2      143.0410  156.2090  125.1030 C.ar  222  TYR222      0.0417
     47  CZ       142.1200  157.1520  124.7030 C.ar  222  TYR222      0.1957
     48  OH       141.4750  157.9220  125.6390 O.3   222  TYR222     -0.2866
     49  N        144.9060  152.3600  119.8870 N.am  223  LEU223     -0.1980
     50  CA       145.4260  151.8250  118.6280 C.3   223  LEU223      0.1596
     51  C        144.5650  150.7380  117.9740 C.2   223  LEU223      0.2287
     52  O        144.5200  150.7070  116.7400 O.2   223  LEU223     -0.2864
     53  CB       146.8580  151.3100  118.8000 C.3   223  LEU223      0.0297
     54  CG       147.9310  152.3790  118.9860 C.3   223  LEU223      0.0022
     55  CD1      149.2740  151.7290  119.2460 C.3   223  LEU223      0.0001
     56  CD2      147.9970  153.2800  117.7680 C.3   223  LEU223      0.0001
     57  N        142.0100  153.0430  116.2950 N.3   226  ILE226     -0.1231
     58  CA       142.5180  153.8090  115.1610 C.3   226  ILE226      0.1692
     59  C        142.7520  152.8980  113.9630 C.2   226  ILE226      0.2591
     60  O        142.3560  153.2200  112.8360 O.2   226  ILE226     -0.2718
     61  CB       143.7900  154.5820  115.5600 C.3   226  ILE226      0.0266
     62  CG1      143.4380  155.7210  116.5150 C.3   226  ILE226      0.0019
     63  CG2      144.5140  155.1300  114.3430 C.3   226  ILE226      0.0020
     64  CD1      144.6360  156.3710  117.1550 C.3   226  ILE226      0.0001
     65  N        143.3450  151.7240  114.1890 N.am  227  MET227     -0.1979
     66  CA       143.6010  150.7860  113.1010 C.3   227  MET227      0.1605
     67  C        142.3350  150.1200  112.5770 C.2   227  MET227      0.2287
     68  O        142.3910  149.4780  111.5260 O.2   227  MET227     -0.2864
     69  CB       144.5970  149.7160  113.5520 C.3   227  MET227      0.0413
     70  CG       145.9820  150.2540  113.8710 C.3   227  MET227      0.0598
     71  SD       146.8210  150.9860  112.4610 S.3   227  MET227     -0.1393
     72  CE       147.2240  149.5130  111.5390 C.3   227  MET227      0.0692
     73  N        140.9480  152.9350  110.0670 N.3   230  ILE230     -0.1245
     74  CA       141.7580  152.8960  108.8530 C.3   230  ILE230      0.1561
     75  C        141.3370  151.7320  107.9600 C.2   230  ILE230      0.2260
     76  O        141.2520  151.8780  106.7350 O.2   230  ILE230     -0.2867
     77  CB       143.2520  152.8400  109.2230 C.3   230  ILE230      0.0252
     78  CG1      143.6570  154.1220  109.9460 C.3   230  ILE230      0.0019
     79  CG2      144.1240  152.6660  107.9980 C.3   230  ILE230      0.0019
     80  CD1      145.0290  154.0630  110.5690 C.3   230  ILE230      0.0001
     81  N        138.9840  162.5790  110.1120 N.3   335  PHE335     -0.1227
     82  CA       139.4360  161.7750  111.2380 C.3   335  PHE335      0.1736
     83  C        140.7220  162.3350  111.8260 C.2   335  PHE335      0.2596
     84  O        140.9050  162.3160  113.0460 O.2   335  PHE335     -0.2718
     85  CB       139.6280  160.3210  110.8110 C.3   335  PHE335      0.0547
     86  CG       140.0880  159.4210  111.9190 C.ar  335  PHE335     -0.0202
     87  CD1      139.2220  159.0550  112.9340 C.ar  335  PHE335     -0.0042
     88  CD2      141.3820  158.9290  111.9360 C.ar  335  PHE335     -0.0042
     89  CE1      139.6420  158.2250  113.9530 C.ar  335  PHE335     -0.0003
     90  CE2      141.8070  158.0960  112.9520 C.ar  335  PHE335     -0.0003
     91  CZ       140.9350  157.7450  113.9610 C.ar  335  PHE335     -0.0000
     92  N        141.6150  162.8480  110.9770 N.am  336  GLY336     -0.1957
     93  CA       142.8520  163.4270  111.4700 C.3   336  GLY336      0.1869
     94  C        142.6600  164.7620  112.1610 C.2   336  GLY336      0.2309
     95  O        143.4320  165.1130  113.0570 O.2   336  GLY336     -0.2863
     96  N        141.4460  163.8610  115.4650 N.3   339  ASN339     -0.1225
     97  CA       142.5180  163.2300  116.2180 C.3   339  ASN339      0.1785
     98  C        143.5600  164.2370  116.6960 C.2   339  ASN339      0.2597
     99  O        144.4790  163.8580  117.4240 O.2   339  ASN339     -0.2718
    100  CB       143.1770  162.1550  115.3520 C.3   339  ASN339      0.1169
    101  CG       143.7870  161.0430  116.1620 C.2   339  ASN339      0.2627
    102  OD1      143.6900  161.0230  117.3820 O.2   339  ASN339     -0.2716
    103  ND2      144.4060  160.0910  115.4780 N.am  339  ASN339     -0.0877
    104  N        143.4430  165.5050  116.3000 N.am  340  LEU340     -0.1980
    105  CA       144.2290  166.5980  116.8590 C.3   340  LEU340      0.1596
    106  C        143.4850  167.3590  117.9440 C.2   340  LEU340      0.2287
    107  O        144.0980  167.7670  118.9330 O.2   340  LEU340     -0.2864
    108  CB       144.6410  167.5840  115.7620 C.3   340  LEU340      0.0297
    109  CG       145.6530  167.1370  114.7110 C.3   340  LEU340      0.0022
    110  CD1      145.8090  168.2220  113.6670 C.3   340  LEU340      0.0001
    111  CD2      146.9870  166.8270  115.3570 C.3   340  LEU340      0.0001
    112  N        143.4430  165.0320  121.2940 N.3   343  TRP343     -0.1241
    113  CA       144.6750  164.9330  122.0640 C.3   343  TRP343      0.1605
    114  C        145.2590  166.2850  122.4460 C.2   343  TRP343      0.2264
    115  O        146.3230  166.3260  123.0700 O.2   343  TRP343     -0.2867
    116  CB       145.7180  164.1250  121.2930 C.3   343  TRP343      0.0550
    117  CG       145.3190  162.7080  121.1180 C.ar  343  TRP343      0.0003
    118  CD1      144.7590  162.1580  120.0160 C.ar  343  TRP343      0.0946
    119  CD2      145.4220  161.6580  122.0850 C.ar  343  TRP343      0.0152
    120  NE1      144.5150  160.8240  120.2190 N.ar  343  TRP343     -0.2442
    121  CE2      144.9130  160.4920  121.4860 C.ar  343  TRP343      0.0810
    122  CE3      145.9000  161.5900  123.3940 C.ar  343  TRP343      0.0012
    123  CZ2      144.8690  159.2720  122.1500 C.ar  343  TRP343      0.0191
    124  CZ3      145.8570  160.3770  124.0500 C.ar  343  TRP343      0.0001
    125  CH2      145.3430  159.2360  123.4290 C.ar  343  TRP343      0.0015
    126  N        145.4270  166.5170  126.8000 N.3   347  LEU347     -0.1245
    127  CA       146.8250  166.4990  127.2070 C.3   347  LEU347      0.1561
    128  C        147.3380  167.8690  127.6340 C.2   347  LEU347      0.2260
    129  O        148.4750  167.9650  128.1080 O.2   347  LEU347     -0.2867
    130  CB       147.7000  165.9520  126.0790 C.3   347  LEU347      0.0270
    131  CG       147.5120  164.4720  125.7430 C.3   347  LEU347      0.0019
    132  CD1      148.3520  164.0800  124.5410 C.3   347  LEU347      0.0001
    133  CD2      147.8580  163.6050  126.9390 C.3   347  LEU347      0.0001
@<TRIPOS>BOND
     1    76    75    2
     2    75    74    1
     3    79    77    1
     4    74    77    1
     5    74    73    1
     6    77    78    1
     7    78    80    1
     8    81    82    1
     9    85    82    1
    10    85    86    1
    11    92    93    1
    12    92    83   am
    13    82    83    1
    14    93    94    1
    15    68    67    2
    16    72    71    1
    17    83    84    2
    18    86    88   ar
    19    86    87   ar
    20    88    90   ar
    21    94    95    2
    22    71    70    1
    23    67    66    1
    24    60    59    2
    25    87    89   ar
    26    90    91   ar
    27    66    69    1
    28    66    65    1
    29    69    70    1
    30   110   109    1
    31    89    91   ar
    32    59    65   am
    33    59    58    1
    34    63    61    1
    35   109   111    1
    36   109   108    1
    37    58    61    1
    38    58    57    1
    39   100   101    1
    40   100    97    1
    41    96    97    1
    42   103   101   am
    43    61    62    1
    44   108   105    1
    45   101   102    2
    46    97    98    1
    47   104    98   am
    48   104   105    1
    49    62    64    1
    50    98    99    2
    51    52    51    2
    52   105   106    1
    53    56    54    1
    54   106   107    2
    55    51    50    1
    56    50    53    1
    57    50    49    1
    58    53    54    1
    59    40    39    2
    60    54    55    1
    61    39    49   am
    62    39    38    1
    63   118   120   ar
    64   118   117   ar
    65   120   121   ar
    66   117   116    1
    67   117   119   ar
    68    38    41    1
    69    38    37    1
    70   116   113    1
    71   112   113    1
    72   121   119   ar
    73   121   123   ar
    74    41    42    1
    75    25    24    2
    76   113   114    1
    77   119   122   ar
    78    32    31    2
    79   123   125   ar
    80    27    26    1
    81    43    42   ar
    82    43    45   ar
    83   114   115    2
    84    42    44   ar
    85    31    30    1
    86    24    23    1
    87    24    29   am
    88    30    29    1
    89    30    33    1
    90    45    47   ar
    91   122   124   ar
    92   125   124   ar
    93    35    33    1
    94    26    23    1
    95    26    28    1
    96    23    22    1
    97    44    46   ar
    98    33    34    1
    99    34    36    1
   100   132   131    1
   101    47    46   ar
   102    47    48    1
   103   131   130    1
   104   131   133    1
   105   130   127    1
   106    21    20    2
   107   126   127    1
   108   127   128    1
   109    17    15    1
   110    13    12    2
   111   128   129    2
   112    20    19    1
   113    19    18    1
   114    15    14    1
   115    12    18   am
   116    12    11    1
   117    14    11    1
   118    14    16    1
   119    11    10    1
   120    10     3   am
   121     3     4    2
   122     3     2    1
   123     2     5    1
   124     2     1    1
   125     5     6    1
   126     6     7    1
   127     7     8    1
   128     8     9    1
