@<TRIPOS>MOLECULE
tmp/6i53B00.pdb
 164 158 0 0 0
SMALL
GASTEIGER

@<TRIPOS>ATOM
      1  N        133.9030  149.8200   92.5430 N.3   240  ARG240     -0.1245
      2  CA       132.5260  149.7760   93.0080 C.3   240  ARG240      0.1563
      3  C        131.7900  148.5170   92.5720 C.2   240  ARG240      0.2260
      4  O        130.6560  148.3020   93.0130 O.2   240  ARG240     -0.2867
      5  CB       131.7860  151.0230   92.5190 C.3   240  ARG240      0.0307
      6  CG       131.6630  151.1250   91.0130 C.3   240  ARG240      0.0489
      7  CD       131.1150  152.4780   90.5890 C.3   240  ARG240      0.2205
      8  NE       129.7630  152.7140   91.0810 N.pl3 240  ARG240     -0.0865
      9  CZ       129.1580  153.8960   91.0520 C.cat 240  ARG240      0.5346
     10  NH1      129.7790  154.9490   90.5450 N.pl3 240  ARG240      0.1354
     11  NH2      127.9310  154.0260   91.5260 N.pl3 240  ARG240      0.1354
     12  N        129.6960  155.4340  109.1740 N.3   290  SER290     -0.1217
     13  CA       129.5240  156.2300  107.9660 C.3   290  SER290      0.1889
     14  C        130.3380  155.7150  106.7900 C.2   290  SER290      0.2288
     15  O        130.0970  156.1480  105.6600 O.2   290  SER290     -0.2866
     16  CB       129.8910  157.6890  108.2340 C.3   290  SER290      0.2089
     17  OG       129.0180  158.2620  109.1890 O.3   290  SER290     -0.2183
     18  N        127.5140  153.3960  105.2310 N.3   293  ILE293     -0.1231
     19  CA       126.4390  154.1820  104.6320 C.3   293  ILE293      0.1692
     20  C        126.9320  154.8660  103.3600 C.2   293  ILE293      0.2591
     21  O        126.1570  155.0810  102.4180 O.2   293  ILE293     -0.2718
     22  CB       125.8990  155.1860  105.6720 C.3   293  ILE293      0.0266
     23  CG1      125.4580  154.4470  106.9350 C.3   293  ILE293      0.0019
     24  CG2      124.7170  155.9840  105.1430 C.3   293  ILE293      0.0020
     25  CD1      124.3620  153.4330  106.7050 C.3   293  ILE293      0.0001
     26  N        128.2290  155.1870  103.2990 N.am  294  GLU294     -0.1979
     27  CA       128.8330  155.6880  102.0670 C.3   294  GLU294      0.1602
     28  C        128.7730  154.6440  100.9600 C.2   294  GLU294      0.2287
     29  O        128.4360  154.9670   99.8150 O.2   294  GLU294     -0.2864
     30  CB       130.2820  156.1000  102.3330 C.3   294  GLU294      0.0415
     31  CG       130.9720  156.9110  101.2330 C.3   294  GLU294      0.1163
     32  CD       131.6090  156.0540  100.1530 C.2   294  GLU294      0.3649
     33  OE1      131.9000  154.8710  100.4230 O.co2 294  GLU294     -0.2457
     34  OE2      131.8410  156.5690   99.0430 O.co2 294  GLU294     -0.2457
     35  N        125.4270  154.1890   99.4230 N.3   297  THR297     -0.1203
     36  CA       125.0830  155.2090   98.4430 C.3   297  THR297      0.1994
     37  C        125.7330  154.9180   97.0930 C.2   297  THR297      0.2617
     38  O        125.0990  155.0920   96.0470 O.2   297  THR297     -0.2717
     39  CB       125.5000  156.5830   98.9630 C.3   297  THR297      0.1784
     40  OG1      124.9070  156.7990  100.2490 O.3   297  THR297     -0.2211
     41  CG2      125.0180  157.6720   98.0320 C.3   297  THR297      0.0376
     42  N        126.9850  154.4510   97.1030 N.am  298  VAL298     -0.1979
     43  CA       127.6860  154.1320   95.8610 C.3   298  VAL298      0.1595
     44  C        127.0600  152.9120   95.1900 C.2   298  VAL298      0.2287
     45  O        126.9550  152.8470   93.9580 O.2   298  VAL298     -0.2864
     46  CB       129.1870  153.9330   96.1530 C.3   298  VAL298      0.0276
     47  CG1      129.9600  153.5500   94.9020 C.3   298  VAL298      0.0022
     48  CG2      129.7680  155.1920   96.7560 C.3   298  VAL298      0.0022
     49  N        123.8230  153.8490   93.1040 N.3   301  PHE301     -0.1241
     50  CA       123.9740  154.4720   91.7980 C.3   301  PHE301      0.1605
     51  C        124.8110  153.6450   90.8330 C.2   301  PHE301      0.2264
     52  O        125.1290  154.1290   89.7430 O.2   301  PHE301     -0.2867
     53  CB       124.5890  155.8680   91.9420 C.3   301  PHE301      0.0534
     54  CG       123.6930  156.8550   92.6310 C.ar  301  PHE301     -0.0203
     55  CD1      122.6400  157.4440   91.9510 C.ar  301  PHE301     -0.0042
     56  CD2      123.9120  157.2060   93.9520 C.ar  301  PHE301     -0.0042
     57  CE1      121.8130  158.3570   92.5810 C.ar  301  PHE301     -0.0003
     58  CE2      123.0910  158.1180   94.5880 C.ar  301  PHE301     -0.0003
     59  CZ       122.0410  158.6940   93.9010 C.ar  301  PHE301     -0.0000
     60  N        125.2260  151.2300   88.0020 N.3   303  LYS303     -0.1231
     61  CA       124.3590  150.7440   86.9370 C.3   303  LYS303      0.1693
     62  C        124.7960  149.3690   86.4390 C.2   303  LYS303      0.2591
     63  O        124.0340  148.3990   86.5200 O.2   303  LYS303     -0.2718
     64  CB       124.3400  151.7490   85.7800 C.3   303  LYS303      0.0285
     65  CG       123.6810  153.0720   86.1200 C.3   303  LYS303      0.0035
     66  CD       123.6880  154.0090   84.9270 C.3   303  LYS303      0.0206
     67  CE       123.0640  155.3450   85.2800 C.3   303  LYS303      0.1093
     68  NZ       123.0860  156.2810   84.1260 N.3   303  LYS303     -0.1314
     69  N        126.0200  149.2710   85.9330 N.am  304  ARG304     -0.1980
     70  CA       126.5340  148.0470   85.3290 C.3   304  ARG304      0.1597
     71  C        127.0930  147.1520   86.4300 C.2   304  ARG304      0.2287
     72  O        127.9510  147.5760   87.2080 O.2   304  ARG304     -0.2864
     73  CB       127.5970  148.3670   84.2800 C.3   304  ARG304      0.0334
     74  CG       127.0430  148.7090   82.8980 C.3   304  ARG304      0.0492
     75  CD       126.6070  150.1610   82.7550 C.3   304  ARG304      0.2205
     76  NE       127.7200  151.1020   82.8290 N.pl3 304  ARG304     -0.0865
     77  CZ       127.5710  152.4180   82.9430 C.cat 304  ARG304      0.5346
     78  NH1      126.3560  152.9440   82.9930 N.pl3 304  ARG304      0.1354
     79  NH2      128.6320  153.2090   83.0030 N.pl3 304  ARG304      0.1354
     80  N        131.2640  150.5620   80.7360 N.3   317  PHE317     -0.1227
     81  CA       131.6940  150.2370   82.0860 C.3   317  PHE317      0.1736
     82  C        131.3010  151.3760   83.0210 C.2   317  PHE317      0.2595
     83  O        130.9360  152.4690   82.5840 O.2   317  PHE317     -0.2718
     84  CB       133.2030  149.9860   82.1220 C.3   317  PHE317      0.0547
     85  CG       133.6350  148.7980   81.3150 C.ar  317  PHE317     -0.0202
     86  CD1      133.5590  147.5190   81.8400 C.ar  317  PHE317     -0.0042
     87  CD2      134.1060  148.9600   80.0230 C.ar  317  PHE317     -0.0042
     88  CE1      133.9550  146.4230   81.0930 C.ar  317  PHE317     -0.0003
     89  CE2      134.4990  147.8700   79.2710 C.ar  317  PHE317     -0.0003
     90  CZ       134.4250  146.6000   79.8080 C.ar  317  PHE317     -0.0000
     91  N        131.3780  151.1140   84.3210 N.am  318  ASN318     -0.1960
     92  CA       131.0670  152.1150   85.3310 C.3   318  ASN318      0.1819
     93  C        132.2930  152.9790   85.5780 C.2   318  ASN318      0.2622
     94  O        133.4020  152.4590   85.7430 O.2   318  ASN318     -0.2715
     95  CB       130.6220  151.4630   86.6390 C.3   318  ASN318      0.1195
     96  CG       129.2870  150.7740   86.5200 C.2   318  ASN318      0.2630
     97  OD1      128.3620  151.2840   85.8910 O.2   318  ASN318     -0.2716
     98  ND2      129.1760  149.6050   87.1330 N.am  318  ASN318     -0.0877
     99  N        132.0920  154.2910   85.6050 N.am  319  SER319     -0.1936
    100  CA       133.1770  155.1990   85.9330 C.3   319  SER319      0.2055
    101  C        133.4920  155.1310   87.4240 C.2   319  SER319      0.2643
    102  O        132.7070  154.6210   88.2290 O.2   319  SER319     -0.2714
    103  CB       132.8160  156.6310   85.5420 C.3   319  SER319      0.2130
    104  OG       131.7430  157.1130   86.3310 O.3   319  SER319     -0.2179
    105  N        134.6740  155.6350   87.7820 N.am  320  VAL320     -0.1963
    106  CA       135.0380  155.7800   89.1850 C.3   320  VAL320      0.1727
    107  C        134.1210  156.8180   89.8150 C.2   320  VAL320      0.2617
    108  O        133.8730  157.8810   89.2300 O.2   320  VAL320     -0.2715
    109  CB       136.5200  156.1650   89.3160 C.3   320  VAL320      0.0290
    110  CG1      136.9180  156.3510   90.7730 C.3   320  VAL320      0.0023
    111  CG2      137.3950  155.1140   88.6550 C.3   320  VAL320      0.0023
    112  N        133.5830  156.4970   90.9900 N.am  321  SER321     -0.1936
    113  CA       132.5040  157.2840   91.5700 C.3   321  SER321      0.2055
    114  C        132.9950  158.6430   92.0490 C.2   321  SER321      0.2643
    115  O        134.1060  158.7760   92.5680 O.2   321  SER321     -0.2714
    116  CB       131.8680  156.5280   92.7320 C.3   321  SER321      0.2130
    117  OG       130.8380  157.2950   93.3280 O.3   321  SER321     -0.2179
    118  N        132.1530  159.6610   91.8600 N.am  322  LYS322     -0.1963
    119  CA       132.4570  160.9890   92.3740 C.3   322  LYS322      0.1728
    120  C        132.3420  161.0490   93.8880 C.2   322  LYS322      0.2616
    121  O        132.9240  161.9450   94.5080 O.2   322  LYS322     -0.2715
    122  CB       131.5320  162.0280   91.7390 C.3   322  LYS322      0.0311
    123  CG       131.6870  162.1650   90.2320 C.3   322  LYS322      0.0038
    124  CD       130.8330  163.3040   89.6900 C.3   322  LYS322      0.0206
    125  CE       129.3500  162.9730   89.7340 C.3   322  LYS322      0.1093
    126  NZ       128.9980  161.8770   88.7920 N.3   322  LYS322     -0.1314
    127  N        131.6020  160.1190   94.4930 N.am  323  ILE323     -0.1977
    128  CA       131.5500  160.0370   95.9460 C.3   323  ILE323      0.1596
    129  C        132.8400  159.4300   96.4820 C.2   323  ILE323      0.2287
    130  O        133.3500  159.8460   97.5290 O.2   323  ILE323     -0.2864
    131  CB       130.3090  159.2370   96.3820 C.3   323  ILE323      0.0276
    132  CG1      129.0470  159.8910   95.8320 C.3   323  ILE323      0.0022
    133  CG2      130.1860  159.1910   97.8890 C.3   323  ILE323      0.0022
    134  CD1      127.8190  159.0460   95.9950 C.3   323  ILE323      0.0001
    135  N        135.8480  161.9290   96.3920 N.3   326  LEU326     -0.1231
    136  CA       135.7950  162.8840   97.4900 C.3   326  LEU326      0.1693
    137  C        136.0840  162.2260   98.8330 C.2   326  LEU326      0.2592
    138  O        136.8350  162.7780   99.6430 O.2   326  LEU326     -0.2718
    139  CB       134.4270  163.5650   97.5280 C.3   326  LEU326      0.0284
    140  CG       134.2500  164.6440   98.5960 C.3   326  LEU326      0.0019
    141  CD1      135.2290  165.7840   98.3700 C.3   326  LEU326      0.0001
    142  CD2      132.8210  165.1530   98.6020 C.3   326  LEU326      0.0001
    143  N        135.5130  161.0460   99.0790 N.am  327  SER327     -0.1952
    144  CA       135.6270  160.3880  100.3740 C.3   327  SER327      0.1924
    145  C        136.9460  159.6530  100.5680 C.2   327  SER327      0.2314
    146  O        137.1880  159.1420  101.6650 O.2   327  SER327     -0.2863
    147  CB       134.4640  159.4160  100.5700 C.3   327  SER327      0.2116
    148  OG       134.5110  158.3730   99.6260 O.3   327  SER327     -0.2180
    149  N        138.1880  163.1200  102.3000 N.3   330  ALA330     -0.1231
    150  CA       137.4510  163.7360  103.4000 C.3   330  ALA330      0.1694
    151  C        137.4930  162.8880  104.6660 C.2   330  ALA330      0.2592
    152  O        137.6910  163.4210  105.7630 O.2   330  ALA330     -0.2718
    153  CB       136.0060  163.9930  102.9810 C.3   330  ALA330      0.0304
    154  N        137.3020  161.5760  104.5440 N.am  331  PHE331     -0.1976
    155  CA       137.3430  160.7070  105.7190 C.3   331  PHE331      0.1639
    156  C        138.7260  160.5570  106.3630 C.2   331  PHE331      0.2290
    157  O        138.7840  160.5110  107.5970 O.2   331  PHE331     -0.2864
    158  CB       136.7560  159.3250  105.4000 C.3   331  PHE331      0.0560
    159  CG       135.2560  159.2920  105.3660 C.ar  331  PHE331     -0.0200
    160  CD1      134.5320  159.1870  106.5410 C.ar  331  PHE331     -0.0042
    161  CD2      134.5710  159.3580  104.1670 C.ar  331  PHE331     -0.0042
    162  CE1      133.1520  159.1520  106.5200 C.ar  331  PHE331     -0.0003
    163  CE2      133.1910  159.3220  104.1390 C.ar  331  PHE331     -0.0003
    164  CZ       132.4830  159.2200  105.3160 C.ar  331  PHE331     -0.0000
@<TRIPOS>BOND
     1    89    90   ar
     2    89    87   ar
     3    90    88   ar
     4    87    85   ar
     5    80    81    1
     6    88    86   ar
     7    85    86   ar
     8    85    84    1
     9    81    84    1
    10    81    82    1
    11    83    82    2
    12    75    76    1
    13    75    74    1
    14    76    77    2
    15    74    73    1
    16    77    78    1
    17    77    79    1
    18    82    91   am
    19    68    67    1
    20    73    70    1
    21    91    92    1
    22    66    67    1
    23    66    65    1
    24    70    69    1
    25    70    71    1
    26    92    93    1
    27    92    95    1
    28   103   100    1
    29   103   104    1
    30    93    99   am
    31    93    94    2
    32    99   100    1
    33    64    65    1
    34    64    61    1
    35    97    96    2
    36   100   101    1
    37    69    62   am
    38    71    72    2
    39    62    63    2
    40    62    61    1
    41    96    95    1
    42    96    98   am
    43    61    60    1
    44   101   105   am
    45   101   102    2
    46   105   106    1
    47   111   109    1
    48   126   125    1
    49   106   109    1
    50   106   107    1
    51   108   107    2
    52   109   110    1
    53   124   125    1
    54   124   123    1
    55    52    51    2
    56   107   112   am
    57   123   122    1
    58    10     9    1
    59     7     6    1
    60     7     8    1
    61    51    50    1
    62   112   113    1
    63     6     5    1
    64     9     8    2
    65     9    11    1
    66   113   114    1
    67   113   116    1
    68   122   119    1
    69    50    53    1
    70    50    49    1
    71   118   114   am
    72   118   119    1
    73    53    54    1
    74    55    57   ar
    75    55    54   ar
    76   114   115    2
    77   119   120    1
    78     5     2    1
    79     1     2    1
    80     3     2    1
    81     3     4    2
    82    57    59   ar
    83    54    56   ar
    84   116   117    1
    85   120   127   am
    86   120   121    2
    87    59    58   ar
    88    56    58   ar
    89    45    44    2
    90   127   128    1
    91    47    46    1
    92    44    43    1
    93   132   134    1
    94   132   131    1
    95    43    46    1
    96    43    42    1
    97   128   131    1
    98   128   129    1
    99    38    37    2
   100    46    48    1
   101   131   133    1
   102   135   136    1
   103   129   130    2
   104    37    42   am
   105    37    36    1
   106   136   139    1
   107   136   137    1
   108   139   140    1
   109    41    39    1
   110   141   140    1
   111    36    39    1
   112    36    35    1
   113   140   142    1
   114   137   143   am
   115   137   138    2
   116    39    40    1
   117    34    32   ar
   118   143   144    1
   119   148   147    1
   120    29    28    2
   121    32    33   ar
   122    32    31    1
   123   144   145    1
   124   144   147    1
   125   145   146    2
   126    28    27    1
   127    31    30    1
   128    27    30    1
   129    27    26    1
   130   149   150    1
   131    21    20    2
   132   153   150    1
   133    26    20   am
   134    20    19    1
   135   150   151    1
   136   163   161   ar
   137   163   164   ar
   138   161   159   ar
   139   154   151   am
   140   154   155    1
   141    19    18    1
   142    19    22    1
   143   151   152    2
   144    24    22    1
   145   164   162   ar
   146   159   158    1
   147   159   160   ar
   148   158   155    1
   149    15    14    2
   150    22    23    1
   151   155   156    1
   152   156   157    2
   153   162   160   ar
   154    25    23    1
   155    14    13    1
   156    13    16    1
   157    13    12    1
   158    16    17    1
