@<TRIPOS>MOLECULE
tmp/6i53A03.pdb
 147 143 0 0 0
SMALL
GASTEIGER

@<TRIPOS>ATOM
      1  N        121.0090  155.4500  134.3930 N.3   209  ILE209     -0.1245
      2  CA       120.8610  154.8130  133.0890 C.3   209  ILE209      0.1561
      3  C        122.0160  155.1040  132.1490 C.2   209  ILE209      0.2260
      4  O        122.0730  154.5000  131.0650 O.2   209  ILE209     -0.2867
      5  CB       119.5350  155.2230  132.4170 C.3   209  ILE209      0.0252
      6  CG1      119.5930  156.6870  131.9920 C.3   209  ILE209      0.0019
      7  CG2      118.3970  155.0610  133.3900 C.3   209  ILE209      0.0019
      8  CD1      118.4420  157.1080  131.1060 C.3   209  ILE209      0.0001
      9  N        123.3210  152.6460  128.4560 N.3   213  ILE213     -0.1245
     10  CA       123.1390  153.1600  127.1030 C.3   213  ILE213      0.1561
     11  C        124.4070  152.9490  126.2890 C.2   213  ILE213      0.2260
     12  O        124.3930  152.2800  125.2510 O.2   213  ILE213     -0.2867
     13  CB       122.7320  154.6410  127.1380 C.3   213  ILE213      0.0252
     14  CG1      121.3590  154.7930  127.7900 C.3   213  ILE213      0.0019
     15  CG2      122.7300  155.2230  125.7400 C.3   213  ILE213      0.0019
     16  CD1      120.9920  156.2230  128.1030 C.3   213  ILE213      0.0001
     17  N        122.5800  149.5030  125.0240 N.3   217  TYR217     -0.1227
     18  CA       121.4890  149.9800  124.1750 C.3   217  TYR217      0.1736
     19  C        122.0030  150.5990  122.8810 C.2   217  TYR217      0.2595
     20  O        121.6830  150.1260  121.7850 O.2   217  TYR217     -0.2718
     21  CB       120.6270  150.9880  124.9340 C.3   217  TYR217      0.0548
     22  CG       119.7780  150.3900  126.0270 C.ar  217  TYR217     -0.0200
     23  CD1      118.5950  149.7330  125.7270 C.ar  217  TYR217     -0.0009
     24  CD2      120.1450  150.5030  127.3590 C.ar  217  TYR217     -0.0009
     25  CE1      117.8100  149.1880  126.7220 C.ar  217  TYR217      0.0417
     26  CE2      119.3660  149.9640  128.3610 C.ar  217  TYR217      0.0417
     27  CZ       118.2010  149.3080  128.0360 C.ar  217  TYR217      0.1957
     28  OH       117.4210  148.7700  129.0300 O.3   217  TYR217     -0.2866
     29  N        122.7940  151.6660  122.9910 N.am  218  MET218     -0.1979
     30  CA       123.2890  152.4410  121.8530 C.3   218  MET218      0.1605
     31  C        124.1610  151.6530  120.8650 C.2   218  MET218      0.2287
     32  O        124.1290  151.9750  119.6700 O.2   218  MET218     -0.2864
     33  CB       124.0500  153.6720  122.3550 C.3   218  MET218      0.0413
     34  CG       124.2170  154.7750  121.3290 C.3   218  MET218      0.0598
     35  SD       122.6150  155.5040  120.9310 S.3   218  MET218     -0.1393
     36  CE       122.9350  156.2000  119.3100 C.3   218  MET218      0.0692
     37  N        121.3250  149.4920  119.0440 N.3   221  ILE221     -0.1245
     38  CA       120.5410  150.2690  118.0920 C.3   221  ILE221      0.1561
     39  C        121.2880  150.3930  116.7720 C.2   221  ILE221      0.2260
     40  O        120.7550  150.0660  115.7070 O.2   221  ILE221     -0.2867
     41  CB       120.2000  151.6490  118.6770 C.3   221  ILE221      0.0252
     42  CG1      119.3100  151.4990  119.9080 C.3   221  ILE221      0.0019
     43  CG2      119.5170  152.5140  117.6380 C.3   221  ILE221      0.0019
     44  CD1      119.1120  152.7820  120.6750 C.3   221  ILE221      0.0001
     45  N        120.3480  148.9670  112.9330 N.3   225  ILE225     -0.1245
     46  CA       120.2640  149.8480  111.7700 C.3   225  ILE225      0.1561
     47  C        121.1520  149.3410  110.6350 C.2   225  ILE225      0.2260
     48  O        120.7850  149.4390  109.4590 O.2   225  ILE225     -0.2867
     49  CB       120.6160  151.2900  112.1930 C.3   225  ILE225      0.0252
     50  CG1      119.5940  151.8050  113.2020 C.3   225  ILE225      0.0019
     51  CG2      120.6430  152.2440  111.0120 C.3   225  ILE225      0.0019
     52  CD1      120.0000  153.0950  113.8710 C.3   225  ILE225      0.0001
     53  N        119.7770  147.1140  107.9550 N.3   228  TRP228     -0.1241
     54  CA       118.8710  147.7420  107.0040 C.3   228  TRP228      0.1605
     55  C        119.5830  148.2330  105.7560 C.2   228  TRP228      0.2264
     56  O        118.9330  148.7860  104.8640 O.2   228  TRP228     -0.2867
     57  CB       118.1410  148.9100  107.6630 C.3   228  TRP228      0.0550
     58  CG       117.2690  148.5080  108.7990 C.ar  228  TRP228      0.0003
     59  CD1      116.8340  147.2510  109.1000 C.ar  228  TRP228      0.0946
     60  CD2      116.7740  149.3600  109.8320 C.ar  228  TRP228      0.0152
     61  NE1      116.0720  147.2740  110.2390 N.ar  228  TRP228     -0.2442
     62  CE2      116.0220  148.5590  110.7090 C.ar  228  TRP228      0.0810
     63  CE3      116.8830  150.7280  110.0920 C.ar  228  TRP228      0.0012
     64  CZ2      115.3850  149.0780  111.8270 C.ar  228  TRP228      0.0191
     65  CZ3      116.2490  151.2420  111.2020 C.ar  228  TRP228      0.0001
     66  CH2      115.5080  150.4200  112.0560 C.ar  228  TRP228      0.0015
     67  N        110.0920  152.1280  110.5450 N.3   322  PHE322     -0.1241
     68  CA       108.8990  152.5730  111.2540 C.3   322  PHE322      0.1605
     69  C        108.5300  151.6430  112.3990 C.2   322  PHE322      0.2264
     70  O        108.1240  152.1130  113.4660 O.2   322  PHE322     -0.2867
     71  CB       107.7190  152.6920  110.2870 C.3   322  PHE322      0.0534
     72  CG       106.4510  153.1700  110.9320 C.ar  322  PHE322     -0.0203
     73  CD1      106.3040  154.5000  111.2930 C.ar  322  PHE322     -0.0042
     74  CD2      105.4010  152.2930  111.1640 C.ar  322  PHE322     -0.0042
     75  CE1      105.1370  154.9460  111.8840 C.ar  322  PHE322     -0.0003
     76  CE2      104.2320  152.7330  111.7550 C.ar  322  PHE322     -0.0003
     77  CZ       104.1010  154.0610  112.1140 C.ar  322  PHE322     -0.0000
     78  N        110.5820  149.5030  114.0540 N.3   324  PHE324     -0.1227
     79  CA       111.6040  149.5760  115.0930 C.3   324  PHE324      0.1736
     80  C        111.5460  150.8960  115.8490 C.2   324  PHE324      0.2596
     81  O        111.8690  150.9390  117.0400 O.2   324  PHE324     -0.2718
     82  CB       112.9870  149.3730  114.4800 C.3   324  PHE324      0.0547
     83  CG       114.1050  149.3970  115.4770 C.ar  324  PHE324     -0.0202
     84  CD1      114.3170  148.3240  116.3250 C.ar  324  PHE324     -0.0042
     85  CD2      114.9550  150.4870  115.5560 C.ar  324  PHE324     -0.0042
     86  CE1      115.3480  148.3420  117.2390 C.ar  324  PHE324     -0.0003
     87  CE2      115.9880  150.5100  116.4680 C.ar  324  PHE324     -0.0003
     88  CZ       116.1840  149.4350  117.3110 C.ar  324  PHE324     -0.0000
     89  N        111.1390  151.9770  115.1830 N.am  325  SER325     -0.1938
     90  CA       110.8850  153.2170  115.9050 C.3   325  SER325      0.2055
     91  C        109.6060  153.1200  116.7240 C.2   325  SER325      0.2642
     92  O        109.4760  153.7930  117.7510 O.2   325  SER325     -0.2714
     93  CB       110.8060  154.3920  114.9340 C.3   325  SER325      0.2130
     94  OG       109.6780  154.2720  114.0870 O.3   325  SER325     -0.2179
     95  N        108.6570  152.2930  116.2850 N.am  326  LEU326     -0.1977
     96  CA       107.4730  152.0170  117.0870 C.3   326  LEU326      0.1596
     97  C        107.7950  151.0850  118.2450 C.2   326  LEU326      0.2287
     98  O        107.1520  151.1630  119.2970 O.2   326  LEU326     -0.2864
     99  CB       106.3780  151.4130  116.2050 C.3   326  LEU326      0.0297
    100  CG       104.9980  151.1470  116.8050 C.3   326  LEU326      0.0022
    101  CD1      104.3540  152.4530  117.2320 C.3   326  LEU326      0.0001
    102  CD2      104.1190  150.4050  115.8140 C.3   326  LEU326      0.0001
    103  N        110.6620  151.0910  119.9620 N.3   328  ASN328     -0.1225
    104  CA       111.3030  151.8850  121.0030 C.3   328  ASN328      0.1785
    105  C        110.3150  152.8080  121.6990 C.2   328  ASN328      0.2597
    106  O        110.5080  153.1480  122.8710 O.2   328  ASN328     -0.2718
    107  CB       112.4550  152.6940  120.4130 C.3   328  ASN328      0.1169
    108  CG       113.6320  151.8310  120.0320 C.2   328  ASN328      0.2627
    109  OD1      114.0070  150.9200  120.7640 O.2   328  ASN328     -0.2716
    110  ND2      114.2230  152.1120  118.8810 N.am  328  ASN328     -0.0877
    111  N        109.2580  153.2270  121.0020 N.am  329  LEU329     -0.1980
    112  CA       108.2670  154.0970  121.6240 C.3   329  LEU329      0.1596
    113  C        107.4140  153.3340  122.6300 C.2   329  LEU329      0.2287
    114  O        107.0080  153.8970  123.6510 O.2   329  LEU329     -0.2864
    115  CB       107.3920  154.7400  120.5490 C.3   329  LEU329      0.0297
    116  CG       106.3900  155.8040  120.9940 C.3   329  LEU329      0.0022
    117  CD1      107.1250  156.9900  121.5850 C.3   329  LEU329      0.0001
    118  CD2      105.5210  156.2390  119.8290 C.3   329  LEU329      0.0001
    119  N        110.3610  152.4470  125.6660 N.3   332  TRP332     -0.1227
    120  CA       110.8230  153.5350  126.5200 C.3   332  TRP332      0.1737
    121  C        109.6900  154.3210  127.1710 C.2   332  TRP332      0.2595
    122  O        109.9630  155.3290  127.8290 O.2   332  TRP332     -0.2718
    123  CB       111.7220  154.4880  125.7290 C.3   332  TRP332      0.0564
    124  CG       113.0250  153.8760  125.3270 C.ar  332  TRP332      0.0003
    125  CD1      113.3660  153.4090  124.0950 C.ar  332  TRP332      0.0946
    126  CD2      114.1530  153.6380  126.1730 C.ar  332  TRP332      0.0152
    127  NE1      114.6430  152.9090  124.1140 N.ar  332  TRP332     -0.2442
    128  CE2      115.1480  153.0360  125.3800 C.ar  332  TRP332      0.0810
    129  CE3      114.4220  153.8810  127.5220 C.ar  332  TRP332      0.0012
    130  CZ2      116.3890  152.6740  125.8910 C.ar  332  TRP332      0.0191
    131  CZ3      115.6540  153.5220  128.0270 C.ar  332  TRP332      0.0001
    132  CH2      116.6230  152.9250  127.2140 C.ar  332  TRP332      0.0015
    133  N        108.4340  153.9050  127.0000 N.am  333  LEU333     -0.1980
    134  CA       107.3300  154.4720  127.7560 C.3   333  LEU333      0.1596
    135  C        106.6800  153.4800  128.7060 C.2   333  LEU333      0.2287
    136  O        105.9660  153.9040  129.6190 O.2   333  LEU333     -0.2864
    137  CB       106.2570  155.0330  126.8130 C.3   333  LEU333      0.0297
    138  CG       106.6650  156.2560  125.9930 C.3   333  LEU333      0.0022
    139  CD1      105.5570  156.6390  125.0310 C.3   333  LEU333      0.0001
    140  CD2      107.0190  157.4180  126.9010 C.3   333  LEU333      0.0001
    141  N        110.0800  153.3730  131.4260 N.3   336  VAL336     -0.1245
    142  CA       110.4700  154.6630  131.9790 C.3   336  VAL336      0.1561
    143  C        109.2400  155.3880  132.5090 C.2   336  VAL336      0.2260
    144  O        109.1900  155.7900  133.6710 O.2   336  VAL336     -0.2867
    145  CB       111.2040  155.5210  130.9400 C.3   336  VAL336      0.0252
    146  CG1      111.4980  156.9000  131.5040 C.3   336  VAL336      0.0019
    147  CG2      112.4870  154.8410  130.5070 C.3   336  VAL336      0.0019
@<TRIPOS>BOND
     1    56    55    2
     2    55    54    1
     3    54    57    1
     4    54    53    1
     5    57    58    1
     6    58    59   ar
     7    58    60   ar
     8    59    61   ar
     9    48    47    2
    10    60    63   ar
    11    60    62   ar
    12    63    65   ar
    13    61    62   ar
    14    71    72    1
    15    71    68    1
    16    67    68    1
    17    47    46    1
    18    62    64   ar
    19    72    74   ar
    20    72    73   ar
    21    51    49    1
    22    74    76   ar
    23    65    66   ar
    24    68    69    1
    25    73    75   ar
    26    76    77   ar
    27    46    49    1
    28    46    45    1
    29    64    66   ar
    30    75    77   ar
    31    49    50    1
    32    69    70    2
    33    50    52    1
    34    78    79    1
    35    94    93    1
    36    82    79    1
    37    82    83    1
    38    93    90    1
    39    79    80    1
    40    89    80   am
    41    89    90    1
    42    83    85   ar
    43    83    84   ar
    44    85    87   ar
    45    40    39    2
    46   102   100    1
    47    80    81    2
    48    90    91    1
    49    99   100    1
    50    99    96    1
    51    95    91   am
    52    95    96    1
    53    84    86   ar
    54    87    88   ar
    55    91    92    2
    56    39    38    1
    57   100   101    1
    58    96    97    1
    59    86    88   ar
    60    43    41    1
    61    38    41    1
    62    38    37    1
    63    97    98    2
    64    41    42    1
    65   110   108   am
    66    36    35    1
    67    32    31    2
    68   118   116    1
    69    42    44    1
    70   103   104    1
    71   108   107    1
    72   108   109    2
    73   107   104    1
    74   115   116    1
    75   115   112    1
    76    31    30    1
    77    35    34    1
    78   116   117    1
    79   111   112    1
    80   111   105   am
    81   104   105    1
    82    34    33    1
    83   112   113    1
    84   105   106    2
    85    20    19    2
    86    30    33    1
    87    30    29    1
    88   113   114    2
    89    19    29   am
    90    19    18    1
    91   125   127   ar
    92   125   124   ar
    93   127   128   ar
    94    18    21    1
    95    18    17    1
    96    21    22    1
    97   139   138    1
    98    12    11    2
    99   124   123    1
   100   124   126   ar
   101   128   130   ar
   102   128   126   ar
   103   119   120    1
   104    23    22   ar
   105    23    25   ar
   106   123   120    1
   107    15    13    1
   108   130   132   ar
   109   138   137    1
   110   138   140    1
   111    22    24   ar
   112   126   129   ar
   113    11    10    1
   114   120   121    1
   115    25    27   ar
   116   137   134    1
   117   133   121   am
   118   133   134    1
   119    10    13    1
   120    10     9    1
   121    13    14    1
   122   121   122    2
   123   132   131   ar
   124    24    26   ar
   125   129   131   ar
   126   134   135    1
   127    14    16    1
   128    27    26   ar
   129    27    28    1
   130   135   136    2
   131   147   145    1
   132   145   146    1
   133   145   142    1
   134     4     3    2
   135     8     6    1
   136   141   142    1
   137   142   143    1
   138     6     5    1
   139     3     2    1
   140     5     2    1
   141     5     7    1
   142   143   144    2
   143     2     1    1
