@<TRIPOS>MOLECULE
tmp/6i55A02.pdb
 170 163 0 0 0
SMALL
GASTEIGER

@<TRIPOS>ATOM
      1  N         19.5520   11.5850   31.7990 N.3    10  TYR10      -0.1241
      2  CA        19.2500   12.9990   32.0220 C.3    10  TYR10       0.1605
      3  C         17.8760   13.1860   32.6590 C.2    10  TYR10       0.2264
      4  O         17.7170   13.9920   33.5870 O.2    10  TYR10      -0.2867
      5  CB        19.3550   13.7680   30.7000 C.3    10  TYR10       0.0534
      6  CG        20.7830   13.8780   30.1940 C.ar   10  TYR10      -0.0201
      7  CD1       21.7910   14.3640   31.0140 C.ar   10  TYR10      -0.0009
      8  CD2       21.1250   13.4830   28.9060 C.ar   10  TYR10      -0.0009
      9  CE1       23.0970   14.4670   30.5670 C.ar   10  TYR10       0.0417
     10  CE2       22.4320   13.5790   28.4500 C.ar   10  TYR10       0.0417
     11  CZ        23.4120   14.0750   29.2880 C.ar   10  TYR10       0.1957
     12  OH        24.7140   14.1770   28.8490 O.3    10  TYR10      -0.2866
     13  N         17.9090   12.2200   36.5000 N.3    13  PHE13      -0.1227
     14  CA        18.3730   13.3720   37.2720 C.3    13  PHE13       0.1736
     15  C         17.2890   14.4410   37.3800 C.2    13  PHE13       0.2595
     16  O         17.0570   14.9980   38.4600 O.2    13  PHE13      -0.2718
     17  CB        19.6240   13.9710   36.6280 C.3    13  PHE13       0.0547
     18  CG        20.8710   13.1720   36.8510 C.ar   13  PHE13      -0.0202
     19  CD1       21.1060   12.5440   38.0660 C.ar   13  PHE13      -0.0042
     20  CD2       21.8200   13.0590   35.8460 C.ar   13  PHE13      -0.0042
     21  CE1       22.2630   11.8110   38.2740 C.ar   13  PHE13      -0.0003
     22  CE2       22.9780   12.3280   36.0470 C.ar   13  PHE13      -0.0003
     23  CZ        23.1990   11.7050   37.2640 C.ar   13  PHE13      -0.0000
     24  N         16.6100   14.7290   36.2670 N.am   14  LEU14      -0.1980
     25  CA        15.6490   15.8260   36.2380 C.3    14  LEU14       0.1596
     26  C         14.4940   15.5850   37.2010 C.2    14  LEU14       0.2287
     27  O         14.1380   16.4710   37.9870 O.2    14  LEU14      -0.2864
     28  CB        15.1320   16.0230   34.8170 C.3    14  LEU14       0.0297
     29  CG        14.1070   17.1380   34.6420 C.3    14  LEU14       0.0022
     30  CD1       14.7230   18.4820   34.9950 C.3    14  LEU14       0.0001
     31  CD2       13.5590   17.1450   33.2090 C.3    14  LEU14       0.0001
     32  N         15.6850   16.2860   40.6010 N.3    17  CYS17      -0.1221
     33  CA        15.9500   17.6930   40.8900 C.3    17  CYS17       0.1808
     34  C         14.6620   18.4950   41.0320 C.2    17  CYS17       0.2601
     35  O         14.5640   19.3640   41.9060 O.2    17  CYS17      -0.2717
     36  CB        16.8450   18.2940   39.8090 C.3    17  CYS17       0.0970
     37  SG        18.5600   17.7470   39.9230 S.3    17  CYS17      -0.0800
     38  N         13.6660   18.2320   40.1760 N.am   18  LEU18      -0.1979
     39  CA        12.3910   18.9370   40.2910 C.3    18  LEU18       0.1596
     40  C         11.7120   18.6180   41.6120 C.2    18  LEU18       0.2287
     41  O         10.9000   19.4090   42.1040 O.2    18  LEU18      -0.2864
     42  CB        11.4620   18.5750   39.1260 C.3    18  LEU18       0.0297
     43  CG        11.9380   18.9470   37.7210 C.3    18  LEU18       0.0022
     44  CD1       11.0890   18.2460   36.6460 C.3    18  LEU18       0.0001
     45  CD2       11.9450   20.4620   37.5340 C.3    18  LEU18       0.0001
     46  N         14.6660   25.4270   42.6040 N.3    23  GLY23      -0.1210
     47  CA        14.5930   25.6870   41.1710 C.3    23  GLY23       0.1956
     48  C         15.7360   26.5350   40.6350 C.2    23  GLY23       0.2611
     49  O         16.4030   26.1560   39.6680 O.2    23  GLY23      -0.2717
     50  N         15.9630   27.7090   41.2280 N.am   24  GLU24      -0.1979
     51  CA        17.0270   28.5620   40.6990 C.3    24  GLU24       0.1602
     52  C         18.3920   27.9040   40.8530 C.2    24  GLU24       0.2287
     53  O         19.2640   28.0810   39.9930 O.2    24  GLU24      -0.2864
     54  CB        17.0230   29.9410   41.3660 C.3    24  GLU24       0.0415
     55  CG        17.7690   31.0060   40.5380 C.3    24  GLU24       0.1163
     56  CD        17.4410   32.4420   40.9360 C.2    24  GLU24       0.3649
     57  OE1       16.5670   32.6530   41.8010 O.co2  24  GLU24      -0.2457
     58  OE2       18.0720   33.3690   40.3820 O.co2  24  GLU24      -0.2457
     59  N         19.0090   24.6920   40.5670 N.3    26  CYS26      -0.1221
     60  CA        19.1040   23.8150   39.4030 C.3    26  CYS26       0.1808
     61  C         19.4670   24.6010   38.1530 C.2    26  CYS26       0.2601
     62  O         20.2680   24.1400   37.3300 O.2    26  CYS26      -0.2717
     63  CB        17.7940   23.0580   39.1940 C.3    26  CYS26       0.0970
     64  SG        17.4550   21.8180   40.4500 S.3    26  CYS26      -0.0800
     65  N         18.8910   25.7970   37.9910 N.am   27  HIS27      -0.1975
     66  CA        19.1700   26.5630   36.7870 C.3    27  HIS27       0.1656
     67  C         20.6150   27.0500   36.7760 C.2    27  HIS27       0.2291
     68  O         21.2670   27.0240   35.7240 O.2    27  HIS27      -0.2864
     69  CB        18.1950   27.7320   36.6670 C.3    27  HIS27       0.0771
     70  CG        18.0780   28.2780   35.2770 C.ar   27  HIS27       0.0820
     71  ND1       17.3870   27.6230   34.2810 N.ar   27  HIS27      -0.2267
     72  CD2       18.5430   29.4240   34.7240 C.ar   27  HIS27       0.1154
     73  CE1       17.4410   28.3360   33.1690 C.ar   27  HIS27       0.1986
     74  NE2       18.1320   29.4360   33.4120 N.ar   27  HIS27      -0.2212
     75  N         23.1930   25.5820   38.0140 N.3    29  LEU29      -0.1231
     76  CA        24.0490   24.4420   37.6890 C.3    29  LEU29       0.1693
     77  C         24.0640   24.1740   36.1870 C.2    29  LEU29       0.2592
     78  O         25.1210   23.9290   35.5930 O.2    29  LEU29      -0.2718
     79  CB        23.5540   23.2110   38.4570 C.3    29  LEU29       0.0284
     80  CG        24.3560   21.9080   38.5620 C.3    29  LEU29       0.0019
     81  CD1       23.8820   21.1140   39.7710 C.3    29  LEU29       0.0001
     82  CD2       24.2360   21.0520   37.3070 C.3    29  LEU29       0.0001
     83  N         22.8960   24.1960   35.5590 N.am   30  PHE30      -0.1976
     84  CA        22.8540   24.0650   34.1060 C.3    30  PHE30       0.1639
     85  C         23.7370   25.1070   33.4240 C.2    30  PHE30       0.2290
     86  O         24.5540   24.7720   32.5570 O.2    30  PHE30      -0.2864
     87  CB        21.4230   24.1830   33.6080 C.3    30  PHE30       0.0560
     88  CG        21.3200   24.2680   32.1150 C.ar   30  PHE30      -0.0200
     89  CD1       21.2730   23.1140   31.3470 C.ar   30  PHE30      -0.0042
     90  CD2       21.3010   25.5000   31.4780 C.ar   30  PHE30      -0.0042
     91  CE1       21.1840   23.1850   29.9760 C.ar   30  PHE30      -0.0003
     92  CE2       21.2190   25.5800   30.1050 C.ar   30  PHE30      -0.0003
     93  CZ        21.1560   24.4190   29.3490 C.ar   30  PHE30      -0.0000
     94  N         16.0640   32.9030   30.3490 N.3    69  PHE69      -0.1241
     95  CA        16.6900   31.6070   30.5360 C.3    69  PHE69       0.1605
     96  C         18.1980   31.7540   30.6680 C.2    69  PHE69       0.2264
     97  O         18.8100   31.1710   31.5690 O.2    69  PHE69      -0.2867
     98  CB        16.3360   30.6760   29.3690 C.3    69  PHE69       0.0534
     99  CG        16.4100   29.2130   29.7270 C.ar   69  PHE69      -0.0203
    100  CD1       17.6190   28.5360   29.6830 C.ar   69  PHE69      -0.0042
    101  CD2       15.2750   28.5280   30.1340 C.ar   69  PHE69      -0.0042
    102  CE1       17.6950   27.1780   30.0210 C.ar   69  PHE69      -0.0003
    103  CE2       15.3380   27.1730   30.4760 C.ar   69  PHE69      -0.0003
    104  CZ        16.5550   26.5030   30.4240 C.ar   69  PHE69      -0.0000
    105  N         11.9260   31.3820   42.6280 N.3   105  ILE105     -0.1245
    106  CA        11.4200   30.5890   41.5090 C.3   105  ILE105      0.1561
    107  C         10.9480   29.2620   42.0750 C.2   105  ILE105      0.2260
    108  O         11.7000   28.5910   42.7880 O.2   105  ILE105     -0.2867
    109  CB        12.4760   30.3430   40.4150 C.3   105  ILE105      0.0252
    110  CG1       13.1420   31.6520   39.9990 C.3   105  ILE105      0.0019
    111  CG2       11.8350   29.6570   39.1980 C.3   105  ILE105      0.0019
    112  CD1       14.2720   31.4720   39.0110 C.3   105  ILE105      0.0001
    113  N          8.4680   25.6190   41.1010 N.3   107  ARG107     -0.1245
    114  CA         7.8260   24.8410   40.0520 C.3   107  ARG107      0.1563
    115  C          6.8490   23.8360   40.6390 C.2   107  ARG107      0.2260
    116  O          7.0490   23.2960   41.7370 O.2   107  ARG107     -0.2867
    117  CB         8.8430   24.1150   39.1660 C.3   107  ARG107      0.0307
    118  CG         9.9520   23.4460   39.9170 C.3   107  ARG107      0.0489
    119  CD        11.2020   24.2950   39.8470 C.3   107  ARG107      0.2205
    120  NE        12.4040   23.4750   39.7760 N.pl3 107  ARG107     -0.0865
    121  CZ        12.9450   22.8530   40.8150 C.cat 107  ARG107      0.5346
    122  NH1       14.0440   22.1360   40.6480 N.pl3 107  ARG107      0.1354
    123  NH2       12.3920   22.9540   42.0180 N.pl3 107  ARG107      0.1354
    124  N          5.2830   27.1830   36.5680 N.3   114  ILE114     -0.1245
    125  CA         6.3560   27.8690   37.2710 C.3   114  ILE114      0.1561
    126  C          5.8200   29.2190   37.7110 C.2   114  ILE114      0.2260
    127  O          4.9990   29.8240   37.0110 O.2   114  ILE114     -0.2867
    128  CB         7.6030   28.0460   36.3770 C.3   114  ILE114      0.0252
    129  CG1        8.0750   26.6970   35.8320 C.3   114  ILE114      0.0019
    130  CG2        8.7250   28.7460   37.1340 C.3   114  ILE114      0.0019
    131  CD1        9.1700   26.8160   34.8130 C.3   114  ILE114      0.0001
    132  N         10.3710   27.8780   27.3770 N.3   340  TYR340     -0.1241
    133  CA        11.0360   28.0460   28.6600 C.3   340  TYR340      0.1605
    134  C         10.6260   26.9000   29.5690 C.2   340  TYR340      0.2264
    135  O         11.4350   26.0210   29.8810 O.2   340  TYR340     -0.2867
    136  CB        10.6820   29.3960   29.2940 C.3   340  TYR340      0.0534
    137  CG        11.6060   29.8070   30.4160 C.ar  340  TYR340     -0.0201
    138  CD1       11.7930   28.9930   31.5350 C.ar  340  TYR340     -0.0009
    139  CD2       12.2900   31.0150   30.3660 C.ar  340  TYR340     -0.0009
    140  CE1       12.6450   29.3710   32.5670 C.ar  340  TYR340      0.0417
    141  CE2       13.1410   31.3930   31.3880 C.ar  340  TYR340      0.0417
    142  CZ        13.3130   30.5720   32.4840 C.ar  340  TYR340      0.1957
    143  OH        14.1530   30.9540   33.5040 O.3   340  TYR340     -0.2866
    144  N         11.6300   23.3440   28.7850 N.3   343  LEU343     -0.1231
    145  CA        12.9790   22.9350   29.1590 C.3   343  LEU343      0.1693
    146  C         13.0440   22.5060   30.6180 C.2   343  LEU343      0.2591
    147  O         13.6800   21.5000   30.9440 O.2   343  LEU343     -0.2718
    148  CB        13.9680   24.0620   28.8910 C.3   343  LEU343      0.0284
    149  CG        14.5170   24.1520   27.4710 C.3   343  LEU343      0.0019
    150  CD1       15.1430   25.5190   27.2430 C.3   343  LEU343      0.0001
    151  CD2       15.5280   23.0490   27.2170 C.3   343  LEU343      0.0001
    152  N         12.3620   23.2360   31.5040 N.am  344  VAL344     -0.1980
    153  CA        12.4160   22.9190   32.9300 C.3   344  VAL344      0.1595
    154  C         11.8220   21.5400   33.2020 C.2   344  VAL344      0.2287
    155  O         12.3750   20.7500   33.9780 O.2   344  VAL344     -0.2864
    156  CB        11.6960   24.0060   33.7490 C.3   344  VAL344      0.0276
    157  CG1       11.5000   23.5450   35.1950 C.3   344  VAL344      0.0022
    158  CG2       12.4530   25.3350   33.6780 C.3   344  VAL344      0.0022
    159  N         13.4860   18.8940   30.0530 N.3   347  GLY347     -0.1210
    160  CA        14.9220   18.7130   30.1850 C.3   347  GLY347      0.1956
    161  C         15.6790   18.8190   28.8710 C.2   347  GLY347      0.2611
    162  O         15.2500   19.4840   27.9240 O.2   347  GLY347     -0.2717
    163  N         16.8080   18.1000   28.8130 N.am  348  MET348     -0.1979
    164  CA        17.7400   18.2220   27.6950 C.3   348  MET348      0.1605
    165  C         17.1170   17.8220   26.3600 C.2   348  MET348      0.2287
    166  O         17.5190   18.3430   25.3170 O.2   348  MET348     -0.2864
    167  CB        18.9920   17.3800   27.9580 C.3   348  MET348      0.0413
    168  CG        19.6950   17.6550   29.3020 C.3   348  MET348      0.0598
    169  SD        20.4290   19.3110   29.3520 S.3   348  MET348     -0.1393
    170  CE        19.1450   20.2220   30.2060 C.3   348  MET348      0.0692
@<TRIPOS>BOND
     1   166   165    2
     2   165   164    1
     3   151   149    1
     4   150   149    1
     5   132   133    1
     6   149   148    1
     7   164   167    1
     8   164   163    1
     9   162   161    2
    10   167   168    1
    11    10     8   ar
    12    10    11   ar
    13   133   136    1
    14   133   134    1
    15   144   145    1
    16   163   161   am
    17    12    11    1
    18   161   160    1
    19   148   145    1
    20     8     6   ar
    21   145   146    1
    22    11     9   ar
    23   136   137    1
    24   168   169    1
    25    93    91   ar
    26    93    92   ar
    27   169   170    1
    28    98    99    1
    29    98    95    1
    30   134   135    2
    31   100    99   ar
    32   100   102   ar
    33    99   101   ar
    34    91    89   ar
    35   102   104   ar
    36   159   160    1
    37    92    90   ar
    38   101   103   ar
    39     6     5    1
    40     6     7   ar
    41    94    95    1
    42   139   137   ar
    43   139   141   ar
    44   137   138   ar
    45   104   103   ar
    46    95    96    1
    47     9     7   ar
    48   146   147    2
    49   146   152   am
    50    96    97    2
    51     5     2    1
    52    89    88   ar
    53   141   142   ar
    54    90    88   ar
    55   152   153    1
    56   138   140   ar
    57     1     2    1
    58     2     3    1
    59    88    87    1
    60   142   140   ar
    61   142   143    1
    62    86    85    2
    63     3     4    2
    64   153   154    1
    65   153   156    1
    66    73    74   ar
    67    73    71   ar
    68   154   155    2
    69    31    29    1
    70    74    72   ar
    71    85    84    1
    72    87    84    1
    73   158   156    1
    74   156   157    1
    75    84    83    1
    76    71    70   ar
    77    29    28    1
    78    29    30    1
    79    72    70   ar
    80   131   129    1
    81    28    25    1
    82    70    69    1
    83    83    77   am
    84    78    77    2
    85    68    67    2
    86   129   128    1
    87    20    22   ar
    88    20    18   ar
    89    22    23   ar
    90    77    76    1
    91    25    24    1
    92    25    26    1
    93    24    15   am
    94   128   130    1
    95   128   125    1
    96    13    14    1
    97   124   125    1
    98    17    18    1
    99    17    14    1
   100    44    43    1
   101    69    66    1
   102    67    66    1
   103    66    65    1
   104    18    19   ar
   105   127   126    2
   106    26    27    2
   107    23    21   ar
   108   125   126    1
   109    14    15    1
   110    82    80    1
   111    62    61    2
   112    15    16    2
   113    45    43    1
   114    76    75    1
   115    76    79    1
   116    43    42    1
   117    65    61   am
   118    19    21   ar
   119    61    60    1
   120    79    80    1
   121    80    81    1
   122   112   110    1
   123    42    39    1
   124   117   118    1
   125   117   114    1
   126    63    60    1
   127    63    64    1
   128   111   109    1
   129    60    59    1
   130    49    48    2
   131   120   119    1
   132   120   121    2
   133    36    37    1
   134    36    33    1
   135   119   118    1
   136    53    52    2
   137   110   109    1
   138   114   115    1
   139   114   113    1
   140    38    39    1
   141    38    34   am
   142    39    40    1
   143    58    56   ar
   144   109   106    1
   145    55    56    1
   146    55    54    1
   147    32    33    1
   148    48    47    1
   149    48    50   am
   150   115   116    2
   151   122   121    1
   152    51    52    1
   153    51    50    1
   154    51    54    1
   155   121   123    1
   156    33    34    1
   157    56    57   ar
   158    34    35    2
   159    47    46    1
   160   106   107    1
   161   106   105    1
   162    40    41    2
   163   107   108    2
