@<TRIPOS>MOLECULE
tmp/6i58A00.pdb
 119 120 0 0 0
SMALL
GASTEIGER

@<TRIPOS>ATOM
      1  N         -6.6720   35.0600   16.0300 N.3   357  GLU357     -0.1231
      2  CA        -5.7060   36.0510   16.5220 C.3   357  GLU357      0.1699
      3  C         -4.2840   35.8140   16.0240 C.2   357  GLU357      0.2592
      4  O         -3.4970   36.7130   15.9300 O.2   357  GLU357     -0.2718
      5  CB        -5.6710   36.0440   18.0430 C.3   357  GLU357      0.0402
      6  CG        -7.0090   36.3110   18.6950 C.3   357  GLU357      0.1161
      7  CD        -6.9140   37.2710   19.8510 C.2   357  GLU357      0.3649
      8  OE1       -6.3360   38.3840   19.6530 O.co2 357  GLU357     -0.2457
      9  OE2       -7.4230   36.9020   20.9450 O.co2 357  GLU357     -0.2457
     10  N         -3.9260   34.5870   15.7130 N.am  358  CYS358     -0.1970
     11  CA        -2.5860   34.3330   15.1960 C.3   358  CYS358      0.1712
     12  C         -2.3510   34.8550   13.7630 C.2   358  CYS358      0.2296
     13  O         -1.2500   34.7080   13.2250 O.2   358  CYS358     -0.2864
     14  CB        -2.3090   32.8350   15.3060 C.3   358  CYS358      0.0983
     15  SG        -3.3010   31.7880   14.2060 S.3   358  CYS358     -0.0798
     16  N         -3.3630   38.1200   12.7970 N.3   360  THR360     -0.1203
     17  CA        -3.0680   39.5680   12.9220 C.3   360  THR360      0.1994
     18  C         -1.6220   39.9180   12.5370 C.2   360  THR360      0.2618
     19  O         -0.6810   39.1620   12.7860 O.2   360  THR360     -0.2717
     20  CB        -3.3650   40.2110   14.3130 C.3   360  THR360      0.1784
     21  OG1       -4.7290   39.9680   14.6580 O.3   360  THR360     -0.2211
     22  CG2       -3.1560   41.6760   14.3540 C.3   360  THR360      0.0376
     23  N         -1.4880   41.1000   11.9600 N.am  361  LYS361     -0.1965
     24  CA        -0.2540   41.5720   11.2990 C.3   361  LYS361      0.1728
     25  C          0.9450   41.6370   12.2490 C.2   361  LYS361      0.2616
     26  O          0.7840   41.7150   13.4700 O.2   361  LYS361     -0.2715
     27  CB        -0.4590   42.9370   10.5850 C.3   361  LYS361      0.0311
     28  CG        -1.5870   43.8510   11.1060 C.3   361  LYS361      0.0038
     29  CD        -2.9500   43.5240   10.4590 C.3   361  LYS361      0.0206
     30  CE        -4.1530   43.7110   11.3900 C.3   361  LYS361      0.1093
     31  NZ        -4.5020   45.1450   11.6130 N.3   361  LYS361     -0.1314
     32  N          2.1430   41.5890   11.6690 N.am  362  ILE362     -0.1977
     33  CA         3.3950   41.6830   12.4370 C.3   362  ILE362      0.1596
     34  C          3.7940   43.1620   12.4560 C.2   362  ILE362      0.2287
     35  O          3.6750   43.8540   11.4300 O.2   362  ILE362     -0.2864
     36  CB         4.5250   40.7390   11.8960 C.3   362  ILE362      0.0276
     37  CG1        5.3690   41.3500   10.7550 C.3   362  ILE362      0.0022
     38  CG2        3.9540   39.3910   11.4460 C.3   362  ILE362      0.0022
     39  CD1        6.7920   40.8190   10.7250 C.3   362  ILE362      0.0001
     40  N          7.0430   36.9800   19.6380 N.3   378  PRO378     -0.2102
     41  CA         6.2130   37.0580   20.8600 C.3   378  PRO378      0.1504
     42  C          5.4320   35.8030   21.2520 C.2   378  PRO378      0.2575
     43  O          4.6790   35.8310   22.2430 O.2   378  PRO378     -0.2718
     44  CB         5.2240   38.1620   20.5020 C.3   378  PRO378      0.0282
     45  CG         5.0080   37.9300   19.0340 C.3   378  PRO378      0.0208
     46  CD         6.3610   37.5810   18.4790 C.3   378  PRO378      0.0893
     47  N          5.5540   34.7400   20.4590 N.am  379  TRP379     -0.1977
     48  CA         4.9340   33.4470   20.7900 C.3   379  TRP379      0.1640
     49  C          5.8550   32.5970   21.6590 C.2   379  TRP379      0.2290
     50  O          5.3770   31.7700   22.4280 O.2   379  TRP379     -0.2864
     51  CB         4.4530   32.6870   19.5320 C.3   379  TRP379      0.0576
     52  CG         5.4790   32.4420   18.5300 C.ar  379  TRP379      0.0006
     53  CD1        6.3100   31.3940   18.4800 C.ar  379  TRP379      0.0946
     54  CD2        5.7800   33.2560   17.3890 C.ar  379  TRP379      0.0152
     55  NE1        7.1230   31.4790   17.3810 N.ar  379  TRP379     -0.2442
     56  CE2        6.8300   32.6280   16.7000 C.ar  379  TRP379      0.0810
     57  CE3        5.2610   34.4560   16.8800 C.ar  379  TRP379      0.0012
     58  CZ2        7.3730   33.1470   15.5250 C.ar  379  TRP379      0.0191
     59  CZ3        5.8140   34.9770   15.7230 C.ar  379  TRP379      0.0001
     60  CH2        6.8630   34.3210   15.0610 C.ar  379  TRP379      0.0015
     61  N         -3.2440   39.0620   25.6890 N.3   470  TYR470     -0.1227
     62  CA        -2.3830   39.2090   24.4980 C.3   470  TYR470      0.1736
     63  C         -1.8690   40.6210   24.2540 C.2   470  TYR470      0.2596
     64  O         -2.6020   41.5820   24.4250 O.2   470  TYR470     -0.2718
     65  CB        -3.0900   38.7550   23.2330 C.3   470  TYR470      0.0548
     66  CG        -3.2580   37.2680   23.0820 C.ar  470  TYR470     -0.0200
     67  CD1       -2.2910   36.3620   23.5560 C.ar  470  TYR470     -0.0009
     68  CD2       -4.3660   36.7530   22.4100 C.ar  470  TYR470     -0.0009
     69  CE1       -2.4550   34.9930   23.3960 C.ar  470  TYR470      0.0417
     70  CE2       -4.5260   35.3920   22.2330 C.ar  470  TYR470      0.0417
     71  CZ        -3.5700   34.5200   22.7410 C.ar  470  TYR470      0.1957
     72  OH        -3.7100   33.1790   22.5640 O.3   470  TYR470     -0.2866
     73  N         -0.6040   40.7180   23.8490 N.am  471  THR471     -0.1953
     74  CA         0.0690   41.9910   23.6200 C.3   471  THR471      0.1897
     75  C          1.1690   41.8750   22.5490 C.2   471  THR471      0.2313
     76  O          1.5210   40.7770   22.1030 O.2   471  THR471     -0.2863
     77  CB         0.6830   42.5870   24.9200 C.3   471  THR471      0.1794
     78  OG1        1.8840   41.8930   25.2800 O.3   471  THR471     -0.2208
     79  CG2       -0.2960   42.5750   26.1010 C.3   471  THR471      0.0378
     80  N          1.9380   37.0020   22.0770 N.3   475  ARG475     -0.1231
     81  CA         0.9030   36.6630   21.1100 C.3   475  ARG475      0.1679
     82  C          1.0580   35.2370   20.6180 C.2   475  ARG475      0.2434
     83  O          2.1450   34.6650   20.6900 O.2   475  ARG475     -0.2733
     84  CB         0.9390   37.6340   19.9280 C.3   475  ARG475      0.0321
     85  CG         2.2420   38.4060   19.7990 C.3   475  ARG475      0.0489
     86  CD         2.2950   39.1870   18.4960 C.3   475  ARG475      0.2205
     87  NE         3.3300   40.2160   18.5170 N.pl3 475  ARG475     -0.0865
     88  CZ         3.6250   41.0000   17.4850 C.cat 475  ARG475      0.5346
     89  NH1        4.5830   41.9110   17.5940 N.pl3 475  ARG475      0.1354
     90  NH2        2.9620   40.8740   16.3430 N.pl3 475  ARG475      0.1354
     91  N         -0.0360   34.6540   20.1120 N.am  476  PRO476     -0.2718
     92  CA         0.0480   33.2980   19.6220 C.3   476  PRO476      0.1535
     93  C          0.5220   33.1790   18.1950 C.2   476  PRO476      0.2598
     94  O          0.4120   34.1230   17.4380 O.2   476  PRO476     -0.2715
     95  CB        -1.3920   32.7960   19.7240 C.3   476  PRO476      0.0310
     96  CG        -2.2360   33.9970   19.7270 C.3   476  PRO476      0.0237
     97  CD        -1.3770   35.2150   19.9010 C.3   476  PRO476      0.0939
     98  N          0.9930   31.9780   17.8670 N.am  477  ILE477     -0.1978
     99  CA         1.4250   31.5510   16.5430 C.3   477  ILE477      0.1596
    100  C          0.4060   30.5060   16.0660 C.2   477  ILE477      0.2287
    101  O         -0.2020   29.8390   16.8830 O.2   477  ILE477     -0.2864
    102  CB         2.8660   31.0130   16.5430 C.3   477  ILE477      0.0276
    103  CG1        3.3020   30.5790   15.1470 C.3   477  ILE477      0.0022
    104  CG2        3.0450   29.8140   17.4760 C.3   477  ILE477      0.0022
    105  CD1        4.8080   30.4430   14.9840 C.3   477  ILE477      0.0001
    106  N          2.8770   33.6740   10.4230 N.3   553  TRP553     -0.1241
    107  CA         3.8220   32.7340   11.0340 C.3   553  TRP553      0.1605
    108  C          3.1180   31.4450   11.3770 C.2   553  TRP553      0.2264
    109  O          2.0280   31.5050   11.9310 O.2   553  TRP553     -0.2867
    110  CB         4.3950   33.3240   12.3060 C.3   553  TRP553      0.0550
    111  CG         5.3760   34.3600   12.0360 C.ar  553  TRP553      0.0003
    112  CD1        5.2320   35.7050   12.2120 C.ar  553  TRP553      0.0946
    113  CD2        6.6920   34.1500   11.5470 C.ar  553  TRP553      0.0152
    114  NE1        6.4020   36.3590   11.8560 N.ar  553  TRP553     -0.2442
    115  CE2        7.3130   35.4190   11.4500 C.ar  553  TRP553      0.0810
    116  CE3        7.4220   33.0100   11.1940 C.ar  553  TRP553      0.0012
    117  CZ2        8.6300   35.5700   11.0090 C.ar  553  TRP553      0.0191
    118  CZ3        8.7300   33.1640   10.7420 C.ar  553  TRP553      0.0001
    119  CH2        9.3190   34.4280   10.6610 C.ar  553  TRP553      0.0015
@<TRIPOS>BOND
     1   106   107    1
     2    29    28    1
     3    29    30    1
     4    27    28    1
     5    27    24    1
     6   119   118   ar
     7   119   117   ar
     8    39    37    1
     9   118   116   ar
    10    37    36    1
    11   117   115   ar
    12   107   108    1
    13   107   110    1
    14   116   113   ar
    15    24    23    1
    16    24    25    1
    17   108   109    2
    18    30    31    1
    19    35    34    2
    20    38    36    1
    21   115   113   ar
    22   115   114   ar
    23   113   111   ar
    24    32    25   am
    25    32    33    1
    26   114   112   ar
    27    36    33    1
    28    23    18   am
    29   111   112   ar
    30   111   110    1
    31    25    26    2
    32    33    34    1
    33    18    19    2
    34    18    17    1
    35    16    17    1
    36    17    20    1
    37    13    12    2
    38    12    11    1
    39    15    14    1
    40    20    22    1
    41    20    21    1
    42   105   103    1
    43    60    58   ar
    44    60    59   ar
    45   103   102    1
    46    11    14    1
    47    11    10    1
    48    58    56   ar
    49    10     3   am
    50    59    57   ar
    51     4     3    2
    52     3     2    1
    53     1     2    1
    54   100    99    1
    55   100   101    2
    56    90    88    1
    57     2     5    1
    58    99   102    1
    59    99    98    1
    60   102   104    1
    61    56    55   ar
    62    56    54   ar
    63    57    54   ar
    64    55    53   ar
    65    54    52   ar
    66    94    93    2
    67    88    89    1
    68    88    87    2
    69    98    93   am
    70     5     6    1
    71    93    92    1
    72    46    45    1
    73    46    40    1
    74    53    52   ar
    75    86    87    1
    76    86    85    1
    77    52    51    1
    78     6     7    1
    79    45    44    1
    80    51    48    1
    81    92    95    1
    82    92    91    1
    83    40    41    1
    84     8     7   ar
    85    95    96    1
    86    96    97    1
    87    85    84    1
    88     7     9   ar
    89    97    91    1
    90    84    81    1
    91    91    82   am
    92    47    48    1
    93    47    42   am
    94    44    41    1
    95    82    83    2
    96    82    81    1
    97    48    49    1
    98    41    42    1
    99    81    80    1
   100    42    43    2
   101    49    50    2
   102    76    75    2
   103    70    68   ar
   104    70    71   ar
   105    68    66   ar
   106    75    74    1
   107    72    71    1
   108    71    69   ar
   109    66    65    1
   110    66    67   ar
   111    65    62    1
   112    69    67   ar
   113    74    73    1
   114    74    77    1
   115    73    63   am
   116    63    64    2
   117    63    62    1
   118    62    61    1
   119    77    78    1
   120    77    79    1
