@<TRIPOS>MOLECULE
tmp/6i5hA00.pdb
 184 173 0 0 0
SMALL
GASTEIGER

@<TRIPOS>ATOM
      1  N        -18.0790   20.9900   15.5940 N.3    22  LEU22      -0.1231
      2  CA       -17.4300   20.2670   16.7250 C.3    22  LEU22       0.1693
      3  C        -15.9430   20.1290   16.4710 C.2    22  LEU22       0.2593
      4  O        -15.1380   20.2410   17.4490 O.2    22  LEU22      -0.2718
      5  CB       -18.0970   18.9220   16.9040 C.3    22  LEU22       0.0284
      6  CG       -19.5710   18.9960   17.3020 C.3    22  LEU22       0.0019
      7  CD1      -20.2300   17.6420   17.3080 C.3    22  LEU22       0.0001
      8  CD2      -19.7420   19.7000   18.6270 C.3    22  LEU22       0.0001
      9  N        -15.5750   19.9030   15.2250 N.am   23  GLY23      -0.1942
     10  CA       -14.1950   19.7420   14.9020 C.3    23  GLY23       0.2014
     11  C        -13.9900   19.5400   13.4420 C.2    23  GLY23       0.2639
     12  O        -14.9650   19.4500   12.6600 O.2    23  GLY23      -0.2714
     13  N        -12.7100   19.5770   13.0470 N.am   24  GLU24      -0.1963
     14  CA       -12.3670   19.3160   11.6930 C.3    24  GLU24       0.1733
     15  C        -11.1850   18.3550   11.6770 C.2    24  GLU24       0.2616
     16  O        -10.4100   18.2210   12.6540 O.2    24  GLU24      -0.2715
     17  CB       -11.9350   20.5600   10.8990 C.3    24  GLU24       0.0429
     18  CG       -12.8910   21.7360   11.0180 C.3    24  GLU24       0.1163
     19  CD       -12.5840   22.9830   10.1930 C.2    24  GLU24       0.3649
     20  OE1      -11.5000   23.0490    9.5850 O.co2  24  GLU24      -0.2457
     21  OE2      -13.4610   23.8950   10.1310 O.co2  24  GLU24      -0.2457
     22  N        -11.0490   17.6860   10.5400 N.am   25  GLY25      -0.1955
     23  CA        -9.8880   16.8390   10.2580 C.3    25  GLY25       0.1869
     24  C         -9.6120   16.8480    8.7760 C.2    25  GLY25       0.2309
     25  O        -10.2910   17.5480    8.0050 O.2    25  GLY25      -0.2863
     26  N        -10.4970   14.9340    6.6610 N.3    27  PHE27      -0.1241
     27  CA       -11.6080   14.3250    5.9700 C.3    27  PHE27       0.1605
     28  C        -12.7730   15.2960    5.7200 C.2    27  PHE27       0.2264
     29  O        -13.6910   14.9130    5.0180 O.2    27  PHE27      -0.2867
     30  CB       -12.1910   13.1830    6.7930 C.3    27  PHE27       0.0534
     31  CG       -12.6840   13.6040    8.1480 C.ar   27  PHE27      -0.0203
     32  CD1      -13.8780   14.2820    8.2700 C.ar   27  PHE27      -0.0042
     33  CD2      -11.9580   13.3210    9.2950 C.ar   27  PHE27      -0.0042
     34  CE1      -14.3030   14.7330    9.4950 C.ar   27  PHE27      -0.0003
     35  CE2      -12.4180   13.7300   10.5290 C.ar   27  PHE27      -0.0003
     36  CZ       -13.5800   14.4490   10.6260 C.ar   27  PHE27      -0.0000
     37  N        -17.0220   17.7910   11.4600 N.3    30  VAL30      -0.1245
     38  CA       -18.1340   17.2150   12.1520 C.3    30  VAL30       0.1561
     39  C        -18.9070   18.4020   12.7550 C.2    30  VAL30       0.2260
     40  O        -18.3100   19.2510   13.4370 O.2    30  VAL30      -0.2867
     41  CB       -17.6740   16.2590   13.2730 C.3    30  VAL30       0.0252
     42  CG1      -18.8600   15.6860   14.0280 C.3    30  VAL30       0.0019
     43  CG2      -16.7110   15.1860   12.7860 C.3    30  VAL30       0.0019
     44  N        -24.4920   14.2380   15.9150 N.3    44  ALA44      -0.1245
     45  CA       -23.3010   14.7050   15.2120 C.3    44  ALA44       0.1562
     46  C        -23.3810   14.2890   13.7640 C.2    44  ALA44       0.2260
     47  O        -23.7610   13.1380   13.4780 O.2    44  ALA44      -0.2867
     48  CB       -22.0410   14.1090   15.8460 C.3    44  ALA44       0.0290
     49  N        -20.9720   14.0170   10.4050 N.3    46  LYS46      -0.1245
     50  CA       -19.6560   14.1400    9.7470 C.3    46  LYS46       0.1561
     51  C        -19.9040   14.4190    8.2720 C.2    46  LYS46       0.2260
     52  O        -20.5360   13.5810    7.5930 O.2    46  LYS46      -0.2867
     53  CB       -18.8880   12.8540    9.9760 C.3    46  LYS46       0.0271
     54  CG       -17.5000   12.7590    9.3510 C.3    46  LYS46       0.0035
     55  CD       -16.9300   11.4000    9.8390 C.3    46  LYS46       0.0206
     56  CE       -15.7000   10.8910    9.1860 C.3    46  LYS46       0.1093
     57  NZ       -15.2440    9.7470    9.9650 N.3    46  LYS46      -0.1314
     58  N        -16.2300    3.1780    5.9580 N.3    61  GLU61      -0.1245
     59  CA       -16.6190    3.3940    7.3340 C.3    61  GLU61       0.1567
     60  C        -18.0780    3.0090    7.5430 C.2    61  GLU61       0.2260
     61  O        -18.4600    2.4030    8.5720 O.2    61  GLU61      -0.2867
     62  CB       -16.4060    4.8630    7.7040 C.3    61  GLU61       0.0388
     63  CG       -16.8620    5.1760    9.1040 C.3    61  GLU61       0.1160
     64  CD       -16.4640    6.5370    9.6390 C.2    61  GLU61       0.3649
     65  OE1      -16.4120    7.4830    8.8170 O.co2  61  GLU61      -0.2457
     66  OE2      -16.1370    6.6180   10.8640 O.co2  61  GLU61      -0.2457
     67  N        -18.7230    4.0320   18.4430 N.3    80  VAL80      -0.1245
     68  CA       -19.7910    5.0390   18.1990 C.3    80  VAL80       0.1561
     69  C        -20.9100    4.4400   17.3680 C.2    80  VAL80       0.2260
     70  O        -20.6590    3.6290   16.4650 O.2    80  VAL80      -0.2867
     71  CB       -19.1840    6.2930   17.5490 C.3    80  VAL80       0.0252
     72  CG1      -18.6310    6.0400   16.1700 C.3    80  VAL80       0.0019
     73  CG2      -20.2250    7.4090   17.5760 C.3    80  VAL80       0.0019
     74  N        -24.2850   10.4180   13.5230 N.3    96  PHE96      -0.1227
     75  CA       -23.8860    9.6360   14.7130 C.3    96  PHE96       0.1736
     76  C        -24.6360   10.1390   15.9420 C.2    96  PHE96       0.2595
     77  O        -25.0070   11.3010   16.0800 O.2    96  PHE96      -0.2718
     78  CB       -22.3800    9.7860   14.9790 C.3    96  PHE96       0.0547
     79  CG       -21.4990    9.3090   13.8680 C.ar   96  PHE96      -0.0202
     80  CD1      -21.0950    7.9950   13.8310 C.ar   96  PHE96      -0.0042
     81  CD2      -20.9430   10.1980   12.9490 C.ar   96  PHE96      -0.0042
     82  CE1      -20.2350    7.5600   12.8450 C.ar   96  PHE96      -0.0003
     83  CE2      -20.1070    9.7360   11.9450 C.ar   96  PHE96      -0.0003
     84  CZ       -19.7570    8.4240   11.9040 C.ar   96  PHE96      -0.0000
     85  N        -24.7470    9.2700   16.9580 N.am   97  GLU97      -0.1965
     86  CA       -25.0280    9.7620   18.2880 C.3    97  GLU97       0.1733
     87  C        -24.0320   10.8700   18.6400 C.2    97  GLU97       0.2616
     88  O        -22.8320   10.8750   18.2720 O.2    97  GLU97      -0.2715
     89  CB       -24.9430    8.6100   19.2800 C.3    97  GLU97       0.0429
     90  CG       -23.5370    8.0430   19.4300 C.3    97  GLU97       0.1163
     91  CD       -23.4010    6.9260   20.4420 C.2    97  GLU97       0.3649
     92  OE1      -24.0940    7.0380   21.5090 O.co2  97  GLU97      -0.2457
     93  OE2      -22.5910    6.0250   20.2590 O.co2  97  GLU97      -0.2457
     94  N        -24.5330   11.8380   19.3880 N.am   98  LEU98      -0.1963
     95  CA       -23.6950   12.9350   19.8550 C.3    98  LEU98       0.1728
     96  C        -22.8670   12.4950   21.0820 C.2    98  LEU98       0.2616
     97  O        -23.4360   12.2270   22.1550 O.2    98  LEU98      -0.2715
     98  CB       -24.5330   14.1870   20.1310 C.3    98  LEU98       0.0311
     99  CG       -23.7420   15.4190   20.5780 C.3    98  LEU98       0.0022
    100  CD1      -22.8130   15.9570   19.5410 C.3    98  LEU98       0.0001
    101  CD2      -24.6470   16.5360   21.0270 C.3    98  LEU98       0.0001
    102  N        -21.5500   12.5670   20.9160 N.am   99  LEU99      -0.1963
    103  CA       -20.5960   12.3410   22.0180 C.3    99  LEU99       0.1728
    104  C        -20.0920   13.6970   22.4900 C.2    99  LEU99       0.2617
    105  O        -20.4280   14.7550   21.9090 O.2    99  LEU99      -0.2715
    106  CB       -19.4530   11.4590   21.5140 C.3    99  LEU99       0.0311
    107  CG       -19.9390   10.1170   20.9290 C.3    99  LEU99       0.0022
    108  CD1      -18.7210    9.3860   20.3580 C.3    99  LEU99       0.0001
    109  CD2      -20.7530    9.2750   21.8940 C.3    99  LEU99       0.0001
    110  N        -19.1930   13.6610   23.4710 N.am  100  GLY100     -0.1940
    111  CA       -18.5100   14.8020   23.9510 C.3   100  GLY100      0.2014
    112  C        -17.2290   15.1210   23.2030 C.2   100  GLY100      0.2639
    113  O        -17.0070   14.7180   22.0570 O.2   100  GLY100     -0.2714
    114  N        -16.3260   15.8290   23.8710 N.am  101  LEU101     -0.1963
    115  CA       -15.0850   16.2970   23.3610 C.3   101  LEU101      0.1728
    116  C        -14.1240   15.1360   23.0760 C.2   101  LEU101      0.2616
    117  O        -14.1650   14.1090   23.7580 O.2   101  LEU101     -0.2715
    118  CB       -14.4240   17.2260   24.3830 C.3   101  LEU101      0.0311
    119  CG       -15.3040   18.4020   24.7810 C.3   101  LEU101      0.0022
    120  CD1      -14.8260   19.0550   26.0720 C.3   101  LEU101      0.0001
    121  CD2      -15.2980   19.3950   23.6390 C.3   101  LEU101      0.0001
    122  N        -13.2670   15.2860   22.0700 N.am  102  SER102     -0.1950
    123  CA       -12.1980   14.3450   21.8730 C.3   102  SER102      0.1924
    124  C        -11.1990   14.4560   23.0350 C.2   102  SER102      0.2314
    125  O        -11.0410   15.5140   23.6600 O.2   102  SER102     -0.2863
    126  CB       -11.4820   14.4580   20.5170 C.3   102  SER102      0.2116
    127  OG       -10.5480   15.5090   20.5120 O.3   102  SER102     -0.2180
    128  N         -8.7950   17.2110   22.1700 N.3   105  ASP105     -0.1239
    129  CA        -9.2510   18.5660   22.4080 C.3   105  ASP105      0.1674
    130  C         -9.2810   18.8880   23.9010 C.2   105  ASP105      0.2266
    131  O         -8.8920   19.9940   24.3010 O.2   105  ASP105     -0.2867
    132  CB       -10.6230   18.8000   21.8060 C.3   105  ASP105      0.1410
    133  CG       -10.5630   18.9160   20.2660 C.2   105  ASP105      0.3668
    134  OD1       -9.4660   19.0560   19.6870 O.co2 105  ASP105     -0.2456
    135  OD2      -11.6080   18.8820   19.6960 O.co2 105  ASP105     -0.2456
    136  N         -5.6270    7.2780   17.7800 N.3   145  LYS145     -0.1245
    137  CA        -4.9170    8.4980   18.2290 C.3   145  LYS145      0.1561
    138  C         -5.8790    9.2610   19.0970 C.2   145  LYS145      0.2260
    139  O         -7.0660    8.9700   19.1100 O.2   145  LYS145     -0.2867
    140  CB        -4.5070    9.3750   17.0490 C.3   145  LYS145      0.0271
    141  CG        -5.6160    9.6450   16.0680 C.3   145  LYS145      0.0035
    142  CD        -5.0210   10.4660   14.9390 C.3   145  LYS145      0.0206
    143  CE        -6.0550   10.7710   13.9150 C.3   145  LYS145      0.1093
    144  NZ        -5.4780   11.5040   12.7660 N.3   145  LYS145     -0.1314
    145  N         -7.3720   12.0090   19.0120 N.3   147  GLU147     -0.1231
    146  CA        -8.4570   12.6320   18.3490 C.3   147  GLU147      0.1699
    147  C         -9.6280   11.6840   18.1030 C.2   147  GLU147      0.2592
    148  O        -10.7850   12.1630   17.8930 O.2   147  GLU147     -0.2718
    149  CB        -8.0100   13.1520   16.9740 C.3   147  GLU147      0.0402
    150  CG        -6.9730   14.2610   17.1100 C.3   147  GLU147      0.1161
    151  CD        -5.5060   13.8700   17.1570 C.2   147  GLU147      0.3649
    152  OE1       -5.0880   12.8560   17.7580 O.co2 147  GLU147     -0.2457
    153  OE2       -4.7150   14.6490   16.4770 O.co2 147  GLU147     -0.2457
    154  N         -9.3270   10.3860   17.9720 N.am  148  ASN148     -0.1974
    155  CA       -10.3260    9.3710   17.6460 C.3   148  ASN148      0.1688
    156  C        -10.8780    8.6820   18.8740 C.2   148  ASN148      0.2292
    157  O        -11.5850    7.6990   18.7190 O.2   148  ASN148     -0.2864
    158  CB        -9.8530    8.4050   16.5650 C.3   148  ASN148      0.1181
    159  CG        -9.7710    9.0650   15.2120 C.2   148  ASN148      0.2629
    160  OD1      -10.4430   10.0770   14.9410 O.2   148  ASN148     -0.2716
    161  ND2       -8.9430    8.4930   14.3550 N.am  148  ASN148     -0.0877
    162  N        -13.2320    9.7100   22.0000 N.3   150  LEU150     -0.1245
    163  CA       -14.0710   10.8230   22.4470 C.3   150  LEU150      0.1561
    164  C        -14.6880   10.4670   23.7870 C.2   150  LEU150      0.2260
    165  O        -15.1780    9.3320   23.9990 O.2   150  LEU150     -0.2867
    166  CB       -15.1980   11.0630   21.4250 C.3   150  LEU150      0.0270
    167  CG       -14.8530   12.0050   20.2840 C.3   150  LEU150      0.0019
    168  CD1      -13.5960   11.7250   19.5600 C.3   150  LEU150      0.0001
    169  CD2      -16.0440   12.0840   19.3420 C.3   150  LEU150      0.0001
    170  N        -14.0290    6.2690   17.6820 N.3   168  VAL168     -0.1231
    171  CA       -14.5840    6.7280   16.4110 C.3   168  VAL168      0.1692
    172  C        -13.5590    6.5400   15.3070 C.2   168  VAL168      0.2592
    173  O        -12.4170    6.1730   15.5130 O.2   168  VAL168     -0.2718
    174  CB       -15.0650    8.1980   16.4850 C.3   168  VAL168      0.0266
    175  CG1      -15.9590    8.4030   17.6800 C.3   168  VAL168      0.0020
    176  CG2      -13.9250    9.1720   16.4860 C.3   168  VAL168      0.0020
    177  N        -14.0600    6.8570   14.1140 N.am  169  ASP169     -0.1974
    178  CA       -13.3600    6.9330   12.8360 C.3   169  ASP169      0.1709
    179  C        -12.9650    5.5590   12.3300 C.2   169  ASP169      0.2293
    180  O        -11.8420    5.0920   12.5970 O.2   169  ASP169     -0.2864
    181  CB       -12.1380    7.8280   12.8380 C.3   169  ASP169      0.1436
    182  CG       -11.6120    8.0930   11.4380 C.2   169  ASP169      0.3671
    183  OD1      -12.0540    7.3990   10.4480 O.co2 169  ASP169     -0.2456
    184  OD2      -10.8040    9.0700   11.3160 O.co2 169  ASP169     -0.2456
@<TRIPOS>BOND
     1    29    28    2
     2    28    27    1
     3    58    59    1
     4    27    26    1
     5    27    30    1
     6    30    31    1
     7    59    60    1
     8    59    62    1
     9    60    61    2
    10    52    51    2
    11    62    63    1
    12    25    24    2
    13    31    32   ar
    14    31    33   ar
    15    32    34   ar
    16    51    50    1
    17    24    23    1
    18    65    64   ar
    19    63    64    1
    20    56    55    1
    21    56    57    1
    22    33    35   ar
    23    54    55    1
    24    54    53    1
    25    34    36   ar
    26    20    19   ar
    27    64    66   ar
    28    50    53    1
    29    50    49    1
    30    21    19   ar
    31    19    18    1
    32    23    22    1
    33   183   182   ar
    34    35    36   ar
    35    22    15   am
    36    17    18    1
    37    17    14    1
    38   184   182   ar
    39   182   181    1
    40    37    38    1
    41    15    14    1
    42    15    16    2
    43    14    13    1
    44    84    83   ar
    45    84    82   ar
    46    83    81   ar
    47    38    39    1
    48    38    41    1
    49   179   180    2
    50   179   178    1
    51    12    11    2
    52    39    40    2
    53   144   143    1
    54    43    41    1
    55   178   181    1
    56   178   177    1
    57    82    80   ar
    58    81    79   ar
    59    13    11   am
    60    41    42    1
    61    11    10    1
    62    47    46    2
    63    74    75    1
    64    46    45    1
    65    80    79   ar
    66    79    78    1
    67   143   142    1
    68   177   172   am
    69   161   159   am
    70    75    78    1
    71    75    76    1
    72    10     9    1
    73   142   141    1
    74   160   159    2
    75   159   158    1
    76    45    48    1
    77    45    44    1
    78     9     3   am
    79   172   173    2
    80   172   171    1
    81     1     2    1
    82    76    77    2
    83    76    85   am
    84   141   140    1
    85    72    71    1
    86   171   174    1
    87   171   170    1
    88    70    69    2
    89     3     2    1
    90     3     4    2
    91   153   151   ar
    92   174   176    1
    93   174   175    1
    94   158   155    1
    95     2     5    1
    96     5     6    1
    97    85    86    1
    98   149   150    1
    99   149   146    1
   100   140   137    1
   101   150   151    1
   102   151   152   ar
   103     6     7    1
   104     6     8    1
   105    69    68    1
   106    71    73    1
   107    71    68    1
   108   155   154    1
   109   155   156    1
   110   136   137    1
   111   148   147    2
   112   154   147   am
   113   147   146    1
   114    68    67    1
   115   137   138    1
   116    88    87    2
   117    86    87    1
   118    86    89    1
   119   146   145    1
   120    87    94   am
   121   157   156    2
   122   138   139    2
   123    89    90    1
   124   169   167    1
   125    94    95    1
   126    90    91    1
   127   100    99    1
   128   168   167    1
   129   134   133   ar
   130   135   133   ar
   131    95    98    1
   132    95    96    1
   133    98    99    1
   134    93    91   ar
   135   133   132    1
   136   167   166    1
   137   108   107    1
   138    91    92   ar
   139   127   126    1
   140   126   123    1
   141    99   101    1
   142   102    96   am
   143   102   103    1
   144   107   106    1
   145   107   109    1
   146    96    97    2
   147   166   163    1
   148   106   103    1
   149   132   129    1
   150   123   122    1
   151   123   124    1
   152   105   104    2
   153   162   163    1
   154   103   104    1
   155   113   112    2
   156   122   116   am
   157   128   129    1
   158   129   130    1
   159   163   164    1
   160   104   110   am
   161   124   125    2
   162   116   115    1
   163   116   117    2
   164   112   114   am
   165   112   111    1
   166   115   114    1
   167   115   118    1
   168   110   111    1
   169   121   119    1
   170   164   165    2
   171   130   131    2
   172   118   119    1
   173   119   120    1
