@<TRIPOS>MOLECULE
tmp/6i5iA00.pdb
 184 173 0 0 0
SMALL
GASTEIGER

@<TRIPOS>ATOM
      1  N         20.6940   52.2500   10.5200 N.3    22  LEU22      -0.1231
      2  CA        19.3870   51.5470   10.5460 C.3    22  LEU22       0.1693
      3  C         18.8270   51.4270   11.9390 C.2    22  LEU22       0.2593
      4  O         17.6030   51.4530   12.1380 O.2    22  LEU22      -0.2718
      5  CB        19.5240   50.2020    9.9060 C.3    22  LEU22       0.0284
      6  CG        19.9800   50.2770    8.4530 C.3    22  LEU22       0.0019
      7  CD1       20.0630   48.8870    7.8540 C.3    22  LEU22       0.0001
      8  CD2       19.0850   51.1800    7.6340 C.3    22  LEU22       0.0001
      9  N         19.6910   51.2800   12.9060 N.am   23  GLY23      -0.1942
     10  CA        19.2840   51.3880   14.3080 C.3    23  GLY23       0.2014
     11  C         20.3720   50.9430   15.2250 C.2    23  GLY23       0.2639
     12  O         21.4710   50.5370   14.7890 O.2    23  GLY23      -0.2714
     13  N         20.0830   51.0770   16.5140 N.am   24  GLU24      -0.1963
     14  CA        20.9820   50.6620   17.5620 C.3    24  GLU24       0.1733
     15  C         20.3230   49.6760   18.4760 C.2    24  GLU24       0.2616
     16  O         19.0880   49.6290   18.6030 O.2    24  GLU24      -0.2715
     17  CB        21.3950   51.8600   18.4110 C.3    24  GLU24       0.0429
     18  CG        22.0210   52.9720   17.5850 C.3    24  GLU24       0.1163
     19  CD        22.5150   54.1280   18.4400 C.2    24  GLU24       0.3649
     20  OE1       22.6880   53.9380   19.6720 O.co2  24  GLU24      -0.2457
     21  OE2       22.7650   55.2070   17.8780 O.co2  24  GLU24      -0.2457
     22  N         21.1560   48.8930   19.1430 N.am   25  GLY25      -0.1955
     23  CA        20.7100   48.0260   20.2600 C.3    25  GLY25       0.1869
     24  C         21.8010   48.0060   21.2960 C.2    25  GLY25       0.2309
     25  O         22.8020   48.7180   21.1360 O.2    25  GLY25      -0.2863
     26  N         24.0580   45.9960   21.7860 N.3    27  PHE27      -0.1241
     27  CA        25.2390   45.4670   21.1220 C.3    27  PHE27       0.1605
     28  C         26.0700   46.4360   20.2940 C.2    27  PHE27       0.2264
     29  O         27.1540   46.0700   19.8970 O.2    27  PHE27      -0.2867
     30  CB        24.8300   44.3390   20.1610 C.3    27  PHE27       0.0534
     31  CG        23.9970   44.8080   19.0340 C.ar   27  PHE27      -0.0203
     32  CD1       24.5690   45.4520   17.9330 C.ar   27  PHE27      -0.0042
     33  CD2       22.6180   44.5970   19.0480 C.ar   27  PHE27      -0.0042
     34  CE1       23.8020   45.9280   16.9170 C.ar   27  PHE27      -0.0003
     35  CE2       21.8330   45.0680   18.0160 C.ar   27  PHE27      -0.0003
     36  CZ        22.4410   45.7370   16.9400 C.ar   27  PHE27      -0.0000
     37  N         23.5590   48.9470   13.6110 N.3    30  VAL30      -0.1245
     38  CA        23.5690   48.4060   12.2900 C.3    30  VAL30       0.1561
     39  C         23.4890   49.6220   11.3480 C.2    30  VAL30       0.2260
     40  O         22.6120   50.4810   11.4890 O.2    30  VAL30      -0.2867
     41  CB        22.3730   47.4470   12.0510 C.3    30  VAL30       0.0252
     42  CG1       22.4180   46.9030   10.6670 C.3    30  VAL30       0.0019
     43  CG2       22.3690   46.3040   13.0600 C.3    30  VAL30       0.0019
     44  N         23.8870   45.3850    4.8990 N.3    44  ALA44      -0.1245
     45  CA        23.8220   45.8540    6.2560 C.3    44  ALA44       0.1562
     46  C         25.0790   45.4460    6.9670 C.2    44  ALA44       0.2260
     47  O         25.5600   44.3210    6.7830 O.2    44  ALA44      -0.2867
     48  CB        22.6270   45.2480    6.9640 C.3    44  ALA44       0.0290
     49  N         26.6650   45.2020   10.8410 N.3    46  LYS46      -0.1245
     50  CA        26.4920   45.3040   12.2870 C.3    46  LYS46       0.1561
     51  C         27.8490   45.5820   12.9050 C.2    46  LYS46       0.2260
     52  O         28.7800   44.7760   12.7600 O.2    46  LYS46      -0.2867
     53  CB        25.8890   44.0290   12.8360 C.3    46  LYS46       0.0271
     54  CG        25.6810   44.1540   14.3220 C.3    46  LYS46       0.0035
     55  CD        24.6400   43.2210   14.8500 C.3    46  LYS46       0.0206
     56  CE        25.1020   41.8090   14.9410 C.3    46  LYS46       0.1093
     57  NZ        24.1450   40.8650   15.6740 N.3    46  LYS46      -0.1314
     58  N         27.9330   34.3700   17.3100 N.3    61  GLU61      -0.1245
     59  CA        26.9810   34.5440   16.2280 C.3    61  GLU61       0.1567
     60  C         27.5950   34.1720   14.8780 C.2    61  GLU61       0.2260
     61  O         26.9170   33.5670   14.0390 O.2    61  GLU61      -0.2867
     62  CB        26.5250   36.0110   16.1850 C.3    61  GLU61       0.0388
     63  CG        25.5990   36.2700   15.0300 C.3    61  GLU61       0.1160
     64  CD        24.9050   37.6160   15.0770 C.2    61  GLU61       0.3649
     65  OE1       25.5530   38.5770   15.4880 O.co2  61  GLU61      -0.2457
     66  OE2       23.7030   37.6900   14.7350 O.co2  61  GLU61      -0.2457
     67  N         18.7050   35.2190    8.3890 N.3    80  VAL80      -0.1245
     68  CA        19.5130   36.2040    7.6320 C.3    80  VAL80       0.1561
     69  C         20.8590   35.6160    7.1400 C.2    80  VAL80       0.2260
     70  O         21.5070   34.8340    7.8480 O.2    80  VAL80      -0.2867
     71  CB        19.6920   37.4800    8.4440 C.3    80  VAL80       0.0252
     72  CG1       20.5840   37.2600    9.6190 C.3    80  VAL80       0.0019
     73  CG2       20.2690   38.5760    7.5510 C.3    80  VAL80       0.0019
     74  N         25.8540   41.6280    6.3920 N.3    96  PHE96      -0.1227
     75  CA        24.6680   40.8260    6.0460 C.3    96  PHE96       0.1736
     76  C         24.0350   41.3010    4.7620 C.2    96  PHE96       0.2595
     77  O         24.1510   42.4590    4.3860 O.2    96  PHE96      -0.2718
     78  CB        23.6110   40.9420    7.1270 C.3    96  PHE96       0.0547
     79  CG        24.0570   40.4800    8.4770 C.ar   96  PHE96      -0.0202
     80  CD1       23.9100   39.1570    8.8460 C.ar   96  PHE96      -0.0042
     81  CD2       24.5450   41.3910    9.4430 C.ar   96  PHE96      -0.0042
     82  CE1       24.3060   38.7130   10.0850 C.ar   96  PHE96      -0.0003
     83  CE2       24.9040   40.9450   10.6880 C.ar   96  PHE96      -0.0003
     84  CZ        24.7750   39.6120   11.0080 C.ar   96  PHE96      -0.0000
     85  N         23.2690   40.4160    4.1260 N.am   97  GLU97      -0.1965
     86  CA        22.2770   40.8830    3.1870 C.3    97  GLU97       0.1733
     87  C         21.3940   42.0260    3.7840 C.2    97  GLU97       0.2616
     88  O         21.0750   42.0270    4.9840 O.2    97  GLU97      -0.2715
     89  CB        21.4170   39.7050    2.7080 C.3    97  GLU97       0.0429
     90  CG        20.5360   39.1580    3.8090 C.3    97  GLU97       0.1163
     91  CD        19.6040   38.0700    3.3630 C.2    97  GLU97       0.3649
     92  OE1       19.1520   38.1400    2.1950 O.co2  97  GLU97      -0.2457
     93  OE2       19.3180   37.1560    4.1680 O.co2  97  GLU97      -0.2457
     94  N         21.0470   42.9970    2.9610 N.am   98  LEU98      -0.1963
     95  CA        20.2300   44.0960    3.4040 C.3    98  LEU98       0.1728
     96  C         18.7750   43.7110    3.4340 C.2    98  LEU98       0.2616
     97  O         18.1900   43.4320    2.3870 O.2    98  LEU98      -0.2715
     98  CB        20.3930   45.3420    2.5330 C.3    98  LEU98       0.0311
     99  CG        19.5990   46.5810    3.0220 C.3    98  LEU98       0.0022
    100  CD1       20.0480   47.0350    4.3810 C.3    98  LEU98       0.0001
    101  CD2       19.7800   47.6770    2.0230 C.3    98  LEU98       0.0001
    102  N         18.2080   43.6540    4.6190 N.am   99  LEU99      -0.1963
    103  CA        16.7600   43.4430    4.8490 C.3    99  LEU99       0.1728
    104  C         16.0580   44.7810    5.0310 C.2    99  LEU99       0.2617
    105  O         16.7280   45.8540    5.0180 O.2    99  LEU99      -0.2715
    106  CB        16.5570   42.5420    6.0920 C.3    99  LEU99       0.0311
    107  CG        17.2980   41.2240    5.9820 C.3    99  LEU99       0.0022
    108  CD1       17.0890   40.4620    7.3250 C.3    99  LEU99       0.0001
    109  CD2       16.9180   40.4140    4.7310 C.3    99  LEU99       0.0001
    110  N         14.7400   44.7550    5.2420 N.am  100  GLY100     -0.1940
    111  CA        13.9630   45.9510    5.4930 C.3   100  GLY100      0.2014
    112  C         13.9000   46.3040    6.9740 C.2   100  GLY100      0.2639
    113  O         14.8250   45.9970    7.7400 O.2   100  GLY100     -0.2714
    114  N         12.8420   46.9690    7.3820 N.am  101  LEU101     -0.1963
    115  CA        12.6270   47.4100    8.7450 C.3   101  LEU101      0.1728
    116  C         12.3910   46.2510    9.7040 C.2   101  LEU101      0.2616
    117  O         11.8150   45.2160    9.2970 O.2   101  LEU101     -0.2715
    118  CB        11.4250   48.3150    8.8140 C.3   101  LEU101      0.0311
    119  CG        11.5640   49.5770    7.9340 C.3   101  LEU101      0.0022
    120  CD1       10.2050   50.1990    7.7060 C.3   101  LEU101      0.0001
    121  CD2       12.4740   50.5300    8.6500 C.3   101  LEU101      0.0001
    122  N         12.7580   46.4350   10.9560 N.am  102  SER102     -0.1950
    123  CA        12.3360   45.4680   11.9850 C.3   102  SER102      0.1924
    124  C         10.8320   45.6220   12.1900 C.2   102  SER102      0.2314
    125  O         10.2400   46.7190   11.9780 O.2   102  SER102     -0.2863
    126  CB        13.0890   45.6060   13.3040 C.3   102  SER102      0.2116
    127  OG        12.6510   46.7740   13.9910 O.3   102  SER102     -0.2180
    128  N         10.2280   48.3980   14.6980 N.3   105  ASP105     -0.1239
    129  CA        10.2780   49.7830   14.2060 C.3   105  ASP105      0.1674
    130  C          9.0690   50.1040   13.3470 C.2   105  ASP105      0.2266
    131  O          8.5550   51.2110   13.4140 O.2   105  ASP105     -0.2867
    132  CB        11.5510   50.0390   13.4050 C.3   105  ASP105      0.1410
    133  CG        12.7690   50.2220   14.3190 C.2   105  ASP105      0.3668
    134  OD1       12.5850   50.5650   15.5230 O.co2 105  ASP105     -0.2456
    135  OD2       13.9290   50.1020   13.8430 O.co2 105  ASP105     -0.2456
    136  N         12.2140   38.4690   19.7310 N.3   145  LYS145     -0.1245
    137  CA        11.4600   39.6950   20.0920 C.3   145  LYS145      0.1561
    138  C         11.2450   40.4270   18.7810 C.2   145  LYS145      0.2260
    139  O         11.9040   40.1360   17.7740 O.2   145  LYS145     -0.2867
    140  CB        12.2820   40.5390   21.0600 C.3   145  LYS145      0.0271
    141  CG        13.6360   40.9130   20.6070 C.3   145  LYS145      0.0035
    142  CD        14.3220   41.6800   21.7140 C.3   145  LYS145      0.0206
    143  CE        15.7750   41.9110   21.4190 C.3   145  LYS145      0.1093
    144  NZ        16.3420   42.7200   22.5390 N.3   145  LYS145     -0.1314
    145  N         12.1410   43.2050   17.5510 N.3   147  GLU147     -0.1231
    146  CA        13.2820   43.8480   16.9850 C.3   147  GLU147      0.1699
    147  C         14.1450   42.8830   16.1560 C.2   147  GLU147      0.2592
    148  O         14.8760   43.3290   15.2950 O.2   147  GLU147     -0.2718
    149  CB        14.1890   44.4360   18.0800 C.3   147  GLU147      0.0402
    150  CG        13.5370   45.5800   18.8330 C.3   147  GLU147      0.1161
    151  CD        12.7820   45.1290   20.1180 C.2   147  GLU147      0.3649
    152  OE1       12.0440   44.0890   20.1680 O.co2 147  GLU147     -0.2457
    153  OE2       12.9440   45.8950   21.1310 O.co2 147  GLU147     -0.2457
    154  N         14.0660   41.5970   16.4680 N.am  148  ASN148     -0.1974
    155  CA        14.8920   40.5830   15.7920 C.3   148  ASN148      0.1688
    156  C         14.1540   39.8580   14.6890 C.2   148  ASN148      0.2292
    157  O         14.6510   38.8590   14.1720 O.2   148  ASN148     -0.2864
    158  CB        15.4850   39.6260   16.8310 C.3   148  ASN148      0.1181
    159  CG        16.6160   40.2470   17.6430 C.2   148  ASN148      0.2629
    160  OD1       17.2040   41.2510   17.2270 O.2   148  ASN148     -0.2716
    161  ND2       16.9050   39.6640   18.8030 N.am  148  ASN148     -0.0877
    162  N         12.7760   40.8300   11.0780 N.3   150  LEU150     -0.1245
    163  CA        12.8730   41.9180   10.1160 C.3   150  LEU150      0.1561
    164  C         12.0740   41.6040    8.8700 C.2   150  LEU150      0.2260
    165  O         12.1150   40.4590    8.3600 O.2   150  LEU150     -0.2867
    166  CB        14.3090   42.1710    9.7150 C.3   150  LEU150      0.0270
    167  CG        15.0680   43.1170   10.6440 C.3   150  LEU150      0.0019
    168  CD1       14.9840   42.7890   12.0870 C.3   150  LEU150      0.0001
    169  CD2       16.4960   43.2360   10.1610 C.3   150  LEU150      0.0001
    170  N         16.8440   37.4390   12.7580 N.3   179  VAL179     -0.1231
    171  CA        18.1810   37.8950   12.9470 C.3   179  VAL179      0.1692
    172  C         18.5980   37.7150   14.4430 C.2   179  VAL179      0.2592
    173  O         17.7970   37.3320   15.2900 O.2   179  VAL179     -0.2718
    174  CB        18.4390   39.3370   12.5220 C.3   179  VAL179      0.0266
    175  CG1       17.9860   39.5490   11.0830 C.3   179  VAL179      0.0020
    176  CG2       17.7720   40.3350   13.4600 C.3   179  VAL179      0.0020
    177  N         19.8840   37.9790   14.6440 N.am  180  ASP180     -0.1974
    178  CA        20.6000   38.0320   15.9150 C.3   180  ASP180      0.1709
    179  C         20.7950   36.6730   16.5180 C.2   180  ASP180      0.2293
    180  O         19.9430   36.2000   17.2970 O.2   180  ASP180     -0.2864
    181  CB        19.9000   38.9450   16.9200 C.3   180  ASP180      0.1436
    182  CG        20.6980   39.1100   18.2050 C.2   180  ASP180      0.3671
    183  OD1       21.8100   38.5120   18.3640 O.co2 180  ASP180     -0.2456
    184  OD2       20.2310   39.9340   19.0560 O.co2 180  ASP180     -0.2456
@<TRIPOS>BOND
     1   101    99    1
     2    92    91   ar
     3    97    96    2
     4    98    99    1
     5    98    95    1
     6    89    86    1
     7    89    90    1
     8    94    95    1
     9    94    87   am
    10    99   100    1
    11    86    87    1
    12    86    85    1
    13    91    90    1
    14    91    93   ar
    15    95    96    1
    16    96   102   am
    17    87    88    2
    18    85    76   am
    19    77    76    2
    20   102   103    1
    21   109   107    1
    22    76    75    1
    23   103   104    1
    24   103   106    1
    25    44    45    1
    26   105   104    2
    27   104   110   am
    28   110   111    1
    29   111   112    1
    30   107   106    1
    31   107   108    1
    32    75    74    1
    33    75    78    1
    34    45    48    1
    35    45    46    1
    36    47    46    2
    37   112   114   am
    38   112   113    2
    39    78    79    1
    40    69    68    1
    41    69    70    2
    42   114   115    1
    43    73    71    1
    44    68    67    1
    45    68    71    1
    46     8     6    1
    47   120   119    1
    48     7     6    1
    49   119   121    1
    50   119   118    1
    51   165   164    2
    52    71    72    1
    53     6     5    1
    54    79    80   ar
    55    79    81   ar
    56   115   118    1
    57   115   116    1
    58    80    82   ar
    59   164   163    1
    60   117   116    2
    61    81    83   ar
    62   116   122   am
    63   166   163    1
    64   166   167    1
    65     5     2    1
    66    82    84   ar
    67   163   162    1
    68   169   167    1
    69     1     2    1
    70     2     3    1
    71   167   168    1
    72    42    41    1
    73    83    84   ar
    74    49    50    1
    75   122   123    1
    76   175   174    1
    77    39    40    2
    78    39    38    1
    79     3     4    2
    80     3     9   am
    81   125   124    2
    82   123   124    1
    83   123   126    1
    84    41    38    1
    85    41    43    1
    86    50    53    1
    87    50    51    1
    88    38    37    1
    89   174   171    1
    90   174   176    1
    91   170   171    1
    92    52    51    2
    93    53    54    1
    94     9    10    1
    95   171   172    1
    96   126   127    1
    97   130   131    2
    98   130   129    1
    99   132   129    1
   100   132   133    1
   101   135   133   ar
   102    61    60    2
   103   157   156    2
   104   129   128    1
   105    10    11    1
   106   133   134   ar
   107    54    55    1
   108   172   177   am
   109   172   173    2
   110   177   178    1
   111   156   155    1
   112    66    64   ar
   113    12    11    2
   114    55    56    1
   115    60    59    1
   116    56    57    1
   117    63    64    1
   118    63    62    1
   119    64    65   ar
   120    11    13   am
   121   148   147    2
   122   155   154    1
   123   155   158    1
   124   178   179    1
   125   178   181    1
   126   147   154   am
   127   147   146    1
   128    62    59    1
   129    59    58    1
   130    13    14    1
   131   179   180    2
   132   158   159    1
   133    34    36   ar
   134    34    32   ar
   135   181   182    1
   136    36    35   ar
   137   146   145    1
   138   146   149    1
   139   160   159    2
   140    14    17    1
   141    14    15    1
   142    18    17    1
   143    18    19    1
   144   159   161   am
   145   139   138    2
   146    21    19   ar
   147    32    31   ar
   148    35    33   ar
   149   149   150    1
   150   182   183   ar
   151   182   184   ar
   152    19    20   ar
   153    15    16    2
   154    15    22   am
   155   138   137    1
   156   150   151    1
   157    31    33   ar
   158    31    30    1
   159    22    23    1
   160   136   137    1
   161    29    28    2
   162   137   140    1
   163   151   152   ar
   164   151   153   ar
   165    30    27    1
   166    23    24    1
   167    28    27    1
   168   141   140    1
   169   141   142    1
   170    27    26    1
   171    25    24    2
   172   143   142    1
   173   143   144    1
