@<TRIPOS>MOLECULE
tmp/6i5kA00.pdb
 175 165 0 0 0
SMALL
GASTEIGER

@<TRIPOS>ATOM
      1  N         21.3630    0.7670   28.6170 N.3    22  LEU22      -0.1231
      2  CA        19.9050    0.8300   28.3890 C.3    22  LEU22       0.1693
      3  C         19.2690    2.1400   28.9430 C.2    22  LEU22       0.2593
      4  O         18.4560    2.7630   28.2680 O.2    22  LEU22      -0.2718
      5  CB        19.2040   -0.3940   29.0040 C.3    22  LEU22       0.0284
      6  CG        19.6380   -1.7390   28.3950 C.3    22  LEU22       0.0019
      7  CD1       19.2400   -2.8770   29.3060 C.3    22  LEU22       0.0001
      8  CD2       19.1050   -1.9560   26.9830 C.3    22  LEU22       0.0001
      9  N         19.6590    2.5560   30.1420 N.am   23  GLY23      -0.1942
     10  CA        19.2940    3.8640   30.6520 C.3    23  GLY23       0.2014
     11  C         20.0360    4.2650   31.9090 C.2    23  GLY23       0.2639
     12  O         20.7620    3.4620   32.4910 O.2    23  GLY23      -0.2714
     13  N         19.9050    5.5360   32.2820 N.am   24  GLU24      -0.1963
     14  CA        20.5850    6.1160   33.4530 C.3    24  GLU24       0.1733
     15  C         19.5640    6.7720   34.3420 C.2    24  GLU24       0.2616
     16  O         18.4430    7.0220   33.9210 O.2    24  GLU24      -0.2715
     17  CB        21.6360    7.1510   33.0450 C.3    24  GLU24       0.0429
     18  CG        22.4400    6.6990   31.8560 C.3    24  GLU24       0.1163
     19  CD        23.4030    7.7020   31.2870 C.2    24  GLU24       0.3649
     20  OE1       23.0840    8.1500   30.1540 O.co2  24  GLU24      -0.2457
     21  OE2       24.4600    7.9980   31.8890 O.co2  24  GLU24      -0.2457
     22  N         19.9650    7.0160   35.5780 N.am   25  GLY25      -0.1955
     23  CA        19.1810    7.7350   36.5430 C.3    25  GLY25       0.1869
     24  C         20.0870    8.2690   37.6410 C.2    25  GLY25       0.2309
     25  O         21.3240    8.1930   37.5440 O.2    25  GLY25      -0.2863
     26  N         20.4120    6.9940   40.5750 N.3    27  PHE27      -0.1241
     27  CA        21.0120    5.8310   41.2270 C.3    27  PHE27       0.1605
     28  C         22.2810    5.3040   40.5280 C.2    27  PHE27       0.2264
     29  O         23.0160    4.5620   41.1390 O.2    27  PHE27      -0.2867
     30  CB        19.9690    4.6790   41.2890 C.3    27  PHE27       0.0534
     31  CG        19.5400    4.1740   39.9090 C.ar   27  PHE27      -0.0203
     32  CD1       20.3310    3.2730   39.2110 C.ar   27  PHE27      -0.0042
     33  CD2       18.4320    4.6820   39.2930 C.ar   27  PHE27      -0.0042
     34  CE1       20.0120    2.8560   37.9490 C.ar   27  PHE27      -0.0003
     35  CE2       18.0870    4.2630   38.0350 C.ar   27  PHE27      -0.0003
     36  CZ        18.8970    3.3570   37.3520 C.ar   27  PHE27      -0.0000
     37  N         21.7170    1.2520   34.0670 N.3    30  VAL30      -0.1245
     38  CA        21.4040   -0.1270   33.7370 C.3    30  VAL30       0.1561
     39  C         22.0350   -0.4510   32.3800 C.2    30  VAL30       0.2260
     40  O         21.8590    0.2720   31.4410 O.2    30  VAL30      -0.2867
     41  CB        19.8760   -0.3810   33.6350 C.3    30  VAL30       0.0252
     42  CG1       19.5810   -1.8320   33.2780 C.3    30  VAL30       0.0019
     43  CG2       19.1410   -0.0240   34.9380 C.3    30  VAL30       0.0019
     44  N         20.1150   -7.9120   32.1190 N.3    44  ALA44      -0.1245
     45  CA        20.2380   -6.4910   32.4630 C.3    44  ALA44       0.1562
     46  C         20.9920   -6.3850   33.7790 C.2    44  ALA44       0.2260
     47  O         20.7140   -7.1440   34.7160 O.2    44  ALA44      -0.2867
     48  CB        18.8550   -5.8700   32.5740 C.3    44  ALA44       0.0290
     49  N         22.0920   -3.7130   36.7330 N.3    46  LYS46      -0.1245
     50  CA        22.0400   -2.3870   37.3170 C.3    46  LYS46       0.1561
     51  C         23.3340   -2.1160   38.1160 C.2    46  LYS46       0.2260
     52  O         23.6180   -2.8060   39.0910 O.2    46  LYS46      -0.2867
     53  CB        20.8430   -2.2330   38.2200 C.3    46  LYS46       0.0271
     54  CG        20.7530   -0.8270   38.8210 C.3    46  LYS46       0.0035
     55  CD        19.3520   -0.4730   39.3310 C.3    46  LYS46       0.0206
     56  CE        18.9740   -1.1910   40.6160 C.3    46  LYS46       0.1093
     57  NZ        17.6350   -0.7250   41.1040 N.3    46  LYS46      -0.1314
     58  N         16.8290   -3.1970   48.4860 N.3    61  GLU61      -0.1245
     59  CA        16.1720   -3.7820   47.2910 C.3    61  GLU61       0.1567
     60  C         16.4690   -5.2690   47.1720 C.2    61  GLU61       0.2260
     61  O         15.5660   -6.0630   46.8720 O.2    61  GLU61      -0.2867
     62  CB        16.5890   -3.0630   45.9920 C.3    61  GLU61       0.0388
     63  CG        16.1140   -3.7450   44.6960 C.3    61  GLU61       0.1160
     64  CD        16.2720   -2.8790   43.4440 C.2    61  GLU61       0.3649
     65  OE1       17.3920   -2.3550   43.2080 O.co2  61  GLU61      -0.2457
     66  OE2       15.2800   -2.7460   42.6660 O.co2  61  GLU61      -0.2457
     67  N          9.7030   -7.8530   38.7700 N.3    80  VAL80      -0.1245
     68  CA        10.9210   -8.2720   38.0340 C.3    80  VAL80       0.1561
     69  C         11.7150   -9.3410   38.7920 C.2    80  VAL80       0.2260
     70  O         11.7410   -9.3220   40.0050 O.2    80  VAL80      -0.2867
     71  CB        11.8170   -7.0590   37.6640 C.3    80  VAL80       0.0252
     72  CG1       12.4260   -6.3870   38.8900 C.3    80  VAL80       0.0019
     73  CG2       12.8970   -7.4670   36.6780 C.3    80  VAL80       0.0019
     74  N         19.3250   -8.7420   36.5460 N.3    96  PHE96      -0.1227
     75  CA        17.8970   -8.9960   36.3680 C.3    96  PHE96       0.1736
     76  C         17.6520   -9.6380   35.0190 C.2    96  PHE96       0.2595
     77  O         18.5070   -9.5230   34.1200 O.2    96  PHE96      -0.2718
     78  CB        17.0550   -7.6960   36.3810 C.3    96  PHE96       0.0547
     79  CG        17.1670   -6.8770   37.6460 C.ar   96  PHE96      -0.0202
     80  CD1       16.2950   -7.0820   38.6740 C.ar   96  PHE96      -0.0042
     81  CD2       18.1380   -5.8560   37.7690 C.ar   96  PHE96      -0.0042
     82  CE1       16.3720   -6.3150   39.8260 C.ar   96  PHE96      -0.0003
     83  CE2       18.2080   -5.0640   38.9100 C.ar   96  PHE96      -0.0003
     84  CZ        17.3410   -5.3080   39.9520 C.ar   96  PHE96      -0.0000
     85  N         16.5060  -10.3120   34.8820 N.am   97  GLU97      -0.1965
     86  CA        15.9930  -10.7190   33.5870 C.3    97  GLU97       0.1733
     87  C         15.9590   -9.4660   32.7030 C.2    97  GLU97       0.2616
     88  O         15.7150   -8.3510   33.1890 O.2    97  GLU97      -0.2715
     89  CB        14.5790  -11.3700   33.7220 C.3    97  GLU97       0.0429
     90  CG        13.4700  -10.3970   34.1070 C.3    97  GLU97       0.1163
     91  CD        12.1120  -11.0360   34.3160 C.2    97  GLU97       0.3649
     92  OE1       11.4200  -10.5450   35.2190 O.co2  97  GLU97      -0.2457
     93  OE2       11.6910  -11.9850   33.6140 O.co2  97  GLU97      -0.2457
     94  N         16.2290   -9.6460   31.4090 N.am   98  LEU98      -0.1963
     95  CA        16.2290   -8.5330   30.4670 C.3    98  LEU98       0.1728
     96  C         14.8010   -8.2710   29.9600 C.2    98  LEU98       0.2616
     97  O         14.1910   -9.1370   29.3640 O.2    98  LEU98      -0.2715
     98  CB        17.1170   -8.8350   29.2760 C.3    98  LEU98       0.0311
     99  CG        17.1700   -7.7860   28.1530 C.3    98  LEU98       0.0022
    100  CD1       17.8000   -6.4960   28.6570 C.3    98  LEU98       0.0001
    101  CD2       17.9150   -8.3030   26.9280 C.3    98  LEU98       0.0001
    102  N         14.3260   -7.0520   30.1500 N.am   99  LEU99      -0.1963
    103  CA        13.0030   -6.5980   29.7050 C.3    99  LEU99       0.1728
    104  C         13.1820   -5.6060   28.5620 C.2    99  LEU99       0.2617
    105  O         14.3470   -5.2830   28.1810 O.2    99  LEU99      -0.2715
    106  CB        12.3200   -5.9050   30.8850 C.3    99  LEU99       0.0311
    107  CG        12.1730   -6.7370   32.1450 C.3    99  LEU99       0.0022
    108  CD1       11.6560   -5.9170   33.3110 C.3    99  LEU99       0.0001
    109  CD2       11.2380   -7.8930   31.9200 C.3    99  LEU99       0.0001
    110  N         12.0630   -5.0610   28.0660 N.am  100  GLY100     -0.1940
    111  CA        12.0830   -3.9940   27.0800 C.3   100  GLY100      0.2014
    112  C         12.0680   -2.6310   27.7510 C.2   100  GLY100      0.2639
    113  O         12.3350   -2.4950   28.9450 O.2   100  GLY100     -0.2714
    114  N         11.8350   -1.6060   26.9420 N.am  101  LEU101     -0.1963
    115  CA        11.8500   -0.2120   27.4010 C.3   101  LEU101      0.1728
    116  C         10.8460    0.0620   28.5230 C.2   101  LEU101      0.2616
    117  O          9.7960   -0.5840   28.5980 O.2   101  LEU101     -0.2715
    118  CB        11.4520    0.7020   26.2430 C.3   101  LEU101      0.0311
    119  CG        12.3370    0.8890   25.0010 C.3   101  LEU101      0.0022
    120  CD1       11.5380    1.7220   23.9990 C.3   101  LEU101      0.0001
    121  CD2       13.6230    1.6080   25.3520 C.3   101  LEU101      0.0001
    122  N         11.1230    1.0930   29.3100 N.am  102  SER102     -0.1950
    123  CA        10.1450    1.6200   30.2190 C.3   102  SER102      0.1924
    124  C          8.9860    2.2820   29.4710 C.2   102  SER102      0.2314
    125  O          9.1140    2.6970   28.2930 O.2   102  SER102     -0.2863
    126  CB        10.7550    2.6610   31.1560 C.3   102  SER102      0.2116
    127  OG        10.8260    3.9400   30.5440 O.3   102  SER102     -0.2180
    128  N          9.9350    5.7630   28.3540 N.3   105  ASP105     -0.1239
    129  CA        10.7960    5.7670   27.1730 C.3   105  ASP105      0.1674
    130  C         10.0140    5.5360   25.9020 C.2   105  ASP105      0.2266
    131  O         10.2910    6.1600   24.8750 O.2   105  ASP105     -0.2867
    132  CB        11.8680    4.6990   27.2630 C.3   105  ASP105      0.1410
    133  CG        12.9980    5.0490   28.2580 C.2   105  ASP105      0.3668
    134  OD1       13.2430    6.2700   28.5010 O.co2 105  ASP105     -0.2456
    135  OD2       13.5940    4.0640   28.8170 O.co2 105  ASP105     -0.2456
    136  N          8.7330    5.4910   34.4440 N.3   147  GLU147     -0.1231
    137  CA        10.1130    4.9700   34.3210 C.3   147  GLU147      0.1699
    138  C         10.2800    3.6150   34.9930 C.2   147  GLU147      0.2592
    139  O         11.1240    2.8340   34.5400 O.2   147  GLU147     -0.2718
    140  CB        11.1360    5.9390   34.9200 C.3   147  GLU147      0.0402
    141  CG        11.1920    7.2650   34.1920 C.3   147  GLU147      0.1161
    142  CD        10.3890    8.3980   34.8840 C.2   147  GLU147      0.3649
    143  OE1        9.1450    8.2600   35.2160 O.co2 147  GLU147     -0.2457
    144  OE2       11.0500    9.4590   35.0960 O.co2 147  GLU147     -0.2457
    145  N          9.4930    3.3550   36.0530 N.am  148  ASN148     -0.1974
    146  CA         9.5580    2.1250   36.8420 C.3   148  ASN148      0.1688
    147  C          8.5340    1.0600   36.4460 C.2   148  ASN148      0.2292
    148  O          8.4250    0.0290   37.1340 O.2   148  ASN148     -0.2864
    149  CB         9.4280    2.4360   38.3390 C.3   148  ASN148      0.1181
    150  CG        10.6920    3.0330   38.9190 C.2   148  ASN148      0.2629
    151  OD1       11.7980    2.8090   38.3960 O.2   148  ASN148     -0.2716
    152  ND2       10.5650    3.7240   40.0490 N.am  148  ASN148     -0.0877
    153  N          7.9000   -1.2990   33.1120 N.3   150  LEU150     -0.1245
    154  CA         8.6270   -1.7040   31.8990 C.3   150  LEU150      0.1561
    155  C          7.8540   -2.7500   31.1140 C.2   150  LEU150      0.2260
    156  O          7.2710   -3.6440   31.6880 O.2   150  LEU150     -0.2867
    157  CB        10.0160   -2.2840   32.2690 C.3   150  LEU150      0.0270
    158  CG        11.2040   -1.3290   32.4420 C.3   150  LEU150      0.0019
    159  CD1       11.0170   -0.3420   33.5700 C.3   150  LEU150      0.0001
    160  CD2       12.5250   -2.1110   32.6520 C.3   150  LEU150      0.0001
    161  N          9.4600   -2.4810   38.5590 N.3   179  VAL179     -0.1231
    162  CA        10.8800   -2.5270   39.0310 C.3   179  VAL179      0.1692
    163  C         11.1340   -1.4930   40.1020 C.2   179  VAL179      0.2592
    164  O         10.2370   -0.6980   40.4380 O.2   179  VAL179     -0.2718
    165  CB        11.9120   -2.3240   37.8710 C.3   179  VAL179      0.0266
    166  CG1       11.6140   -3.2820   36.7200 C.3   179  VAL179      0.0020
    167  CG2       11.9350   -0.8880   37.3620 C.3   179  VAL179      0.0020
    168  N         12.3720   -1.5130   40.6170 N.am  180  ASP180     -0.1974
    169  CA        12.8830   -0.5720   41.6100 C.3   180  ASP180      0.1709
    170  C         12.2210   -0.6900   42.9920 C.2   180  ASP180      0.2293
    171  O         11.3030    0.0560   43.3180 O.2   180  ASP180     -0.2864
    172  CB        12.8660    0.8840   41.1320 C.3   180  ASP180      0.1436
    173  CG        13.8680    1.7610   41.9010 C.2   180  ASP180      0.3671
    174  OD1       14.3120    1.3590   43.0100 O.co2 180  ASP180     -0.2456
    175  OD2       14.3230    2.8100   41.3530 O.co2 180  ASP180     -0.2456
@<TRIPOS>BOND
     1   120   119    1
     2   131   130    2
     3   119   121    1
     4   119   118    1
     5   130   129    1
     6   118   115    1
     7   101    99    1
     8   114   115    1
     9   114   112   am
    10     8     6    1
    11   111   112    1
    12   111   110    1
    13   129   132    1
    14   129   128    1
    15   132   133    1
    16   115   116    1
    17   112   113    2
    18   110   104   am
    19    99   100    1
    20    99    98    1
    21   105   104    2
    22   133   134   ar
    23   133   135   ar
    24     4     3    2
    25   125   124    2
    26     2     1    1
    27     2     3    1
    28     2     5    1
    29     6     5    1
    30     6     7    1
    31   116   117    2
    32   116   122   am
    33   104   103    1
    34     3     9   am
    35    98    95    1
    36   122   123    1
    37    97    96    2
    38   124   123    1
    39   103   102    1
    40   103   106    1
    41    96   102   am
    42    96    95    1
    43     9    10    1
    44    20    19   ar
    45   123   126    1
    46    95    94    1
    47   127   126    1
    48    10    11    1
    49   106   107    1
    50   155   156    2
    51   155   154    1
    52    19    18    1
    53    19    21   ar
    54    94    87   am
    55    40    39    2
    56    18    17    1
    57   154   157    1
    58   154   153    1
    59    11    13   am
    60    11    12    2
    61   109   107    1
    62    44    45    1
    63   107   108    1
    64   157   158    1
    65    13    14    1
    66    39    38    1
    67   158   160    1
    68   158   159    1
    69    45    48    1
    70    45    46    1
    71    87    88    2
    72    87    86    1
    73    17    14    1
    74    42    41    1
    75    14    15    1
    76    86    89    1
    77    86    85    1
    78    93    91   ar
    79    41    38    1
    80    41    43    1
    81    89    90    1
    82    38    37    1
    83    46    47    2
    84    16    15    2
    85    90    91    1
    86    77    76    2
    87   141   142    1
    88   141   140    1
    89    91    92   ar
    90   137   136    1
    91   137   140    1
    92   137   138    1
    93    15    22   am
    94   139   138    2
    95    85    76   am
    96   142   144   ar
    97   142   143   ar
    98   138   145   am
    99    76    75    1
   100    22    23    1
   101   145   146    1
   102    75    78    1
   103    75    74    1
   104    78    79    1
   105   147   146    1
   106   147   148    2
   107    23    24    1
   108    73    71    1
   109   166   165    1
   110    49    50    1
   111   146   149    1
   112    50    51    1
   113    50    53    1
   114    36    34   ar
   115    36    35   ar
   116   167   165    1
   117    25    24    2
   118    79    81   ar
   119    79    80   ar
   120    71    68    1
   121    71    72    1
   122    81    83   ar
   123   165   162    1
   124    34    32   ar
   125    68    67    1
   126    68    69    1
   127    35    33   ar
   128    51    52    2
   129    53    54    1
   130   149   150    1
   131   151   150    2
   132   161   162    1
   133    80    82   ar
   134    69    70    2
   135    54    55    1
   136    83    84   ar
   137   150   152   am
   138   162   163    1
   139    32    31   ar
   140    33    31   ar
   141    55    56    1
   142    82    84   ar
   143    31    30    1
   144   163   164    2
   145   163   168   am
   146    28    29    2
   147    28    27    1
   148    26    27    1
   149    56    57    1
   150   168   169    1
   151   172   169    1
   152   172   173    1
   153    27    30    1
   154   175   173   ar
   155   169   170    1
   156   173   174   ar
   157    66    64   ar
   158   170   171    2
   159    65    64   ar
   160    64    63    1
   161    63    62    1
   162    62    59    1
   163    61    60    2
   164    60    59    1
   165    59    58    1
