@<TRIPOS>MOLECULE
tmp/6i5lB00.pdb
 175 165 0 0 0
SMALL
GASTEIGER

@<TRIPOS>ATOM
      1  N         -3.8150   49.0360   13.9190 N.3    22  LEU22      -0.1231
      2  CA        -2.3720   49.0440   13.6490 C.3    22  LEU22       0.1693
      3  C         -1.7980   47.6320   13.5280 C.2    22  LEU22       0.2593
      4  O         -0.9210   47.3810   12.7010 O.2    22  LEU22      -0.2718
      5  CB        -1.6220   49.8280   14.7250 C.3    22  LEU22       0.0284
      6  CG        -1.9410   51.3230   14.8060 C.3    22  LEU22       0.0019
      7  CD1       -1.2870   51.9250   16.0350 C.3    22  LEU22       0.0001
      8  CD2       -1.4940   52.0620   13.5500 C.3    22  LEU22       0.0001
      9  N         -2.2910   46.7140   14.3450 N.am   23  GLY23      -0.1942
     10  CA        -1.9340   45.3220   14.1950 C.3    23  GLY23       0.2014
     11  C         -2.6300   44.4250   15.1970 C.2    23  GLY23       0.2639
     12  O         -3.1900   44.9020   16.1650 O.2    23  GLY23      -0.2714
     13  N         -2.5130   43.1180   14.9650 N.am   24  GLU24      -0.1963
     14  CA        -3.1260   42.0950   15.7860 C.3    24  GLU24       0.1733
     15  C         -2.0900   41.1450   16.3200 C.2    24  GLU24       0.2616
     16  O         -0.9370   41.1540   15.9040 O.2    24  GLU24      -0.2715
     17  CB        -4.1550   41.3330   14.9720 C.3    24  GLU24       0.0429
     18  CG        -5.2680   42.2440   14.5070 C.3    24  GLU24       0.1163
     19  CD        -6.2370   41.5570   13.5860 C.2    24  GLU24       0.3649
     20  OE1       -6.5550   40.3820   13.8730 O.co2  24  GLU24      -0.2457
     21  OE2       -6.7060   42.2030   12.6060 O.co2  24  GLU24      -0.2457
     22  N         -2.4940   40.3680   17.3060 N.am   25  GLY25      -0.1955
     23  CA        -1.6130   39.3810   17.9400 C.3    25  GLY25       0.1869
     24  C         -2.4430   38.3560   18.6730 C.2    25  GLY25       0.2309
     25  O         -3.6750   38.4230   18.6600 O.2    25  GLY25      -0.2863
     26  N         -2.6800   38.1910   21.9230 N.3    27  PHE27      -0.1241
     27  CA        -3.2710   38.9840   23.0010 C.3    27  PHE27       0.1605
     28  C         -4.5190   39.7930   22.6180 C.2    27  PHE27       0.2264
     29  O         -5.2830   40.1860   23.4870 O.2    27  PHE27      -0.2867
     30  CB        -2.2200   39.9680   23.5490 C.3    27  PHE27       0.0534
     31  CG        -1.7560   40.9740   22.5360 C.ar   27  PHE27      -0.0203
     32  CD1       -2.5050   42.1200   22.2830 C.ar   27  PHE27      -0.0042
     33  CD2       -0.5790   40.7560   21.7900 C.ar   27  PHE27      -0.0042
     34  CE1       -2.1060   43.0290   21.3230 C.ar   27  PHE27      -0.0003
     35  CE2       -0.1700   41.6580   20.8290 C.ar   27  PHE27      -0.0003
     36  CZ        -0.9370   42.8010   20.5960 C.ar   27  PHE27      -0.0000
     37  N         -4.1260   46.2400   18.5530 N.3    30  VAL30      -0.1245
     38  CA        -3.7350   47.6070   18.8880 C.3    30  VAL30       0.1561
     39  C         -4.3620   48.4980   17.8280 C.2    30  VAL30       0.2260
     40  O         -4.2010   48.2510   16.6290 O.2    30  VAL30      -0.2867
     41  CB        -2.1920   47.8020   18.9710 C.3    30  VAL30       0.0252
     42  CG1       -1.8450   49.2510   19.3160 C.3    30  VAL30       0.0019
     43  CG2       -1.5650   46.8690   20.0100 C.3    30  VAL30       0.0019
     44  N         -2.2580   55.1900   20.9320 N.3    44  ALA44      -0.1245
     45  CA        -2.4080   53.7890   20.6070 C.3    44  ALA44       0.1562
     46  C         -3.1260   53.1200   21.7820 C.2    44  ALA44       0.2260
     47  O         -2.7750   53.3540   22.9530 O.2    44  ALA44      -0.2867
     48  CB        -1.0470   53.1530   20.3760 C.3    44  ALA44       0.0290
     49  N         -4.2270   49.3850   23.2350 N.3    46  LYS46      -0.1245
     50  CA        -4.2140   47.9240   23.2040 C.3    46  LYS46       0.1561
     51  C         -5.5220   47.3770   23.7950 C.2    46  LYS46       0.2260
     52  O         -5.8170   47.5990   24.9620 O.2    46  LYS46      -0.2867
     53  CB        -3.0280   47.3750   23.9960 C.3    46  LYS46       0.0271
     54  CG        -2.9100   45.8650   23.9060 C.3    46  LYS46       0.0035
     55  CD        -1.4780   45.3780   24.1420 C.3    46  LYS46       0.0206
     56  CE        -1.1700   45.1400   25.6120 C.3    46  LYS46       0.1093
     57  NZ         0.2930   44.9280   25.8560 N.3    46  LYS46      -0.1314
     58  N          1.0200   43.6700   33.6430 N.3    61  GLU61      -0.1245
     59  CA         1.6750   44.7290   32.8730 C.3    61  GLU61       0.1567
     60  C          1.3690   46.1050   33.4370 C.2    61  GLU61       0.2260
     61  O          2.2630   46.9320   33.5540 O.2    61  GLU61      -0.2867
     62  CB         1.2690   44.6600   31.4020 C.3    61  GLU61       0.0388
     63  CG         1.7330   45.8320   30.5530 C.3    61  GLU61       0.1160
     64  CD         1.5990   45.5970   29.0460 C.2    61  GLU61       0.3649
     65  OE1        0.4640   45.3650   28.5550 O.co2  61  GLU61      -0.2457
     66  OE2        2.6230   45.6850   28.3250 O.co2  61  GLU61      -0.2457
     67  N          8.1660   51.9990   26.8370 N.3    80  VAL80      -0.1245
     68  CA         6.9260   52.6570   26.3950 C.3    80  VAL80       0.1561
     69  C          6.1360   53.3320   27.5450 C.2    80  VAL80       0.2260
     70  O          6.0500   52.8120   28.6460 O.2    80  VAL80      -0.2867
     71  CB         5.9830   51.6840   25.5770 C.3    80  VAL80       0.0252
     72  CG1        5.3820   50.5780   26.4390 C.3    80  VAL80       0.0019
     73  CG2        4.9030   52.4610   24.8570 C.3    80  VAL80       0.0019
     74  N         -1.3870   53.9530   25.1800 N.3    96  PHE96      -0.1227
     75  CA         0.0300   54.2020   25.0860 C.3    96  PHE96       0.1736
     76  C          0.2860   55.4290   24.2190 C.2    96  PHE96       0.2595
     77  O         -0.5640   55.8680   23.4460 O.2    96  PHE96      -0.2718
     78  CB         0.7540   52.9950   24.4580 C.3    96  PHE96       0.0547
     79  CG         0.7310   51.7440   25.3020 C.ar   96  PHE96      -0.0202
     80  CD1        1.6350   51.5550   26.3490 C.ar   96  PHE96      -0.0042
     81  CD2       -0.1880   50.7470   25.0440 C.ar   96  PHE96      -0.0042
     82  CE1        1.6100   50.3990   27.1300 C.ar   96  PHE96      -0.0003
     83  CE2       -0.2110   49.5880   25.8170 C.ar   96  PHE96      -0.0003
     84  CZ         0.6910   49.4130   26.8590 C.ar   96  PHE96      -0.0000
     85  N          1.4820   55.9700   24.3440 N.am   97  GLU97      -0.1965
     86  CA         1.9760   56.8830   23.3400 C.3    97  GLU97       0.1733
     87  C          1.9660   56.1410   21.9830 C.2    97  GLU97       0.2616
     88  O          2.1750   54.9290   21.9320 O.2    97  GLU97      -0.2715
     89  CB         3.3760   57.3490   23.6920 C.3    97  GLU97       0.0429
     90  CG         4.4230   56.2190   23.7420 C.3    97  GLU97       0.1163
     91  CD         5.8220   56.7230   24.0070 C.2    97  GLU97       0.3649
     92  OE1        6.5550   55.9890   24.7190 O.co2  97  GLU97      -0.2457
     93  OE2        6.1780   57.8290   23.4990 O.co2  97  GLU97      -0.2457
     94  N          1.6960   56.8660   20.9080 N.am   98  LEU98      -0.1963
     95  CA         1.6990   56.2820   19.5770 C.3    98  LEU98       0.1728
     96  C          3.1230   56.0960   19.0410 C.2    98  LEU98       0.2616
     97  O          3.8460   57.0660   18.9330 O.2    98  LEU98      -0.2715
     98  CB         0.8850   57.1490   18.6170 C.3    98  LEU98       0.0311
     99  CG         0.7980   56.6210   17.1760 C.3    98  LEU98       0.0022
    100  CD1        0.0530   55.2860   17.1260 C.3    98  LEU98       0.0001
    101  CD2        0.1000   57.6400   16.2870 C.3    98  LEU98       0.0001
    102  N          3.4800   54.8560   18.6710 N.am   99  LEU99      -0.1963
    103  CA         4.7620   54.5240   18.0410 C.3    99  LEU99       0.1728
    104  C          4.5390   53.9960   16.6220 C.2    99  LEU99       0.2617
    105  O          3.3820   53.8710   16.1820 O.2    99  LEU99      -0.2715
    106  CB         5.5030   53.4490   18.8590 C.3    99  LEU99       0.0311
    107  CG         5.5800   53.6300   20.3830 C.3    99  LEU99       0.0022
    108  CD1        6.0350   52.3490   21.0540 C.3    99  LEU99       0.0001
    109  CD2        6.4960   54.7750   20.7640 C.3    99  LEU99       0.0001
    110  N          5.6450   53.6800   15.9350 N.am  100  GLY100     -0.1940
    111  CA         5.6460   53.0760   14.6130 C.3   100  GLY100      0.2014
    112  C          5.6560   51.5600   14.6920 C.2   100  GLY100      0.2639
    113  O          5.4190   50.9960   15.7480 O.2   100  GLY100     -0.2714
    114  N          5.8410   50.9060   13.5410 N.am  101  LEU101     -0.1963
    115  CA         5.8620   49.4460   13.4220 C.3   101  LEU101      0.1728
    116  C          6.8860   48.7870   14.3410 C.2   101  LEU101      0.2616
    117  O          7.9040   49.3810   14.6740 O.2   101  LEU101     -0.2715
    118  CB         6.2640   49.0480   11.9960 C.3   101  LEU101      0.0311
    119  CG         5.3170   49.2810   10.8100 C.3   101  LEU101      0.0022
    120  CD1        6.0710   48.9590    9.5340 C.3   101  LEU101      0.0001
    121  CD2        4.0760   48.4140   10.8900 C.3   101  LEU101      0.0001
    122  N          6.6500   47.5240   14.6760 N.am  102  SER102     -0.1950
    123  CA         7.6550   46.6940   15.3050 C.3   102  SER102      0.1924
    124  C          8.8190   46.4020   14.3230 C.2   102  SER102      0.2314
    125  O          8.6420   46.4240   13.0940 O.2   102  SER102     -0.2863
    126  CB         7.0590   45.3700   15.7960 C.3   102  SER102      0.2116
    127  OG         6.9480   44.4230   14.7440 O.3   102  SER102     -0.2180
    128  N          7.9040   43.5110   12.0820 N.3   105  ASP105     -0.1239
    129  CA         6.9920   43.8710   11.0050 C.3   105  ASP105      0.1674
    130  C          7.7320   44.6090    9.8900 C.2   105  ASP105      0.2266
    131  O          7.4160   44.4210    8.7130 O.2   105  ASP105     -0.2867
    132  CB         5.8130   44.7050   11.5400 C.3   105  ASP105      0.1410
    133  CG         4.8480   43.8780   12.4220 C.2   105  ASP105      0.3668
    134  OD1        4.5650   42.7040   12.0560 O.co2 105  ASP105     -0.2456
    135  OD2        4.3780   44.3880   13.4860 O.co2 105  ASP105     -0.2456
    136  N          9.2140   41.4210   17.6790 N.3   147  GLU147     -0.1231
    137  CA         7.8350   41.9460   17.7750 C.3   147  GLU147      0.1699
    138  C          7.6560   42.9080   18.9250 C.2   147  GLU147      0.2592
    139  O          6.7820   43.7710   18.8610 O.2   147  GLU147     -0.2718
    140  CB         6.7800   40.8280   17.9510 C.3   147  GLU147      0.0402
    141  CG         6.6680   39.8460   16.7820 C.3   147  GLU147      0.1161
    142  CD         7.4890   38.5500   16.9730 C.2   147  GLU147      0.3649
    143  OE1        8.7660   38.5930   17.2480 O.co2 147  GLU147     -0.2457
    144  OE2        6.8320   37.4770   16.8110 O.co2 147  GLU147     -0.2457
    145  N          8.4520   42.7480   19.9860 N.am  148  ASN148     -0.1974
    146  CA         8.3630   43.6180   21.1470 C.3   148  ASN148      0.1688
    147  C          9.3630   44.7670   21.1930 C.2   148  ASN148      0.2292
    148  O          9.4220   45.4620   22.1960 O.2   148  ASN148     -0.2864
    149  CB         8.4420   42.7750   22.4190 C.3   148  ASN148      0.1181
    150  CG         7.1510   42.0220   22.7020 C.2   148  ASN148      0.2629
    151  OD1        6.0980   42.4230   22.2710 O.2   148  ASN148     -0.2716
    152  ND2        7.2540   40.9340   23.4340 N.am  148  ASN148     -0.0877
    153  N          9.9130   48.3080   19.1620 N.3   150  LEU150     -0.1245
    154  CA         9.1620   49.1370   18.2060 C.3   150  LEU150      0.1561
    155  C          9.9140   50.4000   17.8510 C.2   150  LEU150      0.2260
    156  O         10.4750   51.0510   18.7430 O.2   150  LEU150     -0.2867
    157  CB         7.8060   49.5340   18.8030 C.3   150  LEU150      0.0270
    158  CG         6.6420   48.5690   18.5620 C.3   150  LEU150      0.0019
    159  CD1        6.8290   47.2210   19.2490 C.3   150  LEU150      0.0001
    160  CD2        5.3400   49.2310   19.0090 C.3   150  LEU150      0.0001
    161  N          8.4100   47.1890   24.4670 N.3   179  VAL179     -0.1231
    162  CA         7.0200   46.9750   24.9540 C.3   179  VAL179      0.1692
    163  C          6.8290   45.5790   25.5700 C.2   179  VAL179      0.2592
    164  O          7.7350   44.7460   25.5880 O.2   179  VAL179     -0.2718
    165  CB         5.9420   47.2030   23.8310 C.3   179  VAL179      0.0266
    166  CG1        6.0550   48.5930   23.2300 C.3   179  VAL179      0.0020
    167  CG2        6.0080   46.1390   22.7240 C.3   179  VAL179      0.0020
    168  N          5.6010   45.3590   26.0380 N.am  180  ASP180     -0.1974
    169  CA         5.0860   44.0840   26.5670 C.3   180  ASP180      0.1709
    170  C          5.7450   43.6650   27.8810 C.2   180  ASP180      0.2293
    171  O          6.7720   42.9630   27.8980 O.2   180  ASP180     -0.2864
    172  CB         5.1450   42.9370   25.5520 C.3   180  ASP180      0.1436
    173  CG         4.0850   41.8550   25.8420 C.2   180  ASP180      0.3671
    174  OD1        3.7340   41.6930   27.0250 O.co2 180  ASP180     -0.2456
    175  OD2        3.5810   41.1970   24.8920 O.co2 180  ASP180     -0.2456
@<TRIPOS>BOND
     1   131   130    2
     2   120   119    1
     3   130   129    1
     4   119   121    1
     5   119   118    1
     6   129   132    1
     7   129   128    1
     8   132   133    1
     9   118   115    1
    10   134   133   ar
    11   133   135   ar
    12    21    19   ar
    13     4     3    2
    14   125   124    2
    15   115   114    1
    16   115   116    1
    17     3     2    1
    18     3     9   am
    19   114   112   am
    20     8     6    1
    21    19    20   ar
    22    19    18    1
    23     2     1    1
    24     2     5    1
    25    10     9    1
    26    10    11    1
    27   124   123    1
    28   116   117    2
    29   116   122   am
    30    18    17    1
    31   111   112    1
    32   111   110    1
    33   122   123    1
    34   112   113    2
    35     5     6    1
    36   127   126    1
    37     6     7    1
    38    13    11   am
    39    13    14    1
    40    17    14    1
    41    11    12    2
    42   123   126    1
    43    14    15    1
    44    16    15    2
    45   110   104   am
    46   105   104    2
    47   101    99    1
    48    15    22   am
    49   104   103    1
    50    40    39    2
    51   141   142    1
    52   141   140    1
    53   144   142   ar
    54   142   143   ar
    55   100    99    1
    56    99    98    1
    57    22    23    1
    58   136   137    1
    59   137   140    1
    60   137   138    1
    61    39    38    1
    62   155   154    1
    63   155   156    2
    64    23    24    1
    65   103   102    1
    66   103   106    1
    67   154   157    1
    68   154   153    1
    69    37    38    1
    70   158   157    1
    71   158   160    1
    72   158   159    1
    73    98    95    1
    74    25    24    2
    75   102    96   am
    76   106   107    1
    77   139   138    2
    78    38    41    1
    79   138   145   am
    80    97    96    2
    81    41    42    1
    82    41    43    1
    83    96    95    1
    84    95    94    1
    85   145   146    1
    86    48    45    1
    87   107   109    1
    88   107   108    1
    89    36    35   ar
    90    36    34   ar
    91    45    44    1
    92    45    46    1
    93    35    33   ar
    94    94    87   am
    95   146   147    1
    96   146   149    1
    97   147   148    2
    98    34    32   ar
    99    46    47    2
   100    33    31   ar
   101    26    27    1
   102    88    87    2
   103    87    86    1
   104   151   150    2
   105    32    31   ar
   106   149   150    1
   107    31    30    1
   108    28    27    1
   109    28    29    2
   110   150   152   am
   111   167   165    1
   112    27    30    1
   113    50    49    1
   114    50    51    1
   115    50    53    1
   116   166   165    1
   117    86    89    1
   118    86    85    1
   119    77    76    2
   120    93    91   ar
   121    89    90    1
   122    90    91    1
   123    51    52    2
   124   165   162    1
   125    54    53    1
   126    54    55    1
   127    91    92   ar
   128    55    56    1
   129    76    85   am
   130    76    75    1
   131    78    75    1
   132    78    79    1
   133   161   162    1
   134    73    71    1
   135   175   173   ar
   136   162   163    1
   137    81    79   ar
   138    81    83   ar
   139    75    74    1
   140    79    80   ar
   141   172   173    1
   142   172   169    1
   143   163   164    2
   144   163   168   am
   145    71    68    1
   146    71    72    1
   147    56    57    1
   148    83    84   ar
   149   173   174   ar
   150   168   169    1
   151    80    82   ar
   152    68    67    1
   153    68    69    1
   154   169   170    1
   155    84    82   ar
   156    69    70    2
   157   170   171    2
   158    66    64   ar
   159    65    64   ar
   160    64    63    1
   161    63    62    1
   162    62    59    1
   163    59    60    1
   164    59    58    1
   165    60    61    2
