@<TRIPOS>MOLECULE
tmp/6i60A03.pdb
 89 85 0 0 0
SMALL
GASTEIGER

@<TRIPOS>ATOM
      1  N        -59.5810  -46.4740   30.1620 N.3    84  GLU84      -0.1231
      2  CA       -60.1990  -47.7780   30.3300 C.3    84  GLU84       0.1684
      3  C        -59.6210  -48.7640   29.3260 C.2    84  GLU84       0.2434
      4  O        -59.1550  -48.3620   28.2540 O.2    84  GLU84      -0.2733
      5  CB       -61.7230  -47.6830   30.1610 C.3    84  GLU84       0.0402
      6  CG       -62.4450  -47.2410   31.4270 C.3    84  GLU84       0.1161
      7  CD       -63.7990  -46.6200   31.1460 C.2    84  GLU84       0.3649
      8  OE1      -64.7900  -47.0420   31.7800 O.co2  84  GLU84      -0.2457
      9  OE2      -63.8710  -45.7120   30.2920 O.co2  84  GLU84      -0.2457
     10  N        -59.6340  -50.0570   29.6460 N.am   85  PRO85      -0.2718
     11  CA       -58.9650  -51.0350   28.7790 C.3    85  PRO85       0.1535
     12  C        -59.6640  -51.2010   27.4380 C.2    85  PRO85       0.2599
     13  O        -60.8830  -51.0580   27.3190 O.2    85  PRO85      -0.2715
     14  CB       -59.0230  -52.3350   29.5920 C.3    85  PRO85       0.0310
     15  CG       -59.3550  -51.9200   30.9890 C.3    85  PRO85       0.0237
     16  CD       -60.1700  -50.6800   30.8670 C.3    85  PRO85       0.0939
     17  N        -58.8570  -51.5020   26.4180 N.am   86  CYS86      -0.1954
     18  CA       -59.3150  -51.8590   25.0750 C.3    86  CYS86       0.1843
     19  C        -60.0490  -50.7230   24.3690 C.2    86  CYS86       0.2625
     20  O        -60.7130  -50.9520   23.3550 O.2    86  CYS86      -0.2714
     21  CB       -60.1980  -53.1120   25.1070 C.3    86  CYS86       0.0997
     22  SG       -59.4490  -54.5110   25.9640 S.3    86  CYS86      -0.0797
     23  N        -59.9400  -49.4970   24.8680 N.am   87  LYS87      -0.1977
     24  CA       -60.5940  -48.3520   24.2530 C.3    87  LYS87       0.1596
     25  C        -59.6020  -47.5810   23.3920 C.2    87  LYS87       0.2287
     26  O        -58.4260  -47.4520   23.7440 O.2    87  LYS87      -0.2864
     27  CB       -61.2010  -47.4300   25.3130 C.3    87  LYS87       0.0298
     28  CG       -62.4860  -47.9620   25.9340 C.3    87  LYS87       0.0038
     29  CD       -63.5940  -46.9190   25.9050 C.3    87  LYS87       0.0206
     30  CE       -64.5780  -47.1210   27.0500 C.3    87  LYS87       0.1093
     31  NZ       -64.7670  -48.5610   27.3800 N.3    87  LYS87      -0.1314
     32  N        -63.6040  -54.8970   14.8000 N.3   167  ARG167     -0.1245
     33  CA       -62.1730  -54.8600   15.0630 C.3   167  ARG167      0.1563
     34  C        -61.7940  -56.1280   15.8140 C.2   167  ARG167      0.2260
     35  O        -62.6410  -56.7850   16.4240 O.2   167  ARG167     -0.2867
     36  CB       -61.7750  -53.6170   15.8660 C.3   167  ARG167      0.0307
     37  CG       -62.1140  -53.7080   17.3420 C.3   167  ARG167      0.0489
     38  CD       -61.3330  -52.6940   18.1550 C.3   167  ARG167      0.2205
     39  NE       -61.9900  -52.4010   19.4250 N.pl3 167  ARG167     -0.0865
     40  CZ       -61.3500  -52.0600   20.5380 C.cat 167  ARG167      0.5346
     41  NH1      -60.0270  -51.9670   20.5420 N.pl3 167  ARG167      0.1354
     42  NH2      -62.0320  -51.8120   21.6470 N.pl3 167  ARG167      0.1354
     43  N        -59.5250  -60.5400   21.7670 N.3   246  LEU246     -0.1245
     44  CA       -60.7050  -59.6840   21.7470 C.3   246  LEU246      0.1561
     45  C        -61.2400  -59.5520   20.3260 C.2   246  LEU246      0.2260
     46  O        -60.4860  -59.2840   19.3860 O.2   246  LEU246     -0.2867
     47  CB       -60.3720  -58.3050   22.3190 C.3   246  LEU246      0.0270
     48  CG       -61.5080  -57.2980   22.5580 C.3   246  LEU246      0.0019
     49  CD1      -61.7380  -56.4020   21.3430 C.3   246  LEU246      0.0001
     50  CD2      -62.8010  -57.9920   22.9660 C.3   246  LEU246      0.0001
     51  N        -64.6060  -57.6230   18.3870 N.3   248  GLU248     -0.1245
     52  CA       -65.7320  -56.7060   18.5060 C.3   248  GLU248      0.1567
     53  C        -66.5000  -56.6850   17.1940 C.2   248  GLU248      0.2260
     54  O        -65.9000  -56.5750   16.1200 O.2   248  GLU248     -0.2867
     55  CB       -65.2620  -55.2940   18.8710 C.3   248  GLU248      0.0388
     56  CG       -66.2730  -54.2030   18.5510 C.3   248  GLU248      0.1160
     57  CD       -66.1950  -53.0310   19.5090 C.2   248  GLU248      0.3649
     58  OE1      -65.1000  -52.4480   19.6490 O.co2 248  GLU248     -0.2457
     59  OE2      -67.2290  -52.6920   20.1220 O.co2 248  GLU248     -0.2457
     60  N        -71.7120  -53.3570   18.3120 N.3   252  ASP252     -0.1239
     61  CA       -71.2120  -52.9720   19.6350 C.3   252  ASP252      0.1674
     62  C        -71.3650  -54.1060   20.6490 C.2   252  ASP252      0.2266
     63  O        -71.6280  -53.8780   21.8330 O.2   252  ASP252     -0.2867
     64  CB       -71.8940  -51.6990   20.1360 C.3   252  ASP252      0.1410
     65  CG       -71.2950  -50.4230   19.6580 C.2   252  ASP252      0.3668
     66  OD1      -70.2750  -50.4210   19.0020 O.co2 252  ASP252     -0.2456
     67  OD2      -71.9110  -49.3490   20.0460 O.co2 252  ASP252     -0.2456
     68  N        -69.3310  -57.8390   22.0200 N.3   254  ILE254     -0.1245
     69  CA       -67.9670  -58.3450   22.1460 C.3   254  ILE254      0.1561
     70  C        -67.9970  -59.8210   22.5520 C.2   254  ILE254      0.2260
     71  O        -68.8560  -60.2540   23.3140 O.2   254  ILE254     -0.2867
     72  CB       -67.1250  -57.5080   23.1480 C.3   254  ILE254      0.0252
     73  CG1      -67.2460  -57.9940   24.5930 C.3   254  ILE254      0.0019
     74  CG2      -67.4590  -56.0030   23.0660 C.3   254  ILE254      0.0019
     75  CD1      -66.2670  -57.2960   25.5400 C.3   254  ILE254      0.0001
     76  N        -64.6550  -63.0230   23.0330 N.3   256  TRP256     -0.1241
     77  CA       -63.2460  -63.3000   22.8640 C.3   256  TRP256      0.1605
     78  C        -62.8800  -64.7190   23.2230 C.2   256  TRP256      0.2264
     79  O        -63.5790  -65.3980   23.9410 O.2   256  TRP256     -0.2867
     80  CB       -62.3490  -62.3040   23.5530 C.3   256  TRP256      0.0550
     81  CG       -62.8220  -61.9000   24.8270 C.ar  256  TRP256      0.0003
     82  CD1      -63.7140  -62.5360   25.5950 C.ar  256  TRP256      0.0946
     83  CD2      -62.4240  -60.7410   25.5270 C.ar  256  TRP256      0.0152
     84  NE1      -63.9080  -61.8460   26.7500 N.ar  256  TRP256     -0.2442
     85  CE2      -63.1220  -60.7290   26.7270 C.ar  256  TRP256      0.0810
     86  CE3      -61.5360  -59.7130   25.2530 C.ar  256  TRP256      0.0012
     87  CZ2      -62.9720  -59.7320   27.6490 C.ar  256  TRP256      0.0191
     88  CZ3      -61.3880  -58.7320   26.1620 C.ar  256  TRP256      0.0001
     89  CH2      -62.0990  -58.7380   27.3480 C.ar  256  TRP256      0.0015
@<TRIPOS>BOND
     1    32    33    1
     2    33    34    1
     3    33    36    1
     4    34    35    2
     5    36    37    1
     6    54    53    2
     7    53    52    1
     8    37    38    1
     9    38    39    1
    10    60    61    1
    11    51    52    1
    12    52    55    1
    13    56    55    1
    14    56    57    1
    15    66    65   ar
    16    46    45    2
    17    39    40    2
    18    57    58   ar
    19    57    59   ar
    20    61    64    1
    21    61    62    1
    22    65    67   ar
    23    65    64    1
    24    45    44    1
    25    40    41    1
    26    40    42    1
    27    62    63    2
    28    49    48    1
    29    44    43    1
    30    44    47    1
    31    68    69    1
    32    69    70    1
    33    69    72    1
    34    47    48    1
    35    70    71    2
    36    48    50    1
    37    77    76    1
    38    77    78    1
    39    77    80    1
    40    74    72    1
    41    72    73    1
    42    78    79    2
    43    20    19    2
    44    25    26    2
    45    25    24    1
    46    80    81    1
    47    24    23    1
    48    24    27    1
    49    19    23   am
    50    19    18    1
    51    73    75    1
    52    81    83   ar
    53    81    82   ar
    54    18    21    1
    55    18    17    1
    56    21    22    1
    57    86    83   ar
    58    86    88   ar
    59    27    28    1
    60    83    85   ar
    61    82    84   ar
    62    29    28    1
    63    29    30    1
    64    88    89   ar
    65    17    12   am
    66    85    84   ar
    67    85    87   ar
    68    30    31    1
    69    13    12    2
    70    89    87   ar
    71    12    11    1
    72     4     3    2
    73    11    14    1
    74    11    10    1
    75     3    10   am
    76     3     2    1
    77    14    15    1
    78    10    16    1
    79     5     2    1
    80     5     6    1
    81     1     2    1
    82     9     7   ar
    83    16    15    1
    84     7     6    1
    85     7     8   ar
