@<TRIPOS>MOLECULE
tmp/6i60A08.pdb
 89 89 0 0 0
SMALL
GASTEIGER

@<TRIPOS>ATOM
      1  N        -10.6950  -31.1810   26.0190 N.3   712  THR712     -0.1203
      2  CA       -11.4000  -30.1690   25.2410 C.3   712  THR712      0.1994
      3  C        -11.8470  -29.0070   26.1190 C.2   712  THR712      0.2619
      4  O        -11.7810  -27.8440   25.7010 O.2   712  THR712     -0.2717
      5  CB       -12.5980  -30.7970   24.5290 C.3   712  THR712      0.1784
      6  OG1      -12.1650  -31.9430   23.7850 O.3   712  THR712     -0.2211
      7  CG2      -13.2400  -29.7940   23.5810 C.3   712  THR712      0.0376
      8  N        -12.2960  -29.2990   27.3430 N.am  713  SER713     -0.1937
      9  CA       -12.7820  -28.2440   28.2250 C.3   713  SER713      0.2055
     10  C        -11.6620  -27.3070   28.6570 C.2   713  SER713      0.2643
     11  O        -11.9020  -26.1110   28.8610 O.2   713  SER713     -0.2714
     12  CB       -13.4600  -28.8520   29.4520 C.3   713  SER713      0.2130
     13  OG       -14.5820  -29.6320   29.0810 O.3   713  SER713     -0.2179
     14  N        -10.4420  -27.8220   28.7990 N.am  714  TYR714     -0.1959
     15  CA        -9.3110  -27.0270   29.2540 C.3   714  TYR714      0.1771
     16  C         -8.4850  -26.4730   28.0980 C.2   714  TYR714      0.2620
     17  O         -7.3170  -26.1170   28.2920 O.2   714  TYR714     -0.2715
     18  CB        -8.4380  -27.8530   30.1990 C.3   714  TYR714      0.0574
     19  CG        -9.0770  -28.0900   31.5520 C.ar  714  TYR714     -0.0198
     20  CD1       -9.7800  -29.2580   31.8150 C.ar  714  TYR714     -0.0009
     21  CD2       -8.9850  -27.1420   32.5620 C.ar  714  TYR714     -0.0009
     22  CE1      -10.3670  -29.4790   33.0470 C.ar  714  TYR714      0.0417
     23  CE2       -9.5700  -27.3540   33.7990 C.ar  714  TYR714      0.0417
     24  CZ       -10.2580  -28.5250   34.0360 C.ar  714  TYR714      0.1957
     25  OH       -10.8420  -28.7430   35.2640 O.3   714  TYR714     -0.2866
     26  N         -9.0670  -26.3900   26.9050 N.am  715  GLY715     -0.1940
     27  CA        -8.4010  -25.7480   25.7890 C.3   715  GLY715      0.2014
     28  C         -7.3190  -26.5610   25.1190 C.2   715  GLY715      0.2639
     29  O         -6.3950  -25.9840   24.5360 O.2   715  GLY715     -0.2714
     30  N         -7.4050  -27.8870   25.1730 N.am  716  TYR716     -0.1959
     31  CA        -6.4120  -28.7670   24.5620 C.3   716  TYR716      0.1771
     32  C         -7.0870  -29.7660   23.6300 C.2   716  TYR716      0.2619
     33  O         -6.8650  -30.9770   23.7030 O.2   716  TYR716     -0.2715
     34  CB        -5.5910  -29.4840   25.6290 C.3   716  TYR716      0.0574
     35  CG        -4.6160  -28.5820   26.3500 C.ar  716  TYR716     -0.0198
     36  CD1       -3.4260  -28.1910   25.7470 C.ar  716  TYR716     -0.0009
     37  CD2       -4.8870  -28.1160   27.6310 C.ar  716  TYR716     -0.0009
     38  CE1       -2.5320  -27.3650   26.4010 C.ar  716  TYR716      0.0417
     39  CE2       -4.0000  -27.2890   28.2930 C.ar  716  TYR716      0.0417
     40  CZ        -2.8240  -26.9160   27.6740 C.ar  716  TYR716      0.1957
     41  OH        -1.9350  -26.0940   28.3270 O.3   716  TYR716     -0.2866
     42  N         -7.9270  -29.2560   22.7250 N.am  717  ASP717     -0.1971
     43  CA        -8.6040  -30.1230   21.7680 C.3   717  ASP717      0.1709
     44  C         -7.6500  -30.6940   20.7260 C.2   717  ASP717      0.2293
     45  O         -7.9620  -31.7240   20.1190 O.2   717  ASP717     -0.2864
     46  CB        -9.7420  -29.3650   21.0800 C.3   717  ASP717      0.1436
     47  CG        -9.3360  -27.9680   20.6350 C.2   717  ASP717      0.3671
     48  OD1       -8.1370  -27.6280   20.7370 O.co2 717  ASP717     -0.2456
     49  OD2      -10.2190  -27.2080   20.1770 O.co2 717  ASP717     -0.2456
     50  N        -20.7200  -24.9740   18.9680 N.3   790  GLU790     -0.1245
     51  CA       -19.3110  -24.6680   19.2180 C.3   790  GLU790      0.1567
     52  C        -18.4360  -25.6520   18.4530 C.2   790  GLU790      0.2260
     53  O        -18.0330  -26.6930   18.9970 O.2   790  GLU790     -0.2867
     54  CB       -19.0010  -24.7080   20.7120 C.3   790  GLU790      0.0388
     55  CG       -17.5870  -24.2890   21.0630 C.3   790  GLU790      0.1160
     56  CD       -17.2410  -24.5830   22.5060 C.2   790  GLU790      0.3649
     57  OE1      -17.9020  -24.0170   23.4030 O.co2 790  GLU790     -0.2457
     58  OE2      -16.3130  -25.3830   22.7420 O.co2 790  GLU790     -0.2457
     59  N        -15.0730  -27.2670   16.6430 N.3   792  HIS792     -0.1241
     60  CA       -13.6590  -27.3660   16.9990 C.3   792  HIS792      0.1621
     61  C        -12.8820  -27.8390   15.7790 C.2   792  HIS792      0.2264
     62  O        -12.6290  -29.0410   15.6170 O.2   792  HIS792     -0.2867
     63  CB       -13.4510  -28.3070   18.1850 C.3   792  HIS792      0.0745
     64  CG       -13.9020  -27.7360   19.4940 C.ar  792  HIS792      0.0817
     65  ND1      -13.0340  -27.4870   20.5350 N.ar  792  HIS792     -0.2268
     66  CD2      -15.1280  -27.3600   19.9280 C.ar  792  HIS792      0.1154
     67  CE1      -13.7070  -26.9850   21.5550 C.ar  792  HIS792      0.1986
     68  NE2      -14.9790  -26.8960   21.2120 N.ar  792  HIS792     -0.2212
     69  N        -11.5510  -16.1160   23.0590 N.3   866  LYS866     -0.1231
     70  CA       -11.3210  -17.3740   22.3540 C.3   866  LYS866      0.1693
     71  C        -12.4120  -17.6090   21.3170 C.2   866  LYS866      0.2592
     72  O        -12.1630  -18.2150   20.2690 O.2   866  LYS866     -0.2718
     73  CB       -11.2510  -18.5520   23.3310 C.3   866  LYS866      0.0285
     74  CG        -9.8360  -19.0070   23.6650 C.3   866  LYS866      0.0035
     75  CD        -9.7950  -20.4930   24.0150 C.3   866  LYS866      0.0206
     76  CE        -8.3660  -21.0130   24.0230 C.3   866  LYS866      0.1093
     77  NZ        -8.2420  -22.3240   23.3310 N.3   866  LYS866     -0.1314
     78  N        -13.6220  -17.1290   21.5950 N.am  867  TYR867     -0.1976
     79  CA       -14.7590  -17.3130   20.7090 C.3   867  TYR867      0.1639
     80  C        -15.4580  -15.9800   20.4650 C.2   867  TYR867      0.2290
     81  O        -15.2090  -14.9810   21.1460 O.2   867  TYR867     -0.2864
     82  CB       -15.7600  -18.3240   21.2860 C.3   867  TYR867      0.0560
     83  CG       -15.2320  -19.7370   21.3930 C.ar  867  TYR867     -0.0198
     84  CD1      -15.1750  -20.5670   20.2800 C.ar  867  TYR867     -0.0009
     85  CD2      -14.8000  -20.2430   22.6110 C.ar  867  TYR867     -0.0009
     86  CE1      -14.6960  -21.8610   20.3780 C.ar  867  TYR867      0.0417
     87  CE2      -14.3210  -21.5340   22.7190 C.ar  867  TYR867      0.0417
     88  CZ       -14.2710  -22.3380   21.6020 C.ar  867  TYR867      0.1957
     89  OH       -13.7930  -23.6240   21.7170 O.3   867  TYR867     -0.2866
@<TRIPOS>BOND
     1    62    61    2
     2    61    60    1
     3    59    60    1
     4    60    63    1
     5    63    64    1
     6    52    53    2
     7    52    51    1
     8    50    51    1
     9    51    54    1
    10    64    66   ar
    11    64    65   ar
    12    66    68   ar
    13    45    44    2
    14    49    47   ar
    15    72    71    2
    16    84    86   ar
    17    84    83   ar
    18    86    88   ar
    19    80    79    1
    20    80    81    2
    21    65    67   ar
    22    47    48   ar
    23    47    46    1
    24    79    82    1
    25    79    78    1
    26    54    55    1
    27    44    43    1
    28    55    56    1
    29    46    43    1
    30    68    67   ar
    31    82    83    1
    32    71    78   am
    33    71    70    1
    34    83    85   ar
    35    88    89    1
    36    88    87   ar
    37    43    42    1
    38    70    69    1
    39    70    73    1
    40    56    58   ar
    41    56    57   ar
    42    85    87   ar
    43    42    32   am
    44    77    76    1
    45    73    74    1
    46     7     5    1
    47    32    33    2
    48    32    31    1
    49    74    75    1
    50     6     5    1
    51    75    76    1
    52     5     2    1
    53    29    28    2
    54    31    30    1
    55    31    34    1
    56    28    30   am
    57    28    27    1
    58     2     1    1
    59     2     3    1
    60    34    35    1
    61     4     3    2
    62    36    35   ar
    63    36    38   ar
    64    27    26    1
    65     3     8   am
    66    35    37   ar
    67    38    40   ar
    68    26    16   am
    69     8     9    1
    70    37    39   ar
    71    40    39   ar
    72    40    41    1
    73    16    17    2
    74    16    15    1
    75     9    10    1
    76     9    12    1
    77    10    14   am
    78    10    11    2
    79    14    15    1
    80    13    12    1
    81    15    18    1
    82    18    19    1
    83    19    20   ar
    84    19    21   ar
    85    20    22   ar
    86    21    23   ar
    87    22    24   ar
    88    23    24   ar
    89    24    25    1
