@<TRIPOS>MOLECULE
tmp/6i60B04.pdb
 150 147 0 0 0
SMALL
GASTEIGER

@<TRIPOS>ATOM
      1  N        -19.2130  -36.8520  -35.1860 N.3   143  PHE143     -0.1241
      2  CA       -19.2590  -36.4460  -36.5850 C.3   143  PHE143      0.1605
      3  C        -19.3890  -34.9360  -36.7420 C.2   143  PHE143      0.2264
      4  O        -19.9830  -34.4610  -37.7170 O.2   143  PHE143     -0.2867
      5  CB       -20.4040  -37.1560  -37.3070 C.3   143  PHE143      0.0534
      6  CG       -20.2560  -38.6500  -37.3540 C.ar  143  PHE143     -0.0203
      7  CD1      -19.3650  -39.2440  -38.2320 C.ar  143  PHE143     -0.0042
      8  CD2      -21.0100  -39.4610  -36.5220 C.ar  143  PHE143     -0.0042
      9  CE1      -19.2270  -40.6210  -38.2790 C.ar  143  PHE143     -0.0003
     10  CE2      -20.8780  -40.8370  -36.5650 C.ar  143  PHE143     -0.0003
     11  CZ       -19.9850  -41.4170  -37.4440 C.ar  143  PHE143     -0.0000
     12  N        -23.0890  -49.4860  -26.7640 N.3   472  ASP472     -0.1239
     13  CA       -21.6560  -49.7220  -26.6350 C.3   472  ASP472      0.1674
     14  C        -21.1010  -49.1950  -25.3180 C.2   472  ASP472      0.2266
     15  O        -20.2920  -49.8700  -24.6730 O.2   472  ASP472     -0.2867
     16  CB       -20.9100  -49.0800  -27.8100 C.3   472  ASP472      0.1410
     17  CG       -21.1290  -47.5760  -27.8970 C.2   472  ASP472      0.3668
     18  OD1      -22.2860  -47.1280  -27.7490 O.co2 472  ASP472     -0.2456
     19  OD2      -20.1420  -46.8400  -28.1130 O.co2 472  ASP472     -0.2456
     20  N        -20.5970  -41.6220  -22.4530 N.3   476  ARG476     -0.1245
     21  CA       -20.1020  -40.5760  -23.3340 C.3   476  ARG476      0.1563
     22  C        -21.1440  -40.2270  -24.3950 C.2   476  ARG476      0.2260
     23  O        -22.2690  -40.7320  -24.3980 O.2   476  ARG476     -0.2867
     24  CB       -18.7710  -40.9900  -23.9690 C.3   476  ARG476      0.0307
     25  CG       -18.8750  -42.0230  -25.0780 C.3   476  ARG476      0.0489
     26  CD       -17.5030  -42.3040  -25.6810 C.3   476  ARG476      0.2205
     27  NE       -17.5200  -43.4290  -26.6110 N.pl3 476  ARG476     -0.0865
     28  CZ       -16.4810  -44.2260  -26.8370 C.cat 476  ARG476      0.5346
     29  NH1      -15.3380  -44.0240  -26.1970 N.pl3 476  ARG476      0.1354
     30  NH2      -16.5850  -45.2280  -27.7010 N.pl3 476  ARG476      0.1354
     31  N        -22.1150  -41.0720  -27.0730 N.3   478  GLU478     -0.1245
     32  CA       -22.3960  -42.1090  -28.0560 C.3   478  GLU478      0.1567
     33  C        -23.6560  -42.8760  -27.6760 C.2   478  GLU478      0.2260
     34  O        -24.7660  -42.4620  -28.0260 O.2   478  GLU478     -0.2867
     35  CB       -21.2040  -43.0610  -28.1880 C.3   478  GLU478      0.0388
     36  CG       -21.1960  -43.8650  -29.4810 C.3   478  GLU478      0.1160
     37  CD       -19.7990  -44.2610  -29.9160 C.2   478  GLU478      0.3649
     38  OE1      -19.6330  -44.6820  -31.0810 O.co2 478  GLU478     -0.2457
     39  OE2      -18.8660  -44.1520  -29.0920 O.co2 478  GLU478     -0.2457
     40  N        -24.4670  -50.1600  -31.7200 N.3   482  TRP482     -0.1241
     41  CA       -23.4780  -50.7920  -32.5830 C.3   482  TRP482      0.1605
     42  C        -23.7480  -52.2890  -32.6830 C.2   482  TRP482      0.2264
     43  O        -23.8940  -52.9770  -31.6670 O.2   482  TRP482     -0.2867
     44  CB       -22.0690  -50.5370  -32.0520 C.3   482  TRP482      0.0550
     45  CG       -21.5940  -49.1320  -32.2690 C.ar  482  TRP482      0.0003
     46  CD1      -21.6340  -48.1050  -31.3700 C.ar  482  TRP482      0.0946
     47  CD2      -21.0070  -48.5980  -33.4620 C.ar  482  TRP482      0.0152
     48  NE1      -21.1080  -46.9640  -31.9300 N.ar  482  TRP482     -0.2442
     49  CE2      -20.7160  -47.2410  -33.2130 C.ar  482  TRP482      0.0810
     50  CE3      -20.7010  -49.1340  -34.7170 C.ar  482  TRP482      0.0012
     51  CZ2      -20.1340  -46.4140  -34.1730 C.ar  482  TRP482      0.0191
     52  CZ3      -20.1230  -48.3110  -35.6680 C.ar  482  TRP482      0.0001
     53  CH2      -19.8450  -46.9660  -35.3900 C.ar  482  TRP482      0.0015
     54  N        -20.8240  -54.8810  -31.2890 N.3   485  ASP485     -0.1239
     55  CA       -20.7490  -55.0300  -29.8400 C.3   485  ASP485      0.1674
     56  C        -21.9140  -55.8470  -29.2990 C.2   485  ASP485      0.2266
     57  O        -21.7570  -56.5600  -28.3010 O.2   485  ASP485     -0.2867
     58  CB       -20.7160  -53.6560  -29.1710 C.3   485  ASP485      0.1410
     59  CG       -19.6640  -52.7420  -29.7660 C.2   485  ASP485      0.3668
     60  OD1      -19.3620  -52.8800  -30.9710 O.co2 485  ASP485     -0.2456
     61  OD2      -19.1430  -51.8790  -29.0270 O.co2 485  ASP485     -0.2456
     62  N        -26.9080  -42.8740  -36.4100 N.3   528  TRP528     -0.1241
     63  CA       -25.7130  -42.7070  -37.2270 C.3   528  TRP528      0.1605
     64  C        -25.8360  -43.6900  -38.3860 C.2   528  TRP528      0.2264
     65  O        -25.7260  -44.9040  -38.1890 O.2   528  TRP528     -0.2867
     66  CB       -24.4440  -42.9630  -36.4160 C.3   528  TRP528      0.0550
     67  CG       -24.1780  -41.9460  -35.3440 C.ar  528  TRP528      0.0003
     68  CD1      -24.8460  -40.7730  -35.1400 C.ar  528  TRP528      0.0946
     69  CD2      -23.1670  -42.0120  -34.3310 C.ar  528  TRP528      0.0152
     70  NE1      -24.3150  -40.1070  -34.0620 N.ar  528  TRP528     -0.2442
     71  CE2      -23.2820  -40.8460  -33.5490 C.ar  528  TRP528      0.0810
     72  CE3      -22.1750  -42.9440  -34.0100 C.ar  528  TRP528      0.0012
     73  CZ2      -22.4440  -40.5870  -32.4650 C.ar  528  TRP528      0.0191
     74  CZ3      -21.3450  -42.6860  -32.9350 C.ar  528  TRP528      0.0001
     75  CH2      -21.4850  -41.5170  -32.1750 C.ar  528  TRP528      0.0015
     76  N        -20.0910  -56.7980  -38.1410 N.3   537  TRP537     -0.1241
     77  CA       -21.1580  -56.0450  -37.4960 C.3   537  TRP537      0.1605
     78  C        -22.5400  -56.4780  -37.9720 C.2   537  TRP537      0.2264
     79  O        -23.3970  -56.8350  -37.1570 O.2   537  TRP537     -0.2867
     80  CB       -20.9610  -54.5440  -37.7500 C.3   537  TRP537      0.0550
     81  CG       -20.1940  -53.8320  -36.6730 C.ar  537  TRP537      0.0003
     82  CD1      -20.6190  -52.7620  -35.9410 C.ar  537  TRP537      0.0946
     83  CD2      -18.8680  -54.1290  -36.2150 C.ar  537  TRP537      0.0152
     84  NE1      -19.6440  -52.3780  -35.0520 N.ar  537  TRP537     -0.2442
     85  CE2      -18.5600  -53.2010  -35.2000 C.ar  537  TRP537      0.0810
     86  CE3      -17.9130  -55.0900  -36.5630 C.ar  537  TRP537      0.0012
     87  CZ2      -17.3390  -53.2070  -34.5290 C.ar  537  TRP537      0.0191
     88  CZ3      -16.7020  -55.0940  -35.8950 C.ar  537  TRP537      0.0001
     89  CH2      -16.4260  -54.1600  -34.8880 C.ar  537  TRP537      0.0015
     90  N        -13.9100  -52.3000  -39.3980 N.3   586  TYR586     -0.1241
     91  CA       -13.3380  -52.4730  -38.0700 C.3   586  TYR586      0.1605
     92  C        -12.6110  -53.7980  -37.9060 C.2   586  TYR586      0.2264
     93  O        -11.4470  -53.8170  -37.4940 O.2   586  TYR586     -0.2867
     94  CB       -14.4420  -52.3470  -37.0110 C.3   586  TYR586      0.0534
     95  CG       -15.4920  -51.3190  -37.3590 C.ar  586  TYR586     -0.0201
     96  CD1      -15.2060  -49.9620  -37.3030 C.ar  586  TYR586     -0.0009
     97  CD2      -16.7670  -51.7060  -37.7530 C.ar  586  TYR586     -0.0009
     98  CE1      -16.1620  -49.0160  -37.6260 C.ar  586  TYR586      0.0417
     99  CE2      -17.7300  -50.7670  -38.0790 C.ar  586  TYR586      0.0417
    100  CZ       -17.4210  -49.4250  -38.0130 C.ar  586  TYR586      0.1957
    101  OH       -18.3730  -48.4880  -38.3350 O.3   586  TYR586     -0.2866
    102  N        -11.5230  -55.4090  -33.8160 N.3   589  TRP589     -0.1241
    103  CA       -11.4280  -54.0780  -33.2330 C.3   589  TRP589      0.1605
    104  C        -10.6510  -54.1120  -31.9220 C.2   589  TRP589      0.2264
    105  O        -10.9230  -54.9410  -31.0470 O.2   589  TRP589     -0.2867
    106  CB       -12.8300  -53.5160  -33.0020 C.3   589  TRP589      0.0550
    107  CG       -12.9130  -52.0220  -32.8730 C.ar  589  TRP589      0.0003
    108  CD1      -13.4290  -51.3220  -31.8210 C.ar  589  TRP589      0.0946
    109  CD2      -12.4960  -51.0470  -33.8370 C.ar  589  TRP589      0.0152
    110  NE1      -13.3490  -49.9720  -32.0640 N.ar  589  TRP589     -0.2442
    111  CE2      -12.7810  -49.7770  -33.2950 C.ar  589  TRP589      0.0810
    112  CE3      -11.9030  -51.1240  -35.1000 C.ar  589  TRP589      0.0012
    113  CZ2      -12.4970  -48.5950  -33.9750 C.ar  589  TRP589      0.0191
    114  CZ3      -11.6240  -49.9500  -35.7750 C.ar  589  TRP589      0.0001
    115  CH2      -11.9200  -48.7020  -35.2110 C.ar  589  TRP589      0.0015
    116  N        -13.0620  -50.2900  -22.8600 N.3   748  GLU748     -0.1245
    117  CA       -13.0830  -50.3290  -24.3150 C.3   748  GLU748      0.1567
    118  C        -11.7420  -50.7580  -24.8940 C.2   748  GLU748      0.2260
    119  O        -11.7020  -51.2810  -26.0130 O.2   748  GLU748     -0.2867
    120  CB       -13.4750  -48.9550  -24.8680 C.3   748  GLU748      0.0388
    121  CG       -13.7650  -48.9270  -26.3590 C.3   748  GLU748      0.1160
    122  CD       -14.0840  -47.5330  -26.8640 C.2   748  GLU748      0.3649
    123  OE1      -13.8860  -46.5650  -26.1000 O.co2 748  GLU748     -0.2457
    124  OE2      -14.5330  -47.4050  -28.0240 O.co2 748  GLU748     -0.2457
    125  N        -11.2410  -42.6870  -27.8510 N.3   758  MET758     -0.1245
    126  CA       -11.8260  -44.0240  -27.7550 C.3   758  MET758      0.1570
    127  C        -11.1540  -44.7930  -26.6210 C.2   758  MET758      0.2261
    128  O        -10.2040  -45.5560  -26.8150 O.2   758  MET758     -0.2867
    129  CB       -11.6820  -44.7610  -29.0770 C.3   758  MET758      0.0387
    130  CG       -12.9350  -44.7750  -29.9230 C.3   758  MET758      0.0595
    131  SD       -12.8310  -46.0090  -31.2310 S.3   758  MET758     -0.1393
    132  CE       -11.8310  -47.2760  -30.4480 C.3   758  MET758      0.0692
    133  N        -17.4310  -50.5740  -21.5780 N.3   763  HIS763     -0.1241
    134  CA       -17.8030  -51.1970  -22.8380 C.3   763  HIS763      0.1621
    135  C        -18.1750  -52.6570  -22.6080 C.2   763  HIS763      0.2264
    136  O        -17.8670  -53.2470  -21.5690 O.2   763  HIS763     -0.2867
    137  CB       -16.6690  -51.0870  -23.8600 C.3   763  HIS763      0.0745
    138  CG       -16.8800  -50.0100  -24.8800 C.ar  763  HIS763      0.0817
    139  ND1      -16.9590  -48.6740  -24.5470 N.ar  763  HIS763     -0.2268
    140  CD2      -17.0330  -50.0720  -26.2240 C.ar  763  HIS763      0.1154
    141  CE1      -17.1490  -47.9600  -25.6420 C.ar  763  HIS763      0.1986
    142  NE2      -17.1970  -48.7840  -26.6740 N.ar  763  HIS763     -0.2212
    143  N        -18.1230  -55.0720  -25.5220 N.3   765  MET765     -0.1245
    144  CA       -17.6710  -55.9540  -26.5940 C.3   765  MET765      0.1570
    145  C        -16.7630  -57.0650  -26.0820 C.2   765  MET765      0.2261
    146  O        -16.7740  -58.1740  -26.6290 O.2   765  MET765     -0.2867
    147  CB       -16.9470  -55.1450  -27.6700 C.3   765  MET765      0.0387
    148  CG       -17.2160  -53.6530  -27.6160 C.3   765  MET765      0.0595
    149  SD       -16.0580  -52.7030  -28.6270 S.3   765  MET765     -0.1393
    150  CE       -14.6840  -52.5060  -27.4980 C.3   765  MET765      0.0692
@<TRIPOS>BOND
     1    90    91    1
     2    64    65    2
     3    64    63    1
     4   101   100    1
     5     9     7   ar
     6     9    11   ar
     7     7     6   ar
     8    76    77    1
     9    99   100   ar
    10    99    97   ar
    11    91    92    1
    12    91    94    1
    13   100    98   ar
    14    78    77    1
    15    78    79    2
    16    92    93    2
    17    97    95   ar
    18    80    77    1
    19    80    81    1
    20     4     3    2
    21    98    96   ar
    22    11    10   ar
    23    95    96   ar
    24    95    94    1
    25     6     5    1
    26     6     8   ar
    27     5     2    1
    28    63    66    1
    29    63    62    1
    30     3     2    1
    31    81    83   ar
    32    81    82   ar
    33     2     1    1
    34    10     8   ar
    35    86    83   ar
    36    86    88   ar
    37    66    67    1
    38    83    85   ar
    39    82    84   ar
    40    88    89   ar
    41   114   115   ar
    42   114   112   ar
    43    52    53   ar
    44    52    50   ar
    45    53    51   ar
    46    67    68   ar
    47    67    69   ar
    48   115   113   ar
    49    85    84   ar
    50    85    87   ar
    51    68    70   ar
    52   112   109   ar
    53    89    87   ar
    54    50    47   ar
    55    69    72   ar
    56    69    71   ar
    57    51    49   ar
    58    70    71   ar
    59    72    74   ar
    60   113   111   ar
    61   109   111   ar
    62   109   107   ar
    63   102   103    1
    64    71    73   ar
    65    47    49   ar
    66    47    45   ar
    67   111   110   ar
    68   103   106    1
    69   103   104    1
    70    49    48   ar
    71   106   107    1
    72    74    75   ar
    73   107   108   ar
    74    42    41    1
    75    42    43    2
    76    41    44    1
    77    41    40    1
    78    73    75   ar
    79    45    44    1
    80    45    46   ar
    81   110   108   ar
    82    48    46   ar
    83   104   105    2
    84    54    55    1
    85   131   132    1
    86   131   130    1
    87    38    37   ar
    88    60    59   ar
    89   130   129    1
    90    37    36    1
    91    37    39   ar
    92    55    56    1
    93    55    58    1
    94    59    58    1
    95    59    61   ar
    96    36    35    1
    97    56    57    2
    98   129   126    1
    99   149   148    1
   100   149   150    1
   101    35    32    1
   102    19    17   ar
   103    32    33    1
   104    32    31    1
   105    34    33    2
   106   124   122   ar
   107    17    16    1
   108    17    18   ar
   109   125   126    1
   110    16    13    1
   111   126   127    1
   112    30    28    1
   113   147   148    1
   114   147   144    1
   115   122   121    1
   116   122   123   ar
   117    28    27    2
   118    28    29    1
   119   128   127    2
   120    12    13    1
   121   142   140   ar
   122   142   141   ar
   123    13    14    1
   124   146   145    2
   125    27    26    1
   126   144   145    1
   127   144   143    1
   128   121   120    1
   129   140   138   ar
   130   119   118    2
   131    26    25    1
   132   141   139   ar
   133    14    15    2
   134    25    24    1
   135   118   117    1
   136   138   139   ar
   137   138   137    1
   138   120   117    1
   139    23    22    2
   140    22    21    1
   141   117   116    1
   142    24    21    1
   143   137   134    1
   144    21    20    1
   145   134   135    1
   146   134   133    1
   147   135   136    2
