@<TRIPOS>MOLECULE
tmp/6i60A07.pdb
 98 89 0 0 0
SMALL
GASTEIGER

@<TRIPOS>ATOM
      1  N        -33.2760  -81.0240   26.5950 N.3   134  GLU134     -0.1245
      2  CA       -31.9180  -81.5490   26.6390 C.3   134  GLU134      0.1567
      3  C        -31.0930  -80.6780   27.5740 C.2   134  GLU134      0.2260
      4  O        -31.2780  -79.4580   27.6210 O.2   134  GLU134     -0.2867
      5  CB       -31.2740  -81.5850   25.2450 C.3   134  GLU134      0.0388
      6  CG       -31.0890  -82.9870   24.6770 C.3   134  GLU134      0.1160
      7  CD       -30.2590  -82.9990   23.4050 C.2   134  GLU134      0.3649
      8  OE1      -30.6360  -83.7160   22.4530 O.co2 134  GLU134     -0.2457
      9  OE2      -29.2300  -82.2920   23.3580 O.co2 134  GLU134     -0.2457
     10  N        -27.5450  -79.4250   28.1890 N.3   136  TYR136     -0.1241
     11  CA       -26.2010  -79.2350   27.6580 C.3   136  TYR136      0.1605
     12  C        -25.3220  -78.6050   28.7330 C.2   136  TYR136      0.2264
     13  O        -25.6440  -77.5320   29.2550 O.2   136  TYR136     -0.2867
     14  CB       -26.2330  -78.3590   26.4060 C.3   136  TYR136      0.0534
     15  CG       -24.8890  -78.2020   25.7270 C.ar  136  TYR136     -0.0201
     16  CD1      -23.9560  -79.2320   25.7390 C.ar  136  TYR136     -0.0009
     17  CD2      -24.5540  -77.0230   25.0710 C.ar  136  TYR136     -0.0009
     18  CE1      -22.7270  -79.0920   25.1180 C.ar  136  TYR136      0.0417
     19  CE2      -23.3280  -76.8750   24.4480 C.ar  136  TYR136      0.0417
     20  CZ       -22.4200  -77.9120   24.4740 C.ar  136  TYR136      0.1957
     21  OH       -21.1990  -77.7670   23.8550 O.3   136  TYR136     -0.2866
     22  N        -32.2210  -76.9470   27.5350 N.3   149  ILE149     -0.1245
     23  CA       -32.8790  -76.5080   26.3090 C.3   149  ILE149      0.1561
     24  C        -34.0970  -77.3930   26.0880 C.2   149  ILE149      0.2260
     25  O        -33.9640  -78.5880   25.7960 O.2   149  ILE149     -0.2867
     26  CB       -31.9310  -76.5600   25.1030 C.3   149  ILE149      0.0252
     27  CG1      -30.7860  -75.5590   25.2770 C.3   149  ILE149      0.0019
     28  CG2      -32.6950  -76.2840   23.8160 C.3   149  ILE149      0.0019
     29  CD1      -29.4130  -76.1570   25.0520 C.3   149  ILE149      0.0001
     30  N        -34.4640  -78.5530   19.4390 N.3   272  LEU272     -0.1245
     31  CA       -33.7710  -77.7090   20.3990 C.3   272  LEU272      0.1561
     32  C        -33.6490  -76.2860   19.8710 C.2   272  LEU272      0.2260
     33  O        -33.4270  -76.0660   18.6770 O.2   272  LEU272     -0.2867
     34  CB       -32.3840  -78.2740   20.7030 C.3   272  LEU272      0.0270
     35  CG       -32.3410  -79.7180   21.2010 C.3   272  LEU272      0.0019
     36  CD1      -30.9020  -80.1740   21.3810 C.3   272  LEU272      0.0001
     37  CD2      -33.1150  -79.8520   22.4980 C.3   272  LEU272      0.0001
     38  N        -31.9900  -72.4030   21.3270 N.3   274  SER274     -0.1217
     39  CA       -31.2890  -71.6710   22.3710 C.3   274  SER274      0.1889
     40  C        -30.6700  -70.4230   21.7660 C.2   274  SER274      0.2288
     41  O        -30.1780  -70.4540   20.6350 O.2   274  SER274     -0.2866
     42  CB       -30.2060  -72.5330   23.0290 C.3   274  SER274      0.2089
     43  OG       -29.7730  -71.9610   24.2510 O.3   274  SER274     -0.2183
     44  N        -26.8630  -71.3000   21.4580 N.3   277  HIS277     -0.1226
     45  CA       -26.4370  -72.4740   20.7110 C.3   277  HIS277      0.1752
     46  C        -27.1720  -72.6840   19.3950 C.2   277  HIS277      0.2596
     47  O        -26.7670  -73.5540   18.6170 O.2   277  HIS277     -0.2718
     48  CB       -26.5940  -73.7250   21.5830 C.3   277  HIS277      0.0759
     49  CG       -25.9990  -73.5810   22.9480 C.ar  277  HIS277      0.0818
     50  ND1      -24.6420  -73.4710   23.1610 N.ar  277  HIS277     -0.2268
     51  CD2      -26.5780  -73.5180   24.1710 C.ar  277  HIS277      0.1154
     52  CE1      -24.4090  -73.3520   24.4560 C.ar  277  HIS277      0.1986
     53  NE2      -25.5670  -73.3780   25.0910 N.ar  277  HIS277     -0.2212
     54  N        -28.2260  -71.9290   19.1210 N.am  278  GLY278     -0.1957
     55  CA       -28.8970  -72.0140   17.8410 C.3   278  GLY278      0.1869
     56  C        -30.1910  -72.7980   17.9020 C.2   278  GLY278      0.2309
     57  O        -30.7470  -73.0860   18.9660 O.2   278  GLY278     -0.2863
     58  N        -32.5420  -76.0230   15.7430 N.3   280  ILE280     -0.1245
     59  CA       -32.5820  -77.1520   14.8210 C.3   280  ILE280      0.1561
     60  C        -33.9910  -77.2600   14.2550 C.2   280  ILE280      0.2260
     61  O        -34.9680  -77.3030   15.0120 O.2   280  ILE280     -0.2867
     62  CB       -32.1640  -78.4580   15.5160 C.3   280  ILE280      0.0252
     63  CG1      -30.7230  -78.3570   16.0170 C.3   280  ILE280      0.0019
     64  CG2      -32.3250  -79.6390   14.5770 C.3   280  ILE280      0.0019
     65  CD1      -30.4980  -79.0430   17.3390 C.3   280  ILE280      0.0001
     66  N        -25.6930  -77.8510    8.1380 N.3   366  ARG366     -0.1245
     67  CA       -25.2020  -77.2300    9.3600 C.3   366  ARG366      0.1563
     68  C        -24.6450  -75.8510    9.0390 C.2   366  ARG366      0.2260
     69  O        -23.7940  -75.7120    8.1530 O.2   366  ARG366     -0.2867
     70  CB       -24.1290  -78.1010   10.0160 C.3   366  ARG366      0.0307
     71  CG       -23.7230  -77.6550   11.4070 C.3   366  ARG366      0.0489
     72  CD       -22.6000  -78.5230   11.9520 C.3   366  ARG366      0.2205
     73  NE       -21.2960  -78.1380   11.4170 N.pl3 366  ARG366     -0.0865
     74  CZ       -20.2170  -78.9130   11.4440 C.cat 366  ARG366      0.5346
     75  NH1      -20.2810  -80.1240   11.9820 N.pl3 366  ARG366      0.1354
     76  NH2      -19.0720  -78.4790   10.9340 N.pl3 366  ARG366      0.1354
     77  N        -22.4950  -72.3980   21.1150 N.3   388  LEU388     -0.1245
     78  CA       -22.3650  -73.1910   19.8960 C.3   388  LEU388      0.1561
     79  C        -22.6010  -72.3350   18.6580 C.2   388  LEU388      0.2260
     80  O        -21.7840  -72.3260   17.7300 O.2   388  LEU388     -0.2867
     81  CB       -23.3370  -74.3680   19.9340 C.3   388  LEU388      0.0270
     82  CG       -22.7790  -75.6880   20.4630 C.3   388  LEU388      0.0019
     83  CD1      -23.6830  -76.8390   20.0540 C.3   388  LEU388      0.0001
     84  CD2      -21.3580  -75.9080   19.9660 C.3   388  LEU388      0.0001
     85  N        -24.6490  -72.5930   16.1680 N.3   390  THR390     -0.1218
     86  CA       -24.8480  -73.3420   14.9350 C.3   390  THR390      0.1862
     87  C        -26.3270  -73.6690   14.7660 C.2   390  THR390      0.2287
     88  O        -27.0070  -74.0350   15.7300 O.2   390  THR390     -0.2866
     89  CB       -24.0210  -74.6370   14.9110 C.3   390  THR390      0.1770
     90  OG1      -24.6920  -75.6540   15.6630 O.3   390  THR390     -0.2211
     91  CG2      -22.6440  -74.4070   15.5050 C.3   390  THR390      0.0375
     92  N        -29.1250  -75.9660   12.4050 N.3   392  VAL392     -0.1245
     93  CA       -29.2020  -77.1980   11.6310 C.3   392  VAL392      0.1561
     94  C        -30.5790  -77.2810   10.9890 C.2   392  VAL392      0.2260
     95  O        -31.5970  -77.1140   11.6700 O.2   392  VAL392     -0.2867
     96  CB       -28.9360  -78.4370   12.5080 C.3   392  VAL392      0.0252
     97  CG1      -29.4000  -79.7040   11.8060 C.3   392  VAL392      0.0019
     98  CG2      -27.4610  -78.5230   12.8610 C.3   392  VAL392      0.0019
@<TRIPOS>BOND
     1    66    67    1
     2    69    68    2
     3    68    67    1
     4    67    70    1
     5    70    71    1
     6    76    74    1
     7    94    93    1
     8    94    95    2
     9    71    72    1
    10    73    74    2
    11    73    72    1
    12    74    75    1
    13    93    92    1
    14    93    96    1
    15    97    96    1
    16    96    98    1
    17    60    59    1
    18    60    61    2
    19    64    62    1
    20    87    86    1
    21    87    88    2
    22    59    62    1
    23    59    58    1
    24    89    86    1
    25    89    91    1
    26    89    90    1
    27    86    85    1
    28    62    63    1
    29    63    65    1
    30    80    79    2
    31    55    56    1
    32    55    54    1
    33    56    57    2
    34    47    46    2
    35    79    78    1
    36    33    32    2
    37    54    46   am
    38    46    45    1
    39    30    31    1
    40    32    31    1
    41    78    81    1
    42    78    77    1
    43    81    82    1
    44    84    82    1
    45    83    82    1
    46    31    34    1
    47    41    40    2
    48    34    35    1
    49    45    44    1
    50    45    48    1
    51    35    36    1
    52    35    37    1
    53    38    39    1
    54    48    49    1
    55    40    39    1
    56    39    42    1
    57     8     7   ar
    58    49    50   ar
    59    49    51   ar
    60    42    43    1
    61    50    52   ar
    62     9     7   ar
    63     7     6    1
    64    28    26    1
    65    21    20    1
    66    51    53   ar
    67    19    20   ar
    68    19    17   ar
    69    52    53   ar
    70    20    18   ar
    71     6     5    1
    72    29    27    1
    73    17    15   ar
    74    26    27    1
    75    26    23    1
    76    18    16   ar
    77     5     2    1
    78    15    16   ar
    79    15    14    1
    80    25    24    2
    81    24    23    1
    82    23    22    1
    83    14    11    1
    84     1     2    1
    85     2     3    1
    86     3     4    2
    87    11    10    1
    88    11    12    1
    89    12    13    2
