@<TRIPOS>MOLECULE
tmp/6i6hA08.pdb
 100 94 0 0 0
SMALL
GASTEIGER

@<TRIPOS>ATOM
      1  N         56.7680   40.4600   92.2040 N.3    93  PHE93      -0.1241
      2  CA        55.6140   41.3550   92.3800 C.3    93  PHE93       0.1605
      3  C         54.7190   40.7740   93.4870 C.2    93  PHE93       0.2264
      4  O         54.5100   39.5640   93.5250 O.2    93  PHE93      -0.2867
      5  CB        54.8080   41.5070   91.0730 C.3    93  PHE93       0.0534
      6  CG        53.8150   42.6520   91.0570 C.ar   93  PHE93      -0.0203
      7  CD1       52.5410   42.4990   91.5930 C.ar   93  PHE93      -0.0042
      8  CD2       54.1250   43.8560   90.4310 C.ar   93  PHE93      -0.0042
      9  CE1       51.6230   43.5550   91.5700 C.ar   93  PHE93      -0.0003
     10  CE2       53.1890   44.8970   90.3750 C.ar   93  PHE93      -0.0003
     11  CZ        51.9480   44.7410   90.9500 C.ar   93  PHE93      -0.0000
     12  N         47.0770   43.1320   94.2460 N.3    98  LEU98      -0.1245
     13  CA        46.1750   43.1340   93.0940 C.3    98  LEU98       0.1561
     14  C         44.8880   42.3780   93.4400 C.2    98  LEU98       0.2260
     15  O         43.8100   42.9560   93.3280 O.2    98  LEU98      -0.2867
     16  CB        46.8300   42.5630   91.8150 C.3    98  LEU98       0.0270
     17  CG        48.0520   43.3040   91.2390 C.3    98  LEU98       0.0019
     18  CD1       48.5280   42.6380   89.9790 C.3    98  LEU98       0.0001
     19  CD2       47.7550   44.7970   90.9680 C.3    98  LEU98       0.0001
     20  N         44.9150   44.0180   85.1920 N.3   129  VAL129     -0.1245
     21  CA        46.2160   44.1750   85.8540 C.3   129  VAL129      0.1561
     22  C         47.0440   42.8750   85.8890 C.2   129  VAL129      0.2260
     23  O         48.1580   42.8860   86.4020 O.2   129  VAL129     -0.2867
     24  CB        46.0600   44.7980   87.2700 C.3   129  VAL129      0.0252
     25  CG1       45.5200   46.2270   87.1750 C.3   129  VAL129      0.0019
     26  CG2       45.1850   43.9310   88.1890 C.3   129  VAL129      0.0019
     27  N         50.8070   42.8650   84.9520 N.3   132  LEU132     -0.1245
     28  CA        51.7380   43.6730   85.7610 C.3   132  LEU132      0.1561
     29  C         52.9440   42.8670   86.2970 C.2   132  LEU132      0.2260
     30  O         54.0640   43.2980   86.0260 O.2   132  LEU132     -0.2867
     31  CB        51.0340   44.4550   86.8870 C.3   132  LEU132      0.0270
     32  CG        50.3850   45.7680   86.4430 C.3   132  LEU132      0.0019
     33  CD1       49.6140   46.4040   87.5890 C.3   132  LEU132      0.0001
     34  CD2       51.4310   46.7630   85.8990 C.3   132  LEU132      0.0001
     35  N         55.4910   42.4780   83.3010 N.3   135  LEU135     -0.1231
     36  CA        56.1370   43.7350   82.9030 C.3   135  LEU135      0.1693
     37  C         57.1400   44.1730   83.9760 C.2   135  LEU135      0.2592
     38  O         58.2150   44.6720   83.6470 O.2   135  LEU135     -0.2718
     39  CB        55.0860   44.8310   82.6430 C.3   135  LEU135      0.0284
     40  CG        54.0900   44.5600   81.4980 C.3   135  LEU135      0.0019
     41  CD1       53.0630   45.6640   81.3980 C.3   135  LEU135      0.0001
     42  CD2       54.7910   44.3520   80.1760 C.3   135  LEU135      0.0001
     43  N         56.7950   43.9260   85.2540 N.am  136  PHE136     -0.1976
     44  CA        57.6240   44.2250   86.4230 C.3   136  PHE136      0.1639
     45  C         58.9020   43.3740   86.4310 C.2   136  PHE136      0.2290
     46  O         59.9640   43.8690   86.8050 O.2   136  PHE136     -0.2864
     47  CB        56.8180   44.0000   87.7190 C.3   136  PHE136      0.0560
     48  CG        57.5780   44.2650   88.9940 C.ar  136  PHE136     -0.0200
     49  CD1       57.8330   45.5660   89.4130 C.ar  136  PHE136     -0.0042
     50  CD2       58.0460   43.2150   89.7740 C.ar  136  PHE136     -0.0042
     51  CE1       58.5550   45.8100   90.5830 C.ar  136  PHE136     -0.0003
     52  CE2       58.7580   43.4600   90.9520 C.ar  136  PHE136     -0.0003
     53  CZ        58.9990   44.7560   91.3520 C.ar  136  PHE136     -0.0000
     54  N         61.2860   44.6880   83.6480 N.3   139  SER139     -0.1217
     55  CA        61.9280   45.9330   84.0800 C.3   139  SER139      0.1889
     56  C         63.0440   45.6640   85.1070 C.2   139  SER139      0.2288
     57  O         64.0830   46.3320   85.0680 O.2   139  SER139     -0.2866
     58  CB        60.8930   46.9210   84.6170 C.3   139  SER139      0.2089
     59  OG        60.7070   46.8180   86.0210 O.3   139  SER139     -0.2183
     60  N         41.9000   50.3410   80.9880 N.3   186  VAL186     -0.1245
     61  CA        42.9810   50.1490   81.9680 C.3   186  VAL186      0.1561
     62  C         43.9670   49.0780   81.4500 C.2   186  VAL186      0.2260
     63  O         45.1850   49.3050   81.4490 O.2   186  VAL186     -0.2867
     64  CB        42.4530   49.8300   83.3980 C.3   186  VAL186      0.0252
     65  CG1       43.5860   49.3810   84.3390 C.3   186  VAL186      0.0019
     66  CG2       41.7060   51.0220   83.9890 C.3   186  VAL186      0.0019
     67  N         46.0150   50.6140   78.4030 N.3   189  VAL189     -0.1231
     68  CA        46.9140   51.7090   78.8190 C.3   189  VAL189      0.1692
     69  C         48.2170   51.1660   79.4390 C.2   189  VAL189      0.2591
     70  O         49.2810   51.7570   79.2380 O.2   189  VAL189     -0.2718
     71  CB        46.1960   52.7530   79.7330 C.3   189  VAL189      0.0266
     72  CG1       47.1840   53.6630   80.4750 C.3   189  VAL189      0.0020
     73  CG2       45.2140   53.5930   78.9210 C.3   189  VAL189      0.0020
     74  N         48.1350   50.0440   80.1780 N.am  190  LEU190     -0.1980
     75  CA        49.3170   49.4560   80.8200 C.3   190  LEU190      0.1596
     76  C         50.3390   48.8850   79.8070 C.2   190  LEU190      0.2287
     77  O         51.4910   48.6220   80.1800 O.2   190  LEU190     -0.2864
     78  CB        48.9140   48.4240   81.8840 C.3   190  LEU190      0.0297
     79  CG        48.1930   48.9910   83.1220 C.3   190  LEU190      0.0022
     80  CD1       47.6060   47.8880   83.9540 C.3   190  LEU190      0.0001
     81  CD2       49.1220   49.8260   83.9930 C.3   190  LEU190      0.0001
     82  N         53.8720   51.8200   77.0830 N.3   193  ASP193     -0.1225
     83  CA        55.3380   51.8600   76.9800 C.3   193  ASP193      0.1805
     84  C         55.8800   50.6640   76.2320 C.2   193  ASP193      0.2597
     85  O         56.7550   50.8320   75.3880 O.2   193  ASP193     -0.2718
     86  CB        56.0210   52.0290   78.3470 C.3   193  ASP193      0.1424
     87  CG        57.4210   52.6280   78.2610 C.2   193  ASP193      0.3668
     88  OD1       57.6900   53.3990   77.2990 O.co2 193  ASP193     -0.2456
     89  OD2       58.2460   52.3410   79.1590 O.co2 193  ASP193     -0.2456
     90  N         55.3210   49.4670   76.4920 N.am  194  PHE194     -0.1976
     91  CA        55.7260   48.2650   75.7720 C.3   194  PHE194      0.1639
     92  C         55.4820   48.4270   74.2480 C.2   194  PHE194      0.2290
     93  O         56.3460   48.0540   73.4690 O.2   194  PHE194     -0.2864
     94  CB        55.0220   46.9940   76.3110 C.3   194  PHE194      0.0560
     95  CG        55.2420   45.8350   75.3680 C.ar  194  PHE194     -0.0200
     96  CD1       56.4370   45.1200   75.3880 C.ar  194  PHE194     -0.0042
     97  CD2       54.3190   45.5490   74.3650 C.ar  194  PHE194     -0.0042
     98  CE1       56.6810   44.1160   74.4550 C.ar  194  PHE194     -0.0003
     99  CE2       54.5620   44.5390   73.4390 C.ar  194  PHE194     -0.0003
    100  CZ        55.7470   43.8420   73.4800 C.ar  194  PHE194     -0.0000
@<TRIPOS>BOND
     1    99   100   ar
     2    99    97   ar
     3    93    92    2
     4   100    98   ar
     5    92    91    1
     6    97    95   ar
     7    98    96   ar
     8    95    96   ar
     9    95    94    1
    10    85    84    2
    11    91    94    1
    12    91    90    1
    13    84    90   am
    14    84    83    1
    15    83    82    1
    16    83    86    1
    17    88    87   ar
    18    87    86    1
    19    87    89   ar
    20    67    68    1
    21    68    69    1
    22    68    71    1
    23    73    71    1
    24    70    69    2
    25    69    74   am
    26    71    72    1
    27    76    77    2
    28    76    75    1
    29    42    40    1
    30    74    75    1
    31    75    78    1
    32    60    61    1
    33    41    40    1
    34    63    62    2
    35    62    61    1
    36    40    39    1
    37    78    79    1
    38    61    64    1
    39    39    36    1
    40    36    35    1
    41    36    37    1
    42    79    80    1
    43    79    81    1
    44    64    66    1
    45    64    65    1
    46    38    37    2
    47    54    55    1
    48    37    43   am
    49    55    58    1
    50    55    56    1
    51    58    59    1
    52    27    28    1
    53    57    56    2
    54    20    21    1
    55    43    44    1
    56    28    29    1
    57    28    31    1
    58    21    22    1
    59    21    24    1
    60    22    23    2
    61    34    32    1
    62    30    29    2
    63    44    45    1
    64    44    47    1
    65    45    46    2
    66    32    31    1
    67    32    33    1
    68    25    24    1
    69    24    26    1
    70    47    48    1
    71    48    49   ar
    72    48    50   ar
    73    49    51   ar
    74    50    52   ar
    75    18    17    1
    76    10     8   ar
    77    10    11   ar
    78     8     6   ar
    79    51    53   ar
    80    11     9   ar
    81    52    53   ar
    82    19    17    1
    83     6     5    1
    84     6     7   ar
    85     5     2    1
    86    17    16    1
    87     9     7   ar
    88    16    13    1
    89     1     2    1
    90     2     3    1
    91    13    14    1
    92    13    12    1
    93    15    14    2
    94     3     4    2
