@<TRIPOS>MOLECULE
tmp/6i6hA02.pdb
 114 106 0 0 0
SMALL
GASTEIGER

@<TRIPOS>ATOM
      1  N         34.2720   41.3530   62.9940 N.3     3  ILE3       -0.1231
      2  CA        35.6720   41.1050   62.6450 C.3     3  ILE3        0.1692
      3  C         36.6610   41.5850   63.7300 C.2     3  ILE3        0.2592
      4  O         37.7170   40.9710   63.8920 O.2     3  ILE3       -0.2718
      5  CB        36.0080   41.6650   61.2340 C.3     3  ILE3        0.0266
      6  CG1       37.2980   41.0380   60.6560 C.3     3  ILE3        0.0019
      7  CG2       36.0430   43.2040   61.1810 C.3     3  ILE3        0.0020
      8  CD1       37.2010   39.5110   60.3240 C.3     3  ILE3        0.0001
      9  N         36.3190   42.6540   64.4640 N.am    4  PHE4       -0.1976
     10  CA        37.1710   43.1990   65.5200 C.3     4  PHE4        0.1639
     11  C         37.2890   42.2470   66.7020 C.2     4  PHE4        0.2290
     12  O         38.4080   41.9580   67.1250 O.2     4  PHE4       -0.2864
     13  CB        36.7220   44.6060   65.9260 C.3     4  PHE4        0.0560
     14  CG        36.7900   45.5620   64.7610 C.ar    4  PHE4       -0.0200
     15  CD1       38.0180   45.9860   64.2580 C.ar    4  PHE4       -0.0042
     16  CD2       35.6300   45.9750   64.1090 C.ar    4  PHE4       -0.0042
     17  CE1       38.0800   46.8590   63.1660 C.ar    4  PHE4       -0.0003
     18  CE2       35.6950   46.8340   63.0070 C.ar    4  PHE4       -0.0003
     19  CZ        36.9190   47.2710   62.5450 C.ar    4  PHE4       -0.0000
     20  N         39.2340   38.9090   65.4070 N.3     7  THR7       -0.1218
     21  CA        40.6790   39.1780   65.3260 C.3     7  THR7        0.1862
     22  C         41.2430   39.2850   66.7470 C.2     7  THR7        0.2287
     23  O         42.3110   38.7230   67.0210 O.2     7  THR7       -0.2866
     24  CB        40.9640   40.4180   64.4550 C.3     7  THR7        0.1770
     25  OG1       40.2640   40.2900   63.2100 O.3     7  THR7       -0.2211
     26  CG2       42.4470   40.5980   64.1670 C.3     7  THR7        0.0375
     27  N         53.0390   41.4380   72.5770 N.3   153  PHE153     -0.1241
     28  CA        52.3760   42.2000   71.5310 C.3   153  PHE153      0.1605
     29  C         50.9710   41.6540   71.2130 C.2   153  PHE153      0.2264
     30  O         50.0310   42.4490   71.1280 O.2   153  PHE153     -0.2867
     31  CB        53.2290   42.2790   70.2450 C.3   153  PHE153      0.0534
     32  CG        52.4940   42.9750   69.1190 C.ar  153  PHE153     -0.0203
     33  CD1       52.2790   44.3510   69.1510 C.ar  153  PHE153     -0.0042
     34  CD2       51.9680   42.2480   68.0550 C.ar  153  PHE153     -0.0042
     35  CE1       51.5690   44.9900   68.1260 C.ar  153  PHE153     -0.0003
     36  CE2       51.2520   42.8860   67.0350 C.ar  153  PHE153     -0.0003
     37  CZ        51.0660   44.2530   67.0720 C.ar  153  PHE153     -0.0000
     38  N         47.4500   43.5570   72.0070 N.3   157  LEU157     -0.1245
     39  CA        46.5840   43.8710   70.8650 C.3   157  LEU157      0.1561
     40  C         45.1590   43.2960   71.0380 C.2   157  LEU157      0.2260
     41  O         44.2050   43.9140   70.5590 O.2   157  LEU157     -0.2867
     42  CB        47.2040   43.3470   69.5470 C.3   157  LEU157      0.0270
     43  CG        46.3990   43.6170   68.2600 C.3   157  LEU157      0.0019
     44  CD1       46.5010   45.0840   67.8270 C.3   157  LEU157      0.0001
     45  CD2       46.8200   42.6820   67.1430 C.3   157  LEU157      0.0001
     46  N         42.8420   45.5350   73.0110 N.3   160  ALA160     -0.1231
     47  CA        42.7380   46.7850   72.2370 C.3   160  ALA160      0.1694
     48  C         41.7000   46.5720   71.1200 C.2   160  ALA160      0.2591
     49  O         40.8960   47.4570   70.8620 O.2   160  ALA160     -0.2718
     50  CB        44.0880   47.1620   71.6410 C.3   160  ALA160      0.0304
     51  N         41.6670   45.3720   70.5190 N.am  161  LEU161     -0.1980
     52  CA        40.6840   45.0360   69.4930 C.3   161  LEU161      0.1596
     53  C         39.2820   44.9040   70.0940 C.2   161  LEU161      0.2287
     54  O         38.3020   45.2130   69.4250 O.2   161  LEU161     -0.2864
     55  CB        41.0870   43.7800   68.7020 C.3   161  LEU161      0.0297
     56  CG        42.2500   43.9720   67.7020 C.3   161  LEU161      0.0022
     57  CD1       42.7940   42.6580   67.2480 C.3   161  LEU161      0.0001
     58  CD2       41.8410   44.8460   66.5080 C.3   161  LEU161      0.0001
     59  N         38.1600   46.8490   72.4460 N.3   163  LEU163     -0.1231
     60  CA        37.6920   48.2400   72.5530 C.3   163  LEU163      0.1693
     61  C         37.0420   48.6530   71.2370 C.2   163  LEU163      0.2591
     62  O         35.9670   49.2470   71.2530 O.2   163  LEU163     -0.2718
     63  CB        38.8390   49.2090   72.8990 C.3   163  LEU163      0.0284
     64  CG        39.4480   49.0780   74.3060 C.3   163  LEU163      0.0019
     65  CD1       40.7110   49.9090   74.4180 C.3   163  LEU163      0.0001
     66  CD2       38.4630   49.5260   75.3790 C.3   163  LEU163      0.0001
     67  N         37.6610   48.2870   70.0930 N.am  164  VAL164     -0.1980
     68  CA        37.0920   48.5850   68.7790 C.3   164  VAL164      0.1595
     69  C         35.7570   47.8160   68.6110 C.2   164  VAL164      0.2287
     70  O         34.7680   48.3890   68.1570 O.2   164  VAL164     -0.2864
     71  CB        38.0900   48.3420   67.6260 C.3   164  VAL164      0.0276
     72  CG1       37.5060   48.8310   66.3000 C.3   164  VAL164      0.0022
     73  CG2       39.4180   49.0500   67.9110 C.3   164  VAL164      0.0022
     74  N         32.9630   49.6880   70.3640 N.3   167  ILE167     -0.1245
     75  CA        32.4840   50.8800   69.6530 C.3   167  ILE167      0.1561
     76  C         31.4490   50.3940   68.6240 C.2   167  ILE167      0.2260
     77  O         30.3480   50.9400   68.5590 O.2   167  ILE167     -0.2867
     78  CB        33.6360   51.6830   68.9830 C.3   167  ILE167      0.0252
     79  CG1       34.6250   52.2280   70.0350 C.3   167  ILE167      0.0019
     80  CG2       33.0810   52.8170   68.1050 C.3   167  ILE167      0.0019
     81  CD1       35.9630   52.6870   69.4860 C.3   167  ILE167      0.0001
     82  N         44.6280   48.0470   78.3860 N.3   188  THR188     -0.1218
     83  CA        45.3630   48.5290   77.2150 C.3   188  THR188      0.1862
     84  C         46.3870   49.6140   77.5580 C.2   188  THR188      0.2287
     85  O         47.5070   49.5360   77.0510 O.2   188  THR188     -0.2866
     86  CB        44.3740   48.9580   76.1150 C.3   188  THR188      0.1770
     87  OG1       43.5900   47.8070   75.7890 O.3   188  THR188     -0.2211
     88  CG2       45.0750   49.4670   74.8390 C.3   188  THR188      0.0375
     89  N         54.3000   48.9410   73.8350 N.3   195  PHE195     -0.1241
     90  CA        53.9500   49.1220   72.4150 C.3   195  PHE195      0.1605
     91  C         54.9020   50.0670   71.7240 C.2   195  PHE195      0.2264
     92  O         55.3810   49.7520   70.6350 O.2   195  PHE195     -0.2867
     93  CB        52.4990   49.6180   72.2310 C.3   195  PHE195      0.0534
     94  CG        51.3830   48.6160   72.4520 C.ar  195  PHE195     -0.0203
     95  CD1       51.4780   47.3180   71.9520 C.ar  195  PHE195     -0.0042
     96  CD2       50.1800   49.0100   73.0280 C.ar  195  PHE195     -0.0042
     97  CE1       50.4200   46.4070   72.1050 C.ar  195  PHE195     -0.0003
     98  CE2       49.1120   48.1080   73.1520 C.ar  195  PHE195     -0.0003
     99  CZ        49.2480   46.8090   72.7010 C.ar  195  PHE195     -0.0000
    100  N         57.5150   48.7670   68.7250 N.3   199  VAL199     -0.1245
    101  CA        57.4790   49.3290   67.3730 C.3   199  VAL199      0.1561
    102  C         58.8070   50.0280   67.0290 C.2   199  VAL199      0.2260
    103  O         59.3960   49.7140   65.9910 O.2   199  VAL199     -0.2867
    104  CB        56.2180   50.2130   67.1420 C.3   199  VAL199      0.0252
    105  CG1       56.2570   50.9340   65.7940 C.3   199  VAL199      0.0019
    106  CG2       54.9410   49.3730   67.2560 C.3   199  VAL199      0.0019
    107  N         60.7390   45.8620   66.4380 N.3   203  LEU203     -0.1245
    108  CA        60.4520   45.7340   65.0030 C.3   203  LEU203      0.1561
    109  C         61.5870   46.3020   64.1110 C.2   203  LEU203      0.2260
    110  O         61.6140   46.0140   62.9140 O.2   203  LEU203     -0.2867
    111  CB        59.0710   46.3110   64.6240 C.3   203  LEU203      0.0270
    112  CG        57.8420   45.6410   65.2680 C.3   203  LEU203      0.0019
    113  CD1       56.5710   46.4240   64.9670 C.3   203  LEU203      0.0001
    114  CD2       57.6800   44.1800   64.8250 C.3   203  LEU203      0.0001
@<TRIPOS>BOND
     1     8     6    1
     2     6     5    1
     3     7     5    1
     4     5     2    1
     5    19    18   ar
     6    19    17   ar
     7     2     1    1
     8     2     3    1
     9   110   109    2
    10    18    16   ar
    11    17    15   ar
    12    25    24    1
    13     3     4    2
    14     3     9   am
    15    16    14   ar
    16   109   108    1
    17    26    24    1
    18    15    14   ar
    19    24    21    1
    20     9    10    1
    21   111   108    1
    22   111   112    1
    23    14    13    1
    24   114   112    1
    25   113   112    1
    26   108   107    1
    27    21    20    1
    28    21    22    1
    29    10    13    1
    30    10    11    1
    31   105   104    1
    32   103   102    2
    33    72    71    1
    34    58    56    1
    35    11    12    2
    36    22    23    2
    37   102   101    1
    38    36    37   ar
    39    36    34   ar
    40    37    35   ar
    41   104   106    1
    42   104   101    1
    43    45    43    1
    44    57    56    1
    45   101   100    1
    46    71    73    1
    47    71    68    1
    48    56    55    1
    49    44    43    1
    50    34    32   ar
    51    80    78    1
    52    35    33   ar
    53    70    69    2
    54    43    42    1
    55    77    76    2
    56    69    68    1
    57    76    75    1
    58    55    52    1
    59    68    67    1
    60    78    75    1
    61    78    79    1
    62    32    33   ar
    63    32    31    1
    64    54    53    2
    65    81    79    1
    66    52    53    1
    67    52    51    1
    68    42    39    1
    69    75    74    1
    70    67    61   am
    71    31    28    1
    72    51    48   am
    73    41    40    2
    74    92    91    2
    75    49    48    2
    76    39    40    1
    77    39    38    1
    78    48    47    1
    79    30    29    2
    80    29    28    1
    81    61    62    2
    82    61    60    1
    83    28    27    1
    84    50    47    1
    85    91    90    1
    86    95    97   ar
    87    95    94   ar
    88    97    99   ar
    89    93    90    1
    90    93    94    1
    91    47    46    1
    92    90    89    1
    93    59    60    1
    94    94    96   ar
    95    60    63    1
    96    99    98   ar
    97    63    64    1
    98    96    98   ar
    99    64    65    1
   100    64    66    1
   101    88    86    1
   102    87    86    1
   103    86    83    1
   104    85    84    2
   105    83    84    1
   106    83    82    1
