@<TRIPOS>MOLECULE
tmp/6i6hA09.pdb
 95 90 0 0 0
SMALL
GASTEIGER

@<TRIPOS>ATOM
      1  N         38.1600   46.8490   72.4460 N.3   163  LEU163     -0.1245
      2  CA        37.6920   48.2400   72.5530 C.3   163  LEU163      0.1561
      3  C         37.0420   48.6530   71.2370 C.2   163  LEU163      0.2260
      4  O         35.9670   49.2470   71.2530 O.2   163  LEU163     -0.2867
      5  CB        38.8390   49.2090   72.8990 C.3   163  LEU163      0.0270
      6  CG        39.4480   49.0780   74.3060 C.3   163  LEU163      0.0019
      7  CD1       40.7110   49.9090   74.4180 C.3   163  LEU163      0.0001
      8  CD2       38.4630   49.5260   75.3790 C.3   163  LEU163      0.0001
      9  N         33.6700   47.0320   70.9940 N.3   166  TRP166     -0.1227
     10  CA        32.6750   47.7200   71.8100 C.3   166  TRP166      0.1737
     11  C         32.1510   48.9990   71.1690 C.2   166  TRP166      0.2595
     12  O         30.9890   49.3330   71.3820 O.2   166  TRP166     -0.2718
     13  CB        33.1610   47.9630   73.2440 C.3   166  TRP166      0.0564
     14  CG        33.3840   46.6990   74.0310 C.ar  166  TRP166      0.0003
     15  CD1       32.6170   45.5680   74.0070 C.ar  166  TRP166      0.0946
     16  CD2       34.4700   46.4290   74.9220 C.ar  166  TRP166      0.0152
     17  NE1       33.1650   44.6050   74.8260 N.ar  166  TRP166     -0.2442
     18  CE2       34.3000   45.1100   75.4060 C.ar  166  TRP166      0.0810
     19  CE3       35.5640   47.1780   75.3760 C.ar  166  TRP166      0.0012
     20  CZ2       35.1840   44.5260   76.3210 C.ar  166  TRP166      0.0191
     21  CZ3       36.4410   46.5990   76.2860 C.ar  166  TRP166      0.0001
     22  CH2       36.2430   45.2920   76.7540 C.ar  166  TRP166      0.0015
     23  N         32.9630   49.6880   70.3640 N.am  167  ILE167     -0.1980
     24  CA        32.4840   50.8800   69.6530 C.3   167  ILE167      0.1595
     25  C         31.4490   50.3940   68.6240 C.2   167  ILE167      0.2287
     26  O         30.3480   50.9400   68.5590 O.2   167  ILE167     -0.2864
     27  CB        33.6360   51.6830   68.9830 C.3   167  ILE167      0.0276
     28  CG1       34.6250   52.2280   70.0350 C.3   167  ILE167      0.0022
     29  CG2       33.0810   52.8170   68.1050 C.3   167  ILE167      0.0022
     30  CD1       35.9630   52.6870   69.4860 C.3   167  ILE167      0.0001
     31  N         28.2030   49.1860   70.2110 N.3   170  TYR170     -0.1241
     32  CA        27.4400   50.3320   70.7060 C.3   170  TYR170      0.1605
     33  C         26.7140   51.0140   69.5440 C.2   170  TYR170      0.2264
     34  O         25.5280   51.3110   69.6640 O.2   170  TYR170     -0.2867
     35  CB        28.3080   51.3400   71.4850 C.3   170  TYR170      0.0534
     36  CG        27.5290   52.5540   71.9610 C.ar  170  TYR170     -0.0201
     37  CD1       26.4840   52.4240   72.8750 C.ar  170  TYR170     -0.0009
     38  CD2       27.8330   53.8270   71.4970 C.ar  170  TYR170     -0.0009
     39  CE1       25.7650   53.5350   73.3190 C.ar  170  TYR170      0.0417
     40  CE2       27.1190   54.9480   71.9320 C.ar  170  TYR170      0.0417
     41  CZ        26.0850   54.7950   72.8440 C.ar  170  TYR170      0.1957
     42  OH        25.3690   55.8940   73.2660 O.3   170  TYR170     -0.2866
     43  N         26.2250   48.2350   75.4850 N.3   176  PHE176     -0.1241
     44  CA        27.3950   48.7620   76.1710 C.3   176  PHE176      0.1605
     45  C         27.5080   48.2090   77.5680 C.2   176  PHE176      0.2264
     46  O         26.5000   48.0510   78.2550 O.2   176  PHE176     -0.2867
     47  CB        27.4950   50.3030   76.1430 C.3   176  PHE176      0.0534
     48  CG        26.5540   51.0780   77.0250 C.ar  176  PHE176     -0.0203
     49  CD1       26.9070   51.4030   78.3290 C.ar  176  PHE176     -0.0042
     50  CD2       25.3490   51.5630   76.5260 C.ar  176  PHE176     -0.0042
     51  CE1       26.0370   52.1320   79.1450 C.ar  176  PHE176     -0.0003
     52  CE2       24.4870   52.3080   77.3360 C.ar  176  PHE176     -0.0003
     53  CZ        24.8400   52.5940   78.6380 C.ar  176  PHE176     -0.0000
     54  N         29.8690   49.2850   80.7070 N.3   178  LEU178     -0.1245
     55  CA        30.8890   50.2110   81.2190 C.3   178  LEU178      0.1561
     56  C         31.9730   49.5540   82.0910 C.2   178  LEU178      0.2260
     57  O         33.1070   50.0250   82.0610 O.2   178  LEU178     -0.2867
     58  CB        30.2720   51.4330   81.9290 C.3   178  LEU178      0.0270
     59  CG        29.6070   52.4560   80.9810 C.3   178  LEU178      0.0019
     60  CD1       28.7980   53.4830   81.7490 C.3   178  LEU178      0.0001
     61  CD2       30.6380   53.1690   80.0940 C.3   178  LEU178      0.0001
     62  N         34.3970   47.9430   79.5790 N.3   181  VAL181     -0.1245
     63  CA        35.0380   49.0390   78.8320 C.3   181  VAL181      0.1561
     64  C         36.1340   49.7070   79.6530 C.2   181  VAL181      0.2260
     65  O         37.2920   49.7260   79.2150 O.2   181  VAL181     -0.2867
     66  CB        34.0000   50.0510   78.2650 C.3   181  VAL181      0.0252
     67  CG1       34.6780   51.2880   77.6630 C.3   181  VAL181      0.0019
     68  CG2       33.1050   49.3820   77.2270 C.3   181  VAL181      0.0019
     69  N         40.1260   49.5830   78.9990 N.3   185  VAL185     -0.1245
     70  CA        40.9300   50.7860   78.7540 C.3   185  VAL185      0.1561
     71  C         42.1440   50.6970   79.7020 C.2   185  VAL185      0.2260
     72  O         43.2820   50.9010   79.2620 O.2   185  VAL185     -0.2867
     73  CB        40.0950   52.0850   78.9440 C.3   185  VAL185      0.0252
     74  CG1       40.9850   53.3240   79.0810 C.3   185  VAL185      0.0019
     75  CG2       39.0870   52.2670   77.8110 C.3   185  VAL185      0.0019
     76  N         44.6280   48.0470   78.3860 N.3   188  THR188     -0.1203
     77  CA        45.3630   48.5290   77.2150 C.3   188  THR188      0.1994
     78  C         46.3870   49.6140   77.5580 C.2   188  THR188      0.2617
     79  O         47.5070   49.5360   77.0510 O.2   188  THR188     -0.2717
     80  CB        44.3740   48.9580   76.1150 C.3   188  THR188      0.1784
     81  OG1       43.5900   47.8070   75.7890 O.3   188  THR188     -0.2211
     82  CG2       45.0750   49.4670   74.8390 C.3   188  THR188      0.0376
     83  N         46.0150   50.6140   78.4030 N.am  189  VAL189     -0.1979
     84  CA        46.9140   51.7090   78.8190 C.3   189  VAL189      0.1595
     85  C         48.2170   51.1660   79.4390 C.2   189  VAL189      0.2287
     86  O         49.2810   51.7570   79.2380 O.2   189  VAL189     -0.2864
     87  CB        46.1960   52.7530   79.7330 C.3   189  VAL189      0.0276
     88  CG1       47.1840   53.6630   80.4750 C.3   189  VAL189      0.0022
     89  CG2       45.2140   53.5930   78.9210 C.3   189  VAL189      0.0022
     90  N         51.1010   50.7110   76.9270 N.3   192  CYS192     -0.1235
     91  CA        51.5830   51.8900   76.1840 C.3   192  CYS192      0.1677
     92  C         53.0960   51.9350   75.9950 C.2   192  CYS192      0.2270
     93  O         53.5480   52.0330   74.8530 O.2   192  CYS192     -0.2867
     94  CB        51.0620   53.1880   76.7930 C.3   192  CYS192      0.0956
     95  SG        49.3220   53.5130   76.4230 S.3   192  CYS192     -0.0801
@<TRIPOS>BOND
     1    29    27    1
     2    26    25    2
     3    25    24    1
     4    27    24    1
     5    27    28    1
     6    30    28    1
     7    33    34    2
     8    33    32    1
     9    24    23    1
    10    31    32    1
    11    23    11   am
    12    32    35    1
    13     9    10    1
    14    11    12    2
    15    11    10    1
    16     3     4    2
    17     3     2    1
    18    35    36    1
    19    38    40   ar
    20    38    36   ar
    21    10    13    1
    22    40    41   ar
    23    36    37   ar
    24     1     2    1
    25     2     5    1
    26    41    42    1
    27    41    39   ar
    28    37    39   ar
    29     5     6    1
    30    13    14    1
    31    15    14   ar
    32    15    17   ar
    33    14    16   ar
    34     6     7    1
    35     6     8    1
    36    17    18   ar
    37    82    80    1
    38    93    92    2
    39    16    19   ar
    40    16    18   ar
    41    19    21   ar
    42    18    20   ar
    43    43    44    1
    44    81    80    1
    45    92    91    1
    46    80    77    1
    47    47    44    1
    48    47    48    1
    49    44    45    1
    50    91    94    1
    51    91    90    1
    52    21    22   ar
    53    20    22   ar
    54    95    94    1
    55    50    48   ar
    56    50    52   ar
    57    48    49   ar
    58    79    78    2
    59    77    78    1
    60    77    76    1
    61    68    66    1
    62    52    53   ar
    63    78    83   am
    64    45    46    2
    65    67    66    1
    66    75    73    1
    67    66    63    1
    68    49    51   ar
    69    83    84    1
    70    53    51   ar
    71    70    73    1
    72    70    69    1
    73    70    71    1
    74    84    85    1
    75    84    87    1
    76    63    62    1
    77    63    64    1
    78    89    87    1
    79    73    74    1
    80    65    64    2
    81    86    85    2
    82    72    71    2
    83    87    88    1
    84    61    59    1
    85    54    55    1
    86    59    60    1
    87    59    58    1
    88    55    58    1
    89    55    56    1
    90    57    56    2
