@<TRIPOS>MOLECULE
tmp/6i6hA06.pdb
 145 139 0 0 0
SMALL
GASTEIGER

@<TRIPOS>ATOM
      1  N         56.7680   40.4600   92.2040 N.3    93  PHE93      -0.1241
      2  CA        55.6140   41.3550   92.3800 C.3    93  PHE93       0.1605
      3  C         54.7190   40.7740   93.4870 C.2    93  PHE93       0.2264
      4  O         54.5100   39.5640   93.5250 O.2    93  PHE93      -0.2867
      5  CB        54.8080   41.5070   91.0730 C.3    93  PHE93       0.0534
      6  CG        53.8150   42.6520   91.0570 C.ar   93  PHE93      -0.0203
      7  CD1       52.5410   42.4990   91.5930 C.ar   93  PHE93      -0.0042
      8  CD2       54.1250   43.8560   90.4310 C.ar   93  PHE93      -0.0042
      9  CE1       51.6230   43.5550   91.5700 C.ar   93  PHE93      -0.0003
     10  CE2       53.1890   44.8970   90.3750 C.ar   93  PHE93      -0.0003
     11  CZ        51.9480   44.7410   90.9500 C.ar   93  PHE93      -0.0000
     12  N         48.4820   42.7310   96.5290 N.3    97  PHE97      -0.1227
     13  CA        48.0880   44.1200   96.2610 C.3    97  PHE97       0.1736
     14  C         47.1860   44.2160   95.0300 C.2    97  PHE97       0.2595
     15  O         46.6320   45.2830   94.7700 O.2    97  PHE97      -0.2718
     16  CB        49.3070   45.0380   96.0810 C.3    97  PHE97       0.0547
     17  CG        50.0570   45.2720   97.3580 C.ar   97  PHE97      -0.0202
     18  CD1       49.5490   46.1180   98.3350 C.ar   97  PHE97      -0.0042
     19  CD2       51.2510   44.6160   97.6060 C.ar   97  PHE97      -0.0042
     20  CE1       50.2340   46.3120   99.5320 C.ar   97  PHE97      -0.0003
     21  CE2       51.9410   44.8190   98.7980 C.ar   97  PHE97      -0.0003
     22  CZ        51.4260   45.6620   99.7520 C.ar   97  PHE97      -0.0000
     23  N         47.0770   43.1320   94.2460 N.am   98  LEU98      -0.1980
     24  CA        46.1750   43.1340   93.0940 C.3    98  LEU98       0.1596
     25  C         44.8880   42.3780   93.4400 C.2    98  LEU98       0.2287
     26  O         43.8100   42.9560   93.3280 O.2    98  LEU98      -0.2864
     27  CB        46.8300   42.5630   91.8150 C.3    98  LEU98       0.0297
     28  CG        48.0520   43.3040   91.2390 C.3    98  LEU98       0.0022
     29  CD1       48.5280   42.6380   89.9790 C.3    98  LEU98       0.0001
     30  CD2       47.7550   44.7970   90.9680 C.3    98  LEU98       0.0001
     31  N         42.4280   43.9450   96.7030 N.3   101  PRO101     -0.2102
     32  CA        41.5930   45.1010   96.2980 C.3   101  PRO101      0.1504
     33  C         40.6150   44.8350   95.1520 C.2   101  PRO101      0.2575
     34  O         39.4970   45.3440   95.1980 O.2   101  PRO101     -0.2718
     35  CB        42.6140   46.1830   95.9080 C.3   101  PRO101      0.0282
     36  CG        43.8980   45.7260   96.4370 C.3   101  PRO101      0.0208
     37  CD        43.8630   44.2430   96.5050 C.3   101  PRO101      0.0893
     38  N         41.0410   44.0760   94.1090 N.am  102  VAL102     -0.1980
     39  CA        40.2050   43.6990   92.9580 C.3   102  VAL102      0.1595
     40  C         39.0020   42.8690   93.4730 C.2   102  VAL102      0.2287
     41  O         37.8740   43.0460   93.0040 O.2   102  VAL102     -0.2864
     42  CB        41.0500   42.9650   91.8710 C.3   102  VAL102      0.0276
     43  CG1       40.2070   42.0620   90.9790 C.3   102  VAL102      0.0022
     44  CG2       41.8540   43.9630   91.0310 C.3   102  VAL102      0.0022
     45  N         36.6590   45.3590   95.2140 N.3   105  LEU105     -0.1245
     46  CA        35.9840   46.1510   94.1850 C.3   105  LEU105      0.1561
     47  C         34.8900   45.3800   93.4340 C.2   105  LEU105      0.2260
     48  O         33.8360   45.9550   93.1670 O.2   105  LEU105     -0.2867
     49  CB        37.0080   46.7590   93.2030 C.3   105  LEU105      0.0270
     50  CG        36.5060   47.8920   92.2900 C.3   105  LEU105      0.0019
     51  CD1       36.0550   49.1130   93.1050 C.3   105  LEU105      0.0001
     52  CD2       37.5850   48.3160   91.3160 C.3   105  LEU105      0.0001
     53  N         31.3490   47.0720   93.3010 N.3   109  VAL109     -0.1231
     54  CA        31.0060   47.7150   92.0320 C.3   109  VAL109      0.1692
     55  C         30.7540   46.6340   90.9910 C.2   109  VAL109      0.2592
     56  O         31.7050   46.0970   90.4170 O.2   109  VAL109     -0.2718
     57  CB        32.1220   48.7130   91.5700 C.3   109  VAL109      0.0266
     58  CG1       31.7390   49.3870   90.2540 C.3   109  VAL109      0.0020
     59  CG2       32.4170   49.7670   92.6410 C.3   109  VAL109      0.0020
     60  N         29.4710   46.3070   90.7540 N.am  110  ASN110     -0.1960
     61  CA        29.1010   45.2510   89.8070 C.3   110  ASN110      0.1819
     62  C         27.7190   45.5500   89.2040 C.2   110  ASN110      0.2621
     63  O         27.0640   46.5060   89.6320 O.2   110  ASN110     -0.2715
     64  CB        29.1140   43.8700   90.5460 C.3   110  ASN110      0.1195
     65  CG        28.2990   43.9000   91.8200 C.2   110  ASN110      0.2630
     66  OD1       27.1000   44.1780   91.8020 O.2   110  ASN110     -0.2716
     67  ND2       28.9380   43.7010   92.9660 N.am  110  ASN110     -0.0877
     68  N         27.2780   44.7410   88.2210 N.am  111  HIS111     -0.1973
     69  CA        25.9570   44.9050   87.6040 C.3   111  HIS111      0.1656
     70  C         24.8640   44.2260   88.4180 C.2   111  HIS111      0.2291
     71  O         23.6840   44.5010   88.1880 O.2   111  HIS111     -0.2864
     72  CB        25.9300   44.3520   86.1710 C.3   111  HIS111      0.0771
     73  CG        26.8050   45.0920   85.2130 C.ar  111  HIS111      0.0820
     74  ND1       26.7210   46.4630   85.0710 N.ar  111  HIS111     -0.2267
     75  CD2       27.7410   44.6200   84.3610 C.ar  111  HIS111      0.1154
     76  CE1       27.6140   46.7850   84.1480 C.ar  111  HIS111      0.1986
     77  NE2       28.2540   45.7100   83.6970 N.ar  111  HIS111     -0.2212
     78  N         38.1310   42.8660   86.3280 N.3   125  TYR125     -0.1241
     79  CA        39.0880   43.7650   86.9930 C.3   125  TYR125      0.1605
     80  C         40.4720   43.1290   87.0870 C.2   125  TYR125      0.2264
     81  O         41.4760   43.8120   86.8780 O.2   125  TYR125     -0.2867
     82  CB        38.6200   44.1710   88.4130 C.3   125  TYR125      0.0534
     83  CG        37.3010   44.9090   88.4810 C.ar  125  TYR125     -0.0201
     84  CD1       36.8870   45.7390   87.4420 C.ar  125  TYR125     -0.0009
     85  CD2       36.5010   44.8390   89.6170 C.ar  125  TYR125     -0.0009
     86  CE1       35.6860   46.4410   87.5140 C.ar  125  TYR125      0.0417
     87  CE2       35.3120   45.5570   89.7110 C.ar  125  TYR125      0.0417
     88  CZ        34.9010   46.3460   88.6520 C.ar  125  TYR125      0.1957
     89  OH        33.7230   47.0420   88.7370 O.3   125  TYR125     -0.2866
     90  N         42.5910   43.2040   83.8340 N.3   128  SER128     -0.1202
     91  CA        43.1420   44.5240   83.5510 C.3   128  SER128      0.2020
     92  C         44.5490   44.7390   84.1220 C.2   128  SER128      0.2618
     93  O         45.2950   45.5330   83.5790 O.2   128  SER128     -0.2717
     94  CB        42.1860   45.6300   83.9930 C.3   128  SER128      0.2103
     95  OG        42.2210   45.8920   85.3830 O.3   128  SER128     -0.2182
     96  N         44.9150   44.0180   85.1920 N.am  129  VAL129     -0.1979
     97  CA        46.2160   44.1750   85.8540 C.3   129  VAL129      0.1595
     98  C         47.0440   42.8750   85.8890 C.2   129  VAL129      0.2287
     99  O         48.1580   42.8860   86.4020 O.2   129  VAL129     -0.2864
    100  CB        46.0600   44.7980   87.2700 C.3   129  VAL129      0.0276
    101  CG1       45.5200   46.2270   87.1750 C.3   129  VAL129      0.0022
    102  CG2       45.1850   43.9310   88.1890 C.3   129  VAL129      0.0022
    103  N         50.8070   42.8650   84.9520 N.3   132  LEU132     -0.1245
    104  CA        51.7380   43.6730   85.7610 C.3   132  LEU132      0.1561
    105  C         52.9440   42.8670   86.2970 C.2   132  LEU132      0.2260
    106  O         54.0640   43.2980   86.0260 O.2   132  LEU132     -0.2867
    107  CB        51.0340   44.4550   86.8870 C.3   132  LEU132      0.0270
    108  CG        50.3850   45.7680   86.4430 C.3   132  LEU132      0.0019
    109  CD1       49.6140   46.4040   87.5890 C.3   132  LEU132      0.0001
    110  CD2       51.4310   46.7630   85.8990 C.3   132  LEU132      0.0001
    111  N         29.8690   49.2850   80.7070 N.3   178  LEU178     -0.1231
    112  CA        30.8890   50.2110   81.2190 C.3   178  LEU178      0.1693
    113  C         31.9730   49.5540   82.0910 C.2   178  LEU178      0.2591
    114  O         33.1070   50.0250   82.0610 O.2   178  LEU178     -0.2718
    115  CB        30.2720   51.4330   81.9290 C.3   178  LEU178      0.0284
    116  CG        29.6070   52.4560   80.9810 C.3   178  LEU178      0.0019
    117  CD1       28.7980   53.4830   81.7490 C.3   178  LEU178      0.0001
    118  CD2       30.6380   53.1690   80.0940 C.3   178  LEU178      0.0001
    119  N         31.6580   48.4500   82.8020 N.am  179  ILE179     -0.1980
    120  CA        32.6400   47.7140   83.6080 C.3   179  ILE179      0.1595
    121  C         33.7110   47.0990   82.6910 C.2   179  ILE179      0.2287
    122  O         34.8970   47.3370   82.9010 O.2   179  ILE179     -0.2864
    123  CB        31.9660   46.6880   84.5650 C.3   179  ILE179      0.0276
    124  CG1       31.1600   47.4400   85.6670 C.3   179  ILE179      0.0022
    125  CG2       32.9920   45.7110   85.1740 C.3   179  ILE179      0.0022
    126  CD1       30.3710   46.5830   86.6420 C.3   179  ILE179      0.0001
    127  N         35.7740   50.2420   80.8340 N.3   182  VAL182     -0.1231
    128  CA        36.7250   50.9200   81.7230 C.3   182  VAL182      0.1692
    129  C         37.8910   49.9850   82.0390 C.2   182  VAL182      0.2591
    130  O         39.0510   50.3720   81.8750 O.2   182  VAL182     -0.2718
    131  CB        36.0470   51.5330   82.9840 C.3   182  VAL182      0.0266
    132  CG1       37.0880   52.0530   83.9800 C.3   182  VAL182      0.0020
    133  CG2       35.0870   52.6620   82.5860 C.3   182  VAL182      0.0020
    134  N         37.5830   48.7350   82.4020 N.am  183  ALA183     -0.1980
    135  CA        38.6370   47.7670   82.7020 C.3   183  ALA183      0.1597
    136  C         39.4700   47.4480   81.4640 C.2   183  ALA183      0.2287
    137  O         40.6860   47.3280   81.5860 O.2   183  ALA183     -0.2864
    138  CB        38.0560   46.5140   83.3250 C.3   183  ALA183      0.0319
    139  N         41.9000   50.3410   80.9880 N.3   186  VAL186     -0.1245
    140  CA        42.9810   50.1490   81.9680 C.3   186  VAL186      0.1561
    141  C         43.9670   49.0780   81.4500 C.2   186  VAL186      0.2260
    142  O         45.1850   49.3050   81.4490 O.2   186  VAL186     -0.2867
    143  CB        42.4530   49.8300   83.3980 C.3   186  VAL186      0.0252
    144  CG1       43.5860   49.3810   84.3390 C.3   186  VAL186      0.0019
    145  CG2       41.7060   51.0220   83.9890 C.3   186  VAL186      0.0019
@<TRIPOS>BOND
     1   118   116    1
     2   111   112    1
     3   127   128    1
     4   116   117    1
     5   116   115    1
     6   139   140    1
     7   112   115    1
     8   112   113    1
     9   142   141    2
    10   141   140    1
    11   136   137    2
    12   136   135    1
    13   128   129    1
    14   128   131    1
    15   130   129    2
    16   140   143    1
    17   129   134   am
    18   114   113    2
    19   113   119   am
    20   134   135    1
    21   133   131    1
    22   121   122    2
    23   121   120    1
    24   135   138    1
    25   119   120    1
    26   131   132    1
    27   143   145    1
    28   143   144    1
    29    91    90    1
    30    91    94    1
    31    91    92    1
    32    93    92    2
    33   120   123    1
    34    77    76   ar
    35    77    75   ar
    36    94    95    1
    37    92    96   am
    38    76    74   ar
    39    75    73   ar
    40   123   125    1
    41   123   124    1
    42   103   104    1
    43    74    73   ar
    44    96    97    1
    45    73    72    1
    46   124   126    1
    47   104   105    1
    48   104   107    1
    49    97    98    1
    50    97   100    1
    51    98    99    2
    52   110   108    1
    53   106   105    2
    54    72    69    1
    55    78    79    1
    56   108   107    1
    57   108   109    1
    58    81    80    2
    59    79    80    1
    60    79    82    1
    61   101   100    1
    62   100   102    1
    63    84    86   ar
    64    84    83   ar
    65    86    88   ar
    66    69    68    1
    67    69    70    1
    68    71    70    2
    69    68    62   am
    70    82    83    1
    71    83    85   ar
    72    88    89    1
    73    88    87   ar
    74    62    63    2
    75    62    61    1
    76    85    87   ar
    77    61    64    1
    78    61    60    1
    79    29    28    1
    80    58    57    1
    81    10     8   ar
    82    10    11   ar
    83    56    55    2
    84     8     6   ar
    85    64    65    1
    86    60    55   am
    87    11     9   ar
    88    30    28    1
    89    43    42    1
    90    55    54    1
    91    44    42    1
    92     6     5    1
    93     6     7   ar
    94     5     2    1
    95    28    27    1
    96    52    50    1
    97     9     7   ar
    98    57    54    1
    99    57    59    1
   100    66    65    2
   101    27    24    1
   102    65    67   am
   103    42    39    1
   104    54    53    1
   105     1     2    1
   106    50    51    1
   107    50    49    1
   108     2     3    1
   109    39    40    1
   110    39    38    1
   111    41    40    2
   112    24    25    1
   113    24    23    1
   114    48    47    2
   115    49    46    1
   116    26    25    2
   117    47    46    1
   118     3     4    2
   119    38    33   am
   120    46    45    1
   121    23    14   am
   122    15    14    2
   123    14    13    1
   124    33    34    2
   125    33    32    1
   126    35    32    1
   127    35    36    1
   128    16    13    1
   129    16    17    1
   130    13    12    1
   131    32    31    1
   132    36    37    1
   133    37    31    1
   134    17    19   ar
   135    17    18   ar
   136    19    21   ar
   137    18    20   ar
   138    21    22   ar
   139    20    22   ar
