@<TRIPOS>MOLECULE
tmp/6i6hA03.pdb
 102 96 0 0 0
SMALL
GASTEIGER

@<TRIPOS>ATOM
      1  N         39.2340   38.9090   65.4070 N.3     7  THR7       -0.1218
      2  CA        40.6790   39.1780   65.3260 C.3     7  THR7        0.1862
      3  C         41.2430   39.2850   66.7470 C.2     7  THR7        0.2287
      4  O         42.3110   38.7230   67.0210 O.2     7  THR7       -0.2866
      5  CB        40.9640   40.4180   64.4550 C.3     7  THR7        0.1770
      6  OG1       40.2640   40.2900   63.2100 O.3     7  THR7       -0.2211
      7  CG2       42.4470   40.5980   64.1670 C.3     7  THR7        0.0375
      8  N         41.4540   35.7300   68.1260 N.3    10  LEU10      -0.1231
      9  CA        42.5220   35.0200   67.4180 C.3    10  LEU10       0.1693
     10  C         43.8980   35.5120   67.8900 C.2    10  LEU10       0.2592
     11  O         44.7950   34.7040   68.0620 O.2    10  LEU10      -0.2718
     12  CB        42.3720   35.1410   65.8860 C.3    10  LEU10       0.0284
     13  CG        41.1070   34.5010   65.2240 C.3    10  LEU10       0.0019
     14  CD1       41.1610   34.6240   63.7130 C.3    10  LEU10       0.0001
     15  CD2       40.9250   33.0190   65.6110 C.3    10  LEU10       0.0001
     16  N         44.0340   36.8190   68.1650 N.am   11  SER11      -0.1952
     17  CA        45.2590   37.4200   68.6860 C.3    11  SER11       0.1924
     18  C         45.5750   36.8810   70.0850 C.2    11  SER11       0.2314
     19  O         46.7340   36.6290   70.3770 O.2    11  SER11      -0.2863
     20  CB        45.1350   38.9410   68.7440 C.3    11  SER11       0.2116
     21  OG        46.3920   39.5080   69.0740 O.3    11  SER11      -0.2180
     22  N         46.6660   33.3150   69.7990 N.3    14  ALA14      -0.1245
     23  CA        48.0460   33.3590   69.2870 C.3    14  ALA14       0.1562
     24  C         49.0510   33.5510   70.4310 C.2    14  ALA14       0.2260
     25  O         49.9750   32.7520   70.5530 O.2    14  ALA14      -0.2867
     26  CB        48.2050   34.4750   68.2630 C.3    14  ALA14       0.0290
     27  N         51.9470   30.9400   71.5410 N.3    18  ILE18      -0.1245
     28  CA        53.3380   31.4080   71.4280 C.3    18  ILE18       0.1561
     29  C         54.0740   31.1130   72.7500 C.2    18  ILE18       0.2260
     30  O         55.1340   30.4910   72.7240 O.2    18  ILE18      -0.2867
     31  CB        53.4470   32.9210   71.0540 C.3    18  ILE18       0.0252
     32  CG1       52.9380   33.1890   69.6330 C.3    18  ILE18       0.0019
     33  CG2       54.9020   33.4390   71.2240 C.3    18  ILE18       0.0019
     34  CD1       52.6950   34.6480   69.3220 C.3    18  ILE18       0.0001
     35  N         60.8480   36.3700   71.3540 N.3   147  ILE147     -0.1245
     36  CA        59.6080   35.5740   71.4020 C.3   147  ILE147      0.1561
     37  C         58.6940   36.0590   72.5400 C.2   147  ILE147      0.2260
     38  O         57.4730   36.1300   72.3520 O.2   147  ILE147     -0.2867
     39  CB        59.8580   34.0360   71.4290 C.3   147  ILE147      0.0252
     40  CG1       60.8170   33.5650   70.2950 C.3   147  ILE147      0.0019
     41  CG2       58.5430   33.2410   71.4010 C.3   147  ILE147      0.0019
     42  CD1       60.4140   33.9240   68.7870 C.3   147  ILE147      0.0001
     43  N         56.8770   39.1520   71.3370 N.3   150  HIS150     -0.1241
     44  CA        55.7930   38.8090   70.4100 C.3   150  HIS150      0.1621
     45  C         54.5600   38.3480   71.1980 C.2   150  HIS150      0.2264
     46  O         53.4560   38.7730   70.8810 O.2   150  HIS150     -0.2867
     47  CB        56.2460   37.7590   69.3830 C.3   150  HIS150      0.0745
     48  CG        57.3730   38.2210   68.5110 C.ar  150  HIS150      0.0817
     49  ND1       57.4290   39.5210   68.0210 N.ar  150  HIS150     -0.2268
     50  CD2       58.4470   37.5390   68.0540 C.ar  150  HIS150      0.1154
     51  CE1       58.5410   39.5890   67.3060 C.ar  150  HIS150      0.1986
     52  NE2       59.1800   38.4190   67.2860 N.ar  150  HIS150     -0.2212
     53  N         53.0390   41.4380   72.5770 N.3   153  PHE153     -0.1227
     54  CA        52.3760   42.2000   71.5310 C.3   153  PHE153      0.1736
     55  C         50.9710   41.6540   71.2130 C.2   153  PHE153      0.2595
     56  O         50.0310   42.4490   71.1280 O.2   153  PHE153     -0.2718
     57  CB        53.2290   42.2790   70.2450 C.3   153  PHE153      0.0547
     58  CG        52.4940   42.9750   69.1190 C.ar  153  PHE153     -0.0202
     59  CD1       52.2790   44.3510   69.1510 C.ar  153  PHE153     -0.0042
     60  CD2       51.9680   42.2480   68.0550 C.ar  153  PHE153     -0.0042
     61  CE1       51.5690   44.9900   68.1260 C.ar  153  PHE153     -0.0003
     62  CE2       51.2520   42.8860   67.0350 C.ar  153  PHE153     -0.0003
     63  CZ        51.0660   44.2530   67.0720 C.ar  153  PHE153     -0.0000
     64  N         50.8330   40.3180   71.0020 N.am  154  PHE154     -0.1976
     65  CA        49.5350   39.7390   70.6490 C.3   154  PHE154      0.1639
     66  C         48.5430   39.7700   71.8100 C.2   154  PHE154      0.2290
     67  O         47.3430   39.9210   71.5810 O.2   154  PHE154     -0.2864
     68  CB        49.6810   38.3390   70.0370 C.3   154  PHE154      0.0560
     69  CG        50.3010   38.3900   68.6590 C.ar  154  PHE154     -0.0200
     70  CD1       49.6230   38.9740   67.5930 C.ar  154  PHE154     -0.0042
     71  CD2       51.5730   37.8780   68.4300 C.ar  154  PHE154     -0.0042
     72  CE1       50.2090   39.0480   66.3210 C.ar  154  PHE154     -0.0003
     73  CE2       52.1570   37.9480   67.1590 C.ar  154  PHE154     -0.0003
     74  CZ        51.4760   38.5480   66.1160 C.ar  154  PHE154     -0.0000
     75  N         47.4500   43.5570   72.0070 N.3   157  LEU157     -0.1245
     76  CA        46.5840   43.8710   70.8650 C.3   157  LEU157      0.1561
     77  C         45.1590   43.2960   71.0380 C.2   157  LEU157      0.2260
     78  O         44.2050   43.9140   70.5590 O.2   157  LEU157     -0.2867
     79  CB        47.2040   43.3470   69.5470 C.3   157  LEU157      0.0270
     80  CG        46.3990   43.6170   68.2600 C.3   157  LEU157      0.0019
     81  CD1       46.5010   45.0840   67.8270 C.3   157  LEU157      0.0001
     82  CD2       46.8200   42.6820   67.1430 C.3   157  LEU157      0.0001
     83  N         58.2450   48.2770   71.4410 N.3   198  TYR198     -0.1241
     84  CA        58.1590   47.1580   70.4960 C.3   198  TYR198      0.1605
     85  C         58.2220   47.6680   69.0320 C.2   198  TYR198      0.2264
     86  O         58.9450   47.0990   68.2150 O.2   198  TYR198     -0.2867
     87  CB        56.8710   46.3590   70.7550 C.3   198  TYR198      0.0534
     88  CG        56.6590   45.1540   69.8650 C.ar  198  TYR198     -0.0201
     89  CD1       57.2800   43.9380   70.1430 C.ar  198  TYR198     -0.0009
     90  CD2       55.7770   45.2040   68.7910 C.ar  198  TYR198     -0.0009
     91  CE1       57.0510   42.8120   69.3530 C.ar  198  TYR198      0.0417
     92  CE2       55.5530   44.0890   67.9850 C.ar  198  TYR198      0.0417
     93  CZ        56.1810   42.8920   68.2780 C.ar  198  TYR198      0.1957
     94  OH        55.9380   41.7960   67.4920 O.3   198  TYR198     -0.2866
     95  N         60.7390   45.8620   66.4380 N.3   203  LEU203     -0.1245
     96  CA        60.4520   45.7340   65.0030 C.3   203  LEU203      0.1561
     97  C         61.5870   46.3020   64.1110 C.2   203  LEU203      0.2260
     98  O         61.6140   46.0140   62.9140 O.2   203  LEU203     -0.2867
     99  CB        59.0710   46.3110   64.6240 C.3   203  LEU203      0.0270
    100  CG        57.8420   45.6410   65.2680 C.3   203  LEU203      0.0019
    101  CD1       56.5710   46.4240   64.9670 C.3   203  LEU203      0.0001
    102  CD2       57.6800   44.1800   64.8250 C.3   203  LEU203      0.0001
@<TRIPOS>BOND
     1    98    97    2
     2     6     5    1
     3    14    13    1
     4    97    96    1
     5     7     5    1
     6     5     2    1
     7    99    96    1
     8    99   100    1
     9   102   100    1
    10   101   100    1
    11    96    95    1
    12    13    15    1
    13    13    12    1
    14     2     1    1
    15     2     3    1
    16    12     9    1
    17    74    72   ar
    18    74    73   ar
    19    72    70   ar
    20     3     4    2
    21    62    63   ar
    22    62    60   ar
    23    63    61   ar
    24    82    80    1
    25    73    71   ar
    26    52    51   ar
    27    52    50   ar
    28    51    49   ar
    29     9    10    1
    30     9     8    1
    31    94    93    1
    32    70    69   ar
    33    81    80    1
    34    10    11    2
    35    10    16   am
    36    92    93   ar
    37    92    90   ar
    38    49    48   ar
    39    50    48   ar
    40    60    58   ar
    41    61    59   ar
    42    16    17    1
    43    86    85    2
    44    80    79    1
    45    26    23    1
    46    93    91   ar
    47    71    69   ar
    48    48    47    1
    49    69    68    1
    50    17    20    1
    51    17    18    1
    52    20    21    1
    53    42    40    1
    54    90    88   ar
    55    85    84    1
    56    58    59   ar
    57    58    57    1
    58    23    22    1
    59    23    24    1
    60    34    32    1
    61    91    89   ar
    62    47    44    1
    63    79    76    1
    64    32    31    1
    65    88    89   ar
    66    88    87    1
    67    68    65    1
    68    18    19    2
    69    57    54    1
    70    40    39    1
    71    44    45    1
    72    44    43    1
    73    24    25    2
    74    84    87    1
    75    84    83    1
    76    78    77    2
    77    65    64    1
    78    65    66    1
    79    76    77    1
    80    76    75    1
    81    46    45    2
    82    64    55   am
    83    31    33    1
    84    31    28    1
    85    56    55    2
    86    55    54    1
    87    35    36    1
    88    41    39    1
    89    36    39    1
    90    36    37    1
    91    28    27    1
    92    28    29    1
    93    54    53    1
    94    67    66    2
    95    38    37    2
    96    30    29    2
