@<TRIPOS>MOLECULE
tmp/6i6jB00.pdb
 143 139 0 0 0
SMALL
GASTEIGER

@<TRIPOS>ATOM
      1  N        -26.9480    1.5870   23.9370 N.3     2  VAL2       -0.1245
      2  CA       -25.8700    1.8420   24.8830 C.3     2  VAL2        0.1561
      3  C        -26.3060    2.9580   25.8170 C.2     2  VAL2        0.2260
      4  O        -26.7790    4.0070   25.3660 O.2     2  VAL2       -0.2867
      5  CB       -24.5530    2.2120   24.1740 C.3     2  VAL2        0.0252
      6  CG1      -23.6700    3.0410   25.0910 C.3     2  VAL2        0.0019
      7  CG2      -23.8250    0.9630   23.7400 C.3     2  VAL2        0.0019
      8  N        -16.7270    7.6940   32.8150 N.3    22  CYS22      -0.1235
      9  CA       -17.8620    7.4180   31.9380 C.3    22  CYS22       0.1677
     10  C        -18.0230    5.9040   31.8570 C.2    22  CYS22       0.2270
     11  O        -17.2400    5.2220   31.1890 O.2    22  CYS22      -0.2867
     12  CB       -17.6640    8.0420   30.5600 C.3    22  CYS22       0.0956
     13  SG       -19.0320    7.7380   29.4140 S.3    22  CYS22      -0.0801
     14  N        -19.9390    2.6740   30.5830 N.3    24  ALA24      -0.1231
     15  CA       -20.7510    2.2770   29.4410 C.3    24  ALA24       0.1694
     16  C        -21.4920    0.9800   29.7330 C.2    24  ALA24       0.2593
     17  O        -20.9240    0.0330   30.2860 O.2    24  ALA24      -0.2718
     18  CB       -19.8920    2.1050   28.1900 C.3    24  ALA24       0.0304
     19  N        -22.7620    0.9440   29.3410 N.am   25  SER25      -0.1938
     20  CA       -23.6190   -0.2080   29.5580 C.3    25  SER25       0.2055
     21  C        -24.4330   -0.4600   28.3010 C.2    25  SER25       0.2644
     22  O        -24.8090    0.4770   27.5930 O.2    25  SER25      -0.2714
     23  CB       -24.5480    0.0050   30.7540 C.3    25  SER25       0.2130
     24  OG       -25.7740   -0.6820   30.5670 O.3    25  SER25      -0.2179
     25  N        -24.7030   -1.7360   28.0290 N.am   26  GLY26      -0.1939
     26  CA       -25.4730   -2.1300   26.8700 C.3    26  GLY26       0.2014
     27  C        -24.7110   -3.1100   25.9960 C.2    26  GLY26       0.2639
     28  O        -23.9470   -3.9550   26.4950 O.2    26  GLY26      -0.2714
     29  N        -24.9260   -2.9950   24.6890 N.am   27  PHE27      -0.1960
     30  CA       -24.3250   -3.8990   23.7200 C.3    27  PHE27       0.1756
     31  C        -23.1680   -3.2030   23.0260 C.2    27  PHE27       0.2461
     32  O        -23.3670   -2.1230   22.4470 O.2    27  PHE27      -0.2730
     33  CB       -25.3620   -4.3560   22.7020 C.3    27  PHE27       0.0574
     34  CG       -26.6200   -4.8810   23.3280 C.ar   27  PHE27      -0.0200
     35  CD1      -26.6880   -6.1890   23.7800 C.ar   27  PHE27      -0.0042
     36  CD2      -27.7290   -4.0640   23.4820 C.ar   27  PHE27      -0.0042
     37  CE1      -27.8410   -6.6750   24.3650 C.ar   27  PHE27      -0.0003
     38  CE2      -28.8840   -4.5460   24.0700 C.ar   27  PHE27      -0.0003
     39  CZ       -28.9410   -5.8540   24.5090 C.ar   27  PHE27      -0.0000
     40  N        -21.9690   -3.7720   23.0400 N.am   28  PRO28      -0.2716
     41  CA       -20.7970   -3.0640   22.5210 C.3    28  PRO28       0.1536
     42  C        -20.6440   -3.2220   21.0120 C.2    28  PRO28       0.2598
     43  O        -21.2610   -4.0700   20.3690 O.2    28  PRO28      -0.2715
     44  CB       -19.6410   -3.7420   23.2590 C.3    28  PRO28       0.0310
     45  CG       -20.1110   -5.1570   23.4040 C.3    28  PRO28       0.0237
     46  CD       -21.6140   -5.0910   23.5920 C.3    28  PRO28       0.0939
     47  N        -19.7920   -2.3680   20.4530 N.am   29  VAL29      -0.1978
     48  CA       -19.3370   -2.4880   19.0770 C.3    29  VAL29       0.1596
     49  C        -17.8180   -2.6030   19.0960 C.2    29  VAL29       0.2287
     50  O        -17.1530   -2.2370   20.0680 O.2    29  VAL29      -0.2864
     51  CB       -19.7880   -1.3070   18.1950 C.3    29  VAL29       0.0276
     52  CG1      -21.2280   -1.5070   17.7270 C.3    29  VAL29       0.0022
     53  CG2      -19.6350    0.0030   18.9530 C.3    29  VAL29       0.0022
     54  N        -14.9010    1.9460   18.4640 N.3    32  TRP32      -0.1241
     55  CA       -15.6370    3.1250   18.8890 C.3    32  TRP32       0.1605
     56  C        -14.6630    4.2400   19.2380 C.2    32  TRP32       0.2264
     57  O        -13.4460    4.0450   19.3030 O.2    32  TRP32      -0.2867
     58  CB       -16.5620    2.8200   20.0810 C.3    32  TRP32       0.0550
     59  CG       -15.8930    2.0640   21.2050 C.ar   32  TRP32       0.0003
     60  CD1      -15.9600    0.7210   21.4450 C.ar   32  TRP32       0.0946
     61  CD2      -15.0680    2.6150   22.2410 C.ar   32  TRP32       0.0152
     62  NE1      -15.2260    0.4050   22.5580 N.ar   32  TRP32      -0.2442
     63  CE2      -14.6690    1.5480   23.0670 C.ar   32  TRP32       0.0810
     64  CE3      -14.6260    3.9070   22.5440 C.ar   32  TRP32       0.0012
     65  CZ2      -13.8400    1.7300   24.1790 C.ar   32  TRP32       0.0191
     66  CZ3      -13.8080    4.0900   23.6470 C.ar   32  TRP32       0.0001
     67  CH2      -13.4200    3.0050   24.4500 C.ar   32  TRP32       0.0015
     68  N        -14.6340    7.7670   22.0590 N.3    34  MET34      -0.1245
     69  CA       -15.3070    8.4120   23.1720 C.3    34  MET34       0.1570
     70  C        -14.7410    9.8070   23.3550 C.2    34  MET34       0.2261
     71  O        -13.5190    9.9840   23.3950 O.2    34  MET34      -0.2867
     72  CB       -15.1580    7.6100   24.4590 C.3    34  MET34       0.0387
     73  CG       -15.9390    8.2100   25.5950 C.3    34  MET34       0.0595
     74  SD       -14.9310    8.3260   27.0590 S.3    34  MET34      -0.1393
     75  CE       -13.8970    9.7100   26.6020 C.3    34  MET34       0.0692
     76  N         -8.2090    4.8950   29.2900 N.3    72  ARG72      -0.1231
     77  CA        -9.1450    3.8130   29.0360 C.3    72  ARG72       0.1694
     78  C         -9.0210    2.7320   30.1060 C.2    72  ARG72       0.2592
     79  O         -7.9940    2.6020   30.7730 O.2    72  ARG72      -0.2718
     80  CB        -8.8930    3.2200   27.6460 C.3    72  ARG72       0.0321
     81  CG       -10.0150    2.3820   27.0800 C.3    72  ARG72       0.0489
     82  CD        -9.5950    1.7420   25.7620 C.3    72  ARG72       0.2205
     83  NE        -8.9480    2.6980   24.8650 N.pl3  72  ARG72      -0.0865
     84  CZ        -7.6760    2.6360   24.4830 C.cat  72  ARG72       0.5346
     85  NH1       -7.1790    3.5530   23.6660 N.pl3  72  ARG72       0.1354
     86  NH2       -6.9020    1.6570   24.9070 N.pl3  72  ARG72       0.1354
     87  N        -10.1000    1.9630   30.2700 N.am   73  ASP73      -0.1960
     88  CA       -10.0850    0.7650   31.1160 C.3    73  ASP73       0.1840
     89  C        -11.1850   -0.1570   30.5780 C.2    73  ASP73       0.2622
     90  O        -12.3320   -0.0900   31.0240 O.2    73  ASP73      -0.2715
     91  CB       -10.2990    1.0940   32.5840 C.3    73  ASP73       0.1450
     92  CG        -9.9790   -0.0830   33.5090 C.2    73  ASP73       0.3671
     93  OD1      -10.4350   -1.2160   33.2310 O.co2  73  ASP73      -0.2456
     94  OD2       -9.2770    0.1280   34.5250 O.co2  73  ASP73      -0.2456
     95  N        -10.8170   -1.0090   29.6150 N.am   74  ASN74      -0.1972
     96  CA       -11.7880   -1.9140   29.0080 C.3    74  ASN74       0.1688
     97  C        -12.2610   -3.0000   29.9660 C.2    74  ASN74       0.2292
     98  O        -13.3430   -3.5600   29.7600 O.2    74  ASN74      -0.2864
     99  CB       -11.2000   -2.5600   27.7520 C.3    74  ASN74       0.1181
    100  CG       -11.0690   -1.5840   26.6050 C.2    74  ASN74       0.2629
    101  OD1      -10.0230   -1.5060   25.9600 O.2    74  ASN74      -0.2716
    102  ND2      -12.1290   -0.8270   26.3470 N.am   74  ASN74      -0.0877
    103  N        -15.4200   -1.3020   31.2920 N.3    77  ASN77      -0.1225
    104  CA       -16.2500   -0.5110   30.3810 C.3    77  ASN77       0.1785
    105  C        -16.2710    0.9640   30.7840 C.2    77  ASN77       0.2598
    106  O        -17.3170    1.6160   30.7970 O.2    77  ASN77      -0.2718
    107  CB       -17.6690   -1.0760   30.3080 C.3    77  ASN77       0.1169
    108  CG       -17.6920   -2.5230   29.8920 C.2    77  ASN77       0.2627
    109  OD1      -17.0280   -2.9130   28.9340 O.2    77  ASN77      -0.2716
    110  ND2      -18.4620   -3.3330   30.6080 N.am   77  ASN77      -0.0877
    111  N        -15.0920    1.4990   31.0960 N.am   78  THR78      -0.1939
    112  CA       -14.9840    2.8260   31.6830 C.3    78  THR78       0.2028
    113  C        -13.8740    3.6150   31.0050 C.2    78  THR78       0.2642
    114  O        -12.8200    3.0630   30.6790 O.2    78  THR78      -0.2714
    115  CB       -14.7090    2.7330   33.1930 C.3    78  THR78       0.1808
    116  OG1      -15.7160    1.9240   33.8100 O.3    78  THR78      -0.2208
    117  CG2      -14.7130    4.1110   33.8330 C.3    78  THR78       0.0379
    118  N        -14.1180    4.9080   30.7970 N.am   79  VAL79      -0.1977
    119  CA       -13.0910    5.8480   30.3640 C.3    79  VAL79       0.1596
    120  C        -13.0440    6.9850   31.3760 C.2    79  VAL79       0.2287
    121  O        -14.0900    7.4700   31.8200 O.2    79  VAL79      -0.2864
    122  CB       -13.3590    6.3840   28.9450 C.3    79  VAL79       0.0276
    123  CG1      -12.3260    7.4320   28.5620 C.3    79  VAL79       0.0022
    124  CG2      -13.3550    5.2430   27.9370 C.3    79  VAL79       0.0022
    125  N        -20.1320    8.4620   23.1940 N.3    98  VAL98      -0.1245
    126  CA       -19.5330    7.3230   22.5080 C.3    98  VAL98       0.1561
    127  C        -20.1440    7.2290   21.1180 C.2    98  VAL98       0.2260
    128  O        -21.3680    7.3180   20.9610 O.2    98  VAL98      -0.2867
    129  CB       -19.7300    6.0110   23.2880 C.3    98  VAL98       0.0252
    130  CG1      -19.1070    4.8480   22.5300 C.3    98  VAL98       0.0019
    131  CG2      -19.1110    6.1200   24.6620 C.3    98  VAL98       0.0019
    132  N        -25.5950    5.3130   15.9300 N.3   108  TYR108     -0.1241
    133  CA       -24.9580    4.7240   17.1070 C.3   108  TYR108      0.1605
    134  C        -24.0850    5.8030   17.7440 C.2   108  TYR108      0.2264
    135  O        -22.8580    5.8230   17.6260 O.2   108  TYR108     -0.2867
    136  CB       -24.1570    3.4890   16.7290 C.3   108  TYR108      0.0534
    137  CG       -23.7390    2.6120   17.8940 C.ar  108  TYR108     -0.0201
    138  CD1      -22.7510    3.0210   18.7840 C.ar  108  TYR108     -0.0009
    139  CD2      -24.3100    1.3610   18.0830 C.ar  108  TYR108     -0.0009
    140  CE1      -22.3570    2.2190   19.8310 C.ar  108  TYR108      0.0417
    141  CE2      -23.9220    0.5510   19.1270 C.ar  108  TYR108      0.0417
    142  CZ       -22.9460    0.9820   19.9980 C.ar  108  TYR108      0.1957
    143  OH       -22.5570    0.1700   21.0390 O.3   108  TYR108     -0.2866
@<TRIPOS>BOND
     1   132   133    1
     2   136   133    1
     3   136   137    1
     4   133   134    1
     5   135   134    2
     6    52    51    1
     7   137   139   ar
     8   137   138   ar
     9   139   141   ar
    10    51    53    1
    11    51    48    1
    12    54    55    1
    13   138   140   ar
    14    55    56    1
    15    55    58    1
    16    48    49    1
    17    48    47    1
    18    49    50    2
    19   141   142   ar
    20    56    57    2
    21   140   142   ar
    22   142   143    1
    23    58    59    1
    24    43    42    2
    25    47    42   am
    26   128   127    2
    27    42    41    1
    28   127   126    1
    29    59    60   ar
    30    59    61   ar
    31    60    62   ar
    32    68    69    1
    33    61    64   ar
    34    61    63   ar
    35    32    31    2
    36   126   125    1
    37   126   129    1
    38    41    40    1
    39    41    44    1
    40   130   129    1
    41    64    66   ar
    42    62    63   ar
    43    33    34    1
    44    33    30    1
    45    31    40   am
    46    31    30    1
    47    40    46    1
    48    63    65   ar
    49    69    70    1
    50    69    72    1
    51    44    45    1
    52   129   131    1
    53    34    36   ar
    54    34    35   ar
    55    70    71    2
    56    45    46    1
    57    36    38   ar
    58    66    67   ar
    59    85    84    1
    60    30    29    1
    61     7     5    1
    62    35    37   ar
    63     1     2    1
    64    38    39   ar
    65     5     2    1
    66     5     6    1
    67    65    67   ar
    68    37    39   ar
    69    72    73    1
    70    84    83    2
    71    84    86    1
    72    29    27   am
    73    83    82    1
    74     2     3    1
    75     4     3    2
    76    73    74    1
    77    82    81    1
    78   101   100    2
    79    27    28    2
    80    27    26    1
    81   102   100   am
    82    75    74    1
    83   100    99    1
    84    26    25    1
    85    81    80    1
    86    22    21    2
    87    80    77    1
    88    99    96    1
    89   124   122    1
    90    25    21   am
    91    18    15    1
    92    21    20    1
    93   123   122    1
    94   109   108    2
    95   122   119    1
    96    96    95    1
    97    96    97    1
    98    77    76    1
    99    77    78    1
   100    19    20    1
   101    19    16   am
   102    13    12    1
   103    15    16    1
   104    15    14    1
   105    20    23    1
   106    95    89   am
   107    16    17    2
   108    98    97    2
   109   108   107    1
   110   108   110   am
   111    78    87   am
   112    78    79    2
   113    87    88    1
   114   107   104    1
   115   119   118    1
   116   119   120    1
   117   104   105    1
   118   104   103    1
   119    12     9    1
   120    24    23    1
   121    89    90    2
   122    89    88    1
   123   114   113    2
   124   105   106    2
   125   105   111   am
   126   118   113   am
   127   113   112    1
   128   111   112    1
   129    88    91    1
   130    11    10    2
   131   120   121    2
   132   112   115    1
   133    10     9    1
   134     9     8    1
   135    91    92    1
   136   115   116    1
   137   115   117    1
   138    93    92   ar
   139    92    94   ar
