@<TRIPOS>MOLECULE
tmp/6i6rA03.pdb
 106 101 0 0 0
SMALL
GASTEIGER

@<TRIPOS>ATOM
      1  N          5.2080  -17.2550   -6.8330 N.3    27  CYS27      -0.1235
      2  CA         5.8190  -16.6500   -8.0010 C.3    27  CYS27       0.1677
      3  C          5.0590  -17.1380   -9.2180 C.2    27  CYS27       0.2270
      4  O          4.9560  -18.3390   -9.4170 O.2    27  CYS27      -0.2867
      5  CB         7.2710  -17.1100   -8.1240 C.3    27  CYS27       0.0956
      6  SG         8.1180  -16.4260   -9.5670 S.3    27  CYS27      -0.0801
      7  N          5.4140  -12.3210   -6.3300 N.3    58  HIS58      -0.1241
      8  CA         6.4850  -11.9010   -7.2610 C.3    58  HIS58       0.1621
      9  C          5.9130  -11.2950   -8.5450 C.2    58  HIS58       0.2264
     10  O          4.7980  -11.6000   -8.9430 O.2    58  HIS58      -0.2867
     11  CB         7.3480  -13.0850   -7.7000 C.3    58  HIS58       0.0745
     12  CG         8.1620  -13.7110   -6.6120 C.ar   58  HIS58       0.0817
     13  ND1        8.0050  -13.4000   -5.2820 N.ar   58  HIS58      -0.2268
     14  CD2        9.1310  -14.6600   -6.6650 C.ar   58  HIS58       0.1154
     15  CE1        8.8450  -14.1240   -4.5600 C.ar   58  HIS58       0.1986
     16  NE2        9.5430  -14.8950   -5.3760 N.ar   58  HIS58      -0.2212
     17  N         12.6580   -9.5630   -5.0330 N.3   143  ASN143     -0.1225
     18  CA        12.9470  -10.8210   -4.3600 C.3   143  ASN143      0.1785
     19  C         14.3920  -11.2890   -4.5220 C.2   143  ASN143      0.2597
     20  O         14.9610  -11.2420   -5.6240 O.2   143  ASN143     -0.2718
     21  CB        12.0280  -11.9210   -4.8920 C.3   143  ASN143      0.1169
     22  CG        12.1070  -13.1940   -4.0690 C.2   143  ASN143      0.2627
     23  OD1       11.7330  -13.2020   -2.8950 O.2   143  ASN143     -0.2716
     24  ND2       12.5820  -14.2760   -4.6790 N.am  143  ASN143     -0.0877
     25  N         14.9600  -11.7440   -3.4050 N.am  144  GLU144     -0.1979
     26  CA        16.2860  -12.3510   -3.3380 C.3   144  GLU144      0.1602
     27  C         17.3080  -11.7580   -4.3050 C.2   144  GLU144      0.2287
     28  O         17.7810  -12.4260   -5.2130 O.2   144  GLU144     -0.2864
     29  CB        16.1580  -13.8590   -3.5300 C.3   144  GLU144      0.0415
     30  CG        15.3340  -14.5080   -2.4270 C.3   144  GLU144      0.1163
     31  CD        15.2800  -16.0180   -2.5180 C.2   144  GLU144      0.3649
     32  OE1       15.6330  -16.5770   -3.5790 O.co2 144  GLU144     -0.2457
     33  OE2       14.8770  -16.6430   -1.5080 O.co2 144  GLU144     -0.2457
     34  N         15.3110  -21.3100    5.2150 N.3   226  LYS226     -0.1245
     35  CA        14.5760  -22.5640    5.1080 C.3   226  LYS226      0.1561
     36  C         15.2360  -23.6620    5.9440 C.2   226  LYS226      0.2260
     37  O         16.3760  -23.5210    6.3960 O.2   226  LYS226     -0.2867
     38  CB        14.4860  -22.9450    3.6300 C.3   226  LYS226      0.0271
     39  CG        13.5540  -22.0070    2.8620 C.3   226  LYS226      0.0035
     40  CD        13.9960  -21.7510    1.4350 C.3   226  LYS226      0.0206
     41  CE        13.2320  -20.5890    0.8140 C.3   226  LYS226      0.1093
     42  NZ        11.8460  -20.9700    0.4350 N.3   226  LYS226     -0.1314
     43  N         10.1160  -16.2420    3.6800 N.3   261  GLU261     -0.1245
     44  CA        10.1460  -17.5360    2.9830 C.3   261  GLU261      0.1567
     45  C         10.7060  -18.5900    3.9440 C.2   261  GLU261      0.2260
     46  O         11.8600  -18.9600    3.8450 O.2   261  GLU261     -0.2867
     47  CB        10.9830  -17.4480    1.6830 C.3   261  GLU261      0.0388
     48  CG        10.1720  -17.5180    0.4040 C.3   261  GLU261      0.1160
     49  CD        10.9730  -17.2260   -0.8650 C.2   261  GLU261      0.3649
     50  OE1       11.7290  -18.1220   -1.3850 O.co2 261  GLU261     -0.2457
     51  OE2       10.7970  -16.0990   -1.4020 O.co2 261  GLU261     -0.2457
     52  N         13.6670  -25.8480    0.6290 N.3   266  VAL266     -0.1231
     53  CA        13.7910  -25.1160   -0.6290 C.3   266  VAL266      0.1692
     54  C         13.3210  -25.9670   -1.8090 C.2   266  VAL266      0.2593
     55  O         13.5640  -27.1790   -1.8580 O.2   266  VAL266     -0.2718
     56  CB        15.2620  -24.6690   -0.8790 C.3   266  VAL266      0.0266
     57  CG1       16.1560  -25.8530   -1.2340 C.3   266  VAL266      0.0020
     58  CG2       15.3390  -23.6300   -1.9690 C.3   266  VAL266      0.0020
     59  N         12.6380  -25.3240   -2.7530 N.am  267  GLY267     -0.1942
     60  CA        12.2550  -25.9440   -4.0220 C.3   267  GLY267      0.2014
     61  C         10.8330  -26.4230   -3.9850 C.2   267  GLY267      0.2638
     62  O         10.5670  -27.6070   -3.7340 O.2   267  GLY267     -0.2714
     63  N          9.9040  -25.5070   -4.2580 N.am  268  TRP268     -0.1973
     64  CA         8.4770  -25.7820   -4.0590 C.3   268  TRP268      0.1640
     65  C          7.9380  -26.9090   -4.9410 C.2   268  TRP268      0.2290
     66  O          7.0360  -27.6420   -4.5310 O.2   268  TRP268     -0.2864
     67  CB         7.6490  -24.5120   -4.2860 C.3   268  TRP268      0.0576
     68  CG         7.4300  -24.1630   -5.7100 C.ar  268  TRP268      0.0006
     69  CD1        8.2140  -23.3500   -6.4910 C.ar  268  TRP268      0.0946
     70  CD2        6.3570  -24.6150   -6.5510 C.ar  268  TRP268      0.0152
     71  NE1        7.6840  -23.2640   -7.7600 N.ar  268  TRP268     -0.2442
     72  CE2        6.5500  -24.0280   -7.8280 C.ar  268  TRP268      0.0810
     73  CE3        5.2540  -25.4510   -6.3490 C.ar  268  TRP268      0.0012
     74  CZ2        5.6920  -24.2570   -8.8960 C.ar  268  TRP268      0.0191
     75  CZ3        4.3810  -25.6730   -7.4220 C.ar  268  TRP268      0.0001
     76  CH2        4.6120  -25.0750   -8.6760 C.ar  268  TRP268      0.0015
     77  N          5.8650  -20.0410    2.0950 N.3   307  ASP307     -0.1239
     78  CA         5.7300  -19.6510    0.6930 C.3   307  ASP307      0.1674
     79  C          5.0510  -20.7640   -0.1100 C.2   307  ASP307      0.2266
     80  O          5.6720  -21.4290   -0.9400 O.2   307  ASP307     -0.2867
     81  CB         7.0980  -19.2690    0.1100 C.3   307  ASP307      0.1410
     82  CG         6.9930  -18.2960   -1.0520 C.2   307  ASP307      0.3668
     83  OD1        6.2820  -17.2780   -0.9430 O.co2 307  ASP307     -0.2456
     84  OD2        7.6360  -18.5360   -2.0940 O.co2 307  ASP307     -0.2456
     85  N          1.5680  -21.4370   -4.3630 N.3   310  PHE310     -0.1241
     86  CA         1.7600  -21.9300   -5.7370 C.3   310  PHE310      0.1605
     87  C          0.6420  -22.8920   -6.1390 C.2   310  PHE310      0.2264
     88  O          0.0180  -23.5270   -5.2760 O.2   310  PHE310     -0.2867
     89  CB         3.0830  -22.7070   -5.8440 C.3   310  PHE310      0.0534
     90  CG         4.3150  -21.8770   -5.6430 C.ar  310  PHE310     -0.0203
     91  CD1        4.9510  -21.2890   -6.7340 C.ar  310  PHE310     -0.0042
     92  CD2        4.8710  -21.7190   -4.3830 C.ar  310  PHE310     -0.0042
     93  CE1        6.1020  -20.5340   -6.5600 C.ar  310  PHE310     -0.0003
     94  CE2        6.0120  -20.9610   -4.2060 C.ar  310  PHE310     -0.0003
     95  CZ         6.6290  -20.3690   -5.2980 C.ar  310  PHE310     -0.0000
     96  N          4.8000  -28.0290   -2.7900 N.3   321  ARG321     -0.1245
     97  CA         4.6180  -27.0550   -1.7230 C.3   321  ARG321      0.1563
     98  C          3.4630  -26.1390   -2.0730 C.2   321  ARG321      0.2260
     99  O          3.6570  -25.0440   -2.6010 O.2   321  ARG321     -0.2867
    100  CB         5.8950  -26.2390   -1.5160 C.3   321  ARG321      0.0307
    101  CG         6.1120  -25.7790   -0.0830 C.3   321  ARG321      0.0489
    102  CD         7.4740  -25.1270    0.0870 C.3   321  ARG321      0.2205
    103  NE         7.5460  -23.8290   -0.5770 N.pl3 321  ARG321     -0.0865
    104  CZ         8.6680  -23.2890   -1.0420 C.cat 321  ARG321      0.5346
    105  NH1        9.8190  -23.9360   -0.9160 N.pl3 321  ARG321      0.1354
    106  NH2        8.6410  -22.1030   -1.6340 N.pl3 321  ARG321      0.1354
@<TRIPOS>BOND
     1     6     5    1
     2     4     3    2
     3     3     2    1
     4    10     9    2
     5    74    76   ar
     6    74    72   ar
     7    76    75   ar
     8     9     8    1
     9     5     2    1
    10     2     1    1
    11    72    71   ar
    12    72    70   ar
    13    71    69   ar
    14    11     8    1
    15    11    12    1
    16    75    73   ar
    17     8     7    1
    18    91    93   ar
    19    91    90   ar
    20    14    12   ar
    21    14    16   ar
    22    12    13   ar
    23    93    95   ar
    24    70    73   ar
    25    70    68   ar
    26    69    68   ar
    27    87    86    1
    28    87    88    2
    29    89    86    1
    30    89    90    1
    31    86    85    1
    32    68    67    1
    33    90    92   ar
    34    20    19    2
    35    16    15   ar
    36    95    94   ar
    37    13    15   ar
    38    28    27    2
    39    17    18    1
    40    65    66    2
    41    65    64    1
    42    21    18    1
    43    21    22    1
    44    24    22   am
    45    19    18    1
    46    19    25   am
    47    92    94   ar
    48    27    26    1
    49    67    64    1
    50    63    64    1
    51    63    61   am
    52    22    23    2
    53    60    61    1
    54    60    59    1
    55    61    62    2
    56    32    31   ar
    57    29    26    1
    58    29    30    1
    59    25    26    1
    60    96    97    1
    61    59    54   am
    62    99    98    2
    63    31    30    1
    64    31    33   ar
    65    84    82   ar
    66    98    97    1
    67    58    56    1
    68    55    54    2
    69    54    53    1
    70    97   100    1
    71   106   104    1
    72   100   101    1
    73    51    49   ar
    74    50    49   ar
    75    57    56    1
    76    82    83   ar
    77    82    81    1
    78   104   105    1
    79   104   103    2
    80    80    79    2
    81    56    53    1
    82    49    48    1
    83    53    52    1
    84   103   102    1
    85    79    78    1
    86   101   102    1
    87    81    78    1
    88    48    47    1
    89    42    41    1
    90    78    77    1
    91    41    40    1
    92    40    39    1
    93    47    44    1
    94    39    38    1
    95    44    43    1
    96    44    45    1
    97    38    35    1
    98    46    45    2
    99    35    34    1
   100    35    36    1
   101    36    37    2
