@<TRIPOS>MOLECULE
tmp/6i6xB06.pdb
 120 123 0 0 0
SMALL
GASTEIGER

@<TRIPOS>ATOM
      1  N        -60.5990  -41.5900  -24.7050 N.3   309  SER309     -0.1202
      2  CA       -59.9580  -40.4290  -25.3250 C.3   309  SER309      0.2020
      3  C        -58.5900  -40.8160  -25.8690 C.2   309  SER309      0.2619
      4  O        -57.9960  -41.8130  -25.4410 O.2   309  SER309     -0.2717
      5  CB       -59.8400  -39.2650  -24.3370 C.3   309  SER309      0.2103
      6  OG       -59.1760  -39.6640  -23.1410 O.3   309  SER309     -0.2182
      7  N        -58.1140  -40.0370  -26.8320 N.am  310  TYR310     -0.1961
      8  CA       -56.7690  -40.2450  -27.3810 C.3   310  TYR310      0.1771
      9  C        -55.9290  -38.9470  -27.4020 C.2   310  TYR310      0.2620
     10  O        -56.4360  -37.8230  -27.2770 O.2   310  TYR310     -0.2715
     11  CB       -56.7990  -41.0190  -28.7220 C.3   310  TYR310      0.0574
     12  CG       -57.6040  -40.3800  -29.8040 C.ar  310  TYR310     -0.0198
     13  CD1      -57.1090  -39.2500  -30.4720 C.ar  310  TYR310     -0.0009
     14  CD2      -58.8460  -40.8950  -30.1990 C.ar  310  TYR310     -0.0009
     15  CE1      -57.8320  -38.6210  -31.4820 C.ar  310  TYR310      0.0417
     16  CE2      -59.5730  -40.2740  -31.2130 C.ar  310  TYR310      0.0417
     17  CZ       -59.0560  -39.1340  -31.8510 C.ar  310  TYR310      0.1957
     18  OH       -59.7240  -38.4850  -32.8600 O.3   310  TYR310     -0.2866
     19  N        -54.6160  -39.1360  -27.4690 N.am  311  HIS311     -0.1960
     20  CA       -53.6580  -38.0410  -27.5510 C.3   311  HIS311      0.1772
     21  C        -53.9130  -37.2210  -28.8220 C.2   311  HIS311      0.2462
     22  O        -54.1390  -37.7940  -29.8720 O.2   311  HIS311     -0.2730
     23  CB       -52.2480  -38.6430  -27.5560 C.3   311  HIS311      0.0785
     24  CG       -51.1410  -37.6450  -27.7070 C.ar  311  HIS311      0.0821
     25  ND1      -50.6460  -36.9120  -26.6500 N.ar  311  HIS311     -0.2267
     26  CD2      -50.4270  -37.2770  -28.7970 C.ar  311  HIS311      0.1154
     27  CE1      -49.6800  -36.1250  -27.0860 C.ar  311  HIS311      0.1986
     28  NE2      -49.5280  -36.3290  -28.3840 N.ar  311  HIS311     -0.2212
     29  N        -53.8580  -35.8940  -28.7650 N.am  312  PRO312     -0.2727
     30  CA       -53.4440  -35.1070  -27.6000 C.3   312  PRO312      0.1402
     31  C        -54.6300  -34.4650  -26.8270 C.2   312  PRO312      0.2269
     32  O        -54.5150  -33.3270  -26.3960 O.2   312  PRO312     -0.2865
     33  CB       -52.6260  -33.9990  -28.2530 C.3   312  PRO312      0.0296
     34  CG       -53.3950  -33.7100  -29.5100 C.3   312  PRO312      0.0237
     35  CD       -53.9400  -35.0430  -29.9710 C.3   312  PRO312      0.0939
     36  N        -56.7850  -35.7030  -23.8910 N.3   314  PRO314     -0.2116
     37  CA       -57.2780  -36.6440  -22.8920 C.3   314  PRO314      0.1372
     38  C        -58.5920  -36.2200  -22.2560 C.2   314  PRO314      0.2244
     39  O        -59.3960  -37.0770  -21.9210 O.2   314  PRO314     -0.2868
     40  CB       -56.1430  -36.6860  -21.8360 C.3   314  PRO314      0.0268
     41  CG       -55.2290  -35.5370  -22.1570 C.3   314  PRO314      0.0207
     42  CD       -55.4260  -35.2240  -23.6120 C.3   314  PRO314      0.0892
     43  N        -58.3180  -40.6920  -20.5200 N.3   323  ARG323     -0.1231
     44  CA       -57.2490  -41.6780  -20.6010 C.3   323  ARG323      0.1694
     45  C        -55.8430  -41.0850  -20.7160 C.2   323  ARG323      0.2592
     46  O        -55.6110  -40.2010  -21.5430 O.2   323  ARG323     -0.2718
     47  CB       -57.4590  -42.5900  -21.7970 C.3   323  ARG323      0.0321
     48  CG       -56.3680  -43.6400  -21.9110 C.3   323  ARG323      0.0489
     49  CD       -56.7330  -44.7250  -22.9120 C.3   323  ARG323      0.2205
     50  NE       -56.9990  -44.2030  -24.2540 N.pl3 323  ARG323     -0.0865
     51  CZ       -57.0970  -44.9640  -25.3360 C.cat 323  ARG323      0.5346
     52  NH1      -56.9640  -46.2790  -25.2500 N.pl3 323  ARG323      0.1354
     53  NH2      -57.3230  -44.4070  -26.5150 N.pl3 323  ARG323      0.1354
     54  N        -54.9160  -41.6110  -19.9070 N.am  324  PHE324     -0.1962
     55  CA       -53.4850  -41.3160  -20.0360 C.3   324  PHE324      0.1771
     56  C        -52.6950  -42.5970  -20.2970 C.2   324  PHE324      0.2619
     57  O        -52.5820  -43.4630  -19.4150 O.2   324  PHE324     -0.2715
     58  CB       -52.9650  -40.6090  -18.7780 C.3   324  PHE324      0.0574
     59  CG       -53.3970  -39.1840  -18.6800 C.ar  324  PHE324     -0.0200
     60  CD1      -52.7320  -38.2090  -19.3870 C.ar  324  PHE324     -0.0042
     61  CD2      -54.5240  -38.8230  -17.9530 C.ar  324  PHE324     -0.0042
     62  CE1      -53.1340  -36.8840  -19.3490 C.ar  324  PHE324     -0.0003
     63  CE2      -54.9390  -37.4960  -17.9100 C.ar  324  PHE324     -0.0003
     64  CZ       -54.2330  -36.5310  -18.6080 C.ar  324  PHE324     -0.0000
     65  N        -52.2000  -42.7230  -21.5230 N.am  325  GLN325     -0.1977
     66  CA       -51.2300  -43.7520  -21.8930 C.3   325  GLN325      0.1601
     67  C        -49.8280  -43.3010  -21.4900 C.2   325  GLN325      0.2287
     68  O        -49.2120  -42.4670  -22.1480 O.2   325  GLN325     -0.2864
     69  CB       -51.3170  -44.0430  -23.4000 C.3   325  GLN325      0.0394
     70  CG       -52.6840  -44.5970  -23.7990 C.3   325  GLN325      0.0908
     71  CD       -52.9900  -44.4430  -25.2660 C.2   325  GLN325      0.2608
     72  OE1      -52.9480  -43.3410  -25.8050 O.2   325  GLN325     -0.2717
     73  NE2      -53.3450  -45.5380  -25.9100 N.am  325  GLN325     -0.0878
     74  N        -46.4210  -43.7930  -21.4860 N.3   327  ASN327     -0.1240
     75  CA       -45.4880  -44.5930  -22.2650 C.3   327  ASN327      0.1653
     76  C        -44.0550  -44.7160  -21.7200 C.2   327  ASN327      0.2266
     77  O        -43.3290  -45.5840  -22.1590 O.2   327  ASN327     -0.2867
     78  CB       -45.4640  -44.0950  -23.7040 C.3   327  ASN327      0.1155
     79  CG       -46.8240  -44.2020  -24.3550 C.2   327  ASN327      0.2627
     80  OD1      -47.7290  -44.8680  -23.8240 O.2   327  ASN327     -0.2716
     81  ND2      -46.9900  -43.5540  -25.4860 N.am  327  ASN327     -0.0877
     82  N        -54.8290  -30.5950  -14.1170 N.3   442  TRP442     -0.1241
     83  CA       -53.8880  -31.0070  -15.1220 C.3   442  TRP442      0.1605
     84  C        -53.2000  -29.7690  -15.7240 C.2   442  TRP442      0.2264
     85  O        -51.9760  -29.7230  -15.8360 O.2   442  TRP442     -0.2867
     86  CB       -54.5920  -31.8670  -16.1860 C.3   442  TRP442      0.0550
     87  CG       -53.7050  -32.3970  -17.2510 C.ar  442  TRP442      0.0003
     88  CD1      -52.5910  -33.1690  -17.0810 C.ar  442  TRP442      0.0946
     89  CD2      -53.8510  -32.2060  -18.6610 C.ar  442  TRP442      0.0152
     90  NE1      -52.0400  -33.4720  -18.2970 N.ar  442  TRP442     -0.2442
     91  CE2      -52.7920  -32.8930  -19.2850 C.ar  442  TRP442      0.0810
     92  CE3      -54.7830  -31.5290  -19.4610 C.ar  442  TRP442      0.0012
     93  CZ2      -52.6270  -32.9130  -20.6620 C.ar  442  TRP442      0.0191
     94  CZ3      -54.6190  -31.5490  -20.8510 C.ar  442  TRP442      0.0001
     95  CH2      -53.5510  -32.2400  -21.4320 C.ar  442  TRP442      0.0015
     96  N        -48.8650  -32.1740  -18.1890 N.3   448  PRO448     -0.2102
     97  CA       -47.9160  -33.2460  -18.4270 C.3   448  PRO448      0.1504
     98  C        -48.5320  -34.3540  -19.2850 C.2   448  PRO448      0.2576
     99  O        -49.6290  -34.8490  -18.9750 O.2   448  PRO448     -0.2718
    100  CB       -47.5850  -33.7560  -17.0230 C.3   448  PRO448      0.0282
    101  CG       -48.7390  -33.3600  -16.1730 C.3   448  PRO448      0.0208
    102  CD       -49.2650  -32.0820  -16.7810 C.3   448  PRO448      0.0893
    103  N        -47.8240  -34.7140  -20.3590 N.am  449  VAL449     -0.1966
    104  CA       -48.2640  -35.7380  -21.2830 C.3   449  VAL449      0.1727
    105  C        -48.1930  -37.1230  -20.6260 C.2   449  VAL449      0.2616
    106  O        -49.0960  -37.9280  -20.8210 O.2   449  VAL449     -0.2715
    107  CB       -47.4760  -35.6650  -22.6020 C.3   449  VAL449      0.0290
    108  CG1      -46.1170  -36.3100  -22.4750 C.3   449  VAL449      0.0023
    109  CG2      -48.2480  -36.3290  -23.7150 C.3   449  VAL449      0.0023
    110  N        -47.1540  -37.3870  -19.8270 N.am  450  PHE450     -0.1974
    111  CA       -47.0270  -38.6550  -19.0900 C.3   450  PHE450      0.1639
    112  C        -46.9490  -38.4040  -17.5850 C.2   450  PHE450      0.2290
    113  O        -45.8550  -38.4070  -17.0300 O.2   450  PHE450     -0.2864
    114  CB       -45.7470  -39.4080  -19.4900 C.3   450  PHE450      0.0560
    115  CG       -45.6570  -39.7780  -20.9420 C.ar  450  PHE450     -0.0200
    116  CD1      -46.7870  -40.0630  -21.6940 C.ar  450  PHE450     -0.0042
    117  CD2      -44.4140  -39.8890  -21.5530 C.ar  450  PHE450     -0.0042
    118  CE1      -46.6860  -40.4140  -23.0390 C.ar  450  PHE450     -0.0003
    119  CE2      -44.3020  -40.2280  -22.9000 C.ar  450  PHE450     -0.0003
    120  CZ       -45.4390  -40.5010  -23.6440 C.ar  450  PHE450     -0.0000
@<TRIPOS>BOND
     1    18    17    1
     2    17    15   ar
     3    17    16   ar
     4    15    13   ar
     5    16    14   ar
     6    13    12   ar
     7    14    12   ar
     8    35    34    1
     9    35    29    1
    10    22    21    2
    11    12    11    1
    12    34    33    1
    13    21    29   am
    14    21    20    1
    15    26    28   ar
    16    26    24   ar
    17    29    30    1
    18    11     8    1
    19    28    27   ar
    20    33    30    1
    21    24    23    1
    22    24    25   ar
    23    30    31    1
    24    23    20    1
    25    20    19    1
    26    19     9   am
    27     9     8    1
    28     9    10    2
    29     8     7    1
    30    27    25   ar
    31     7     3   am
    32    31    32    2
    33    53    51    1
    34    73    71   am
    35     3     4    2
    36     3     2    1
    37    72    71    2
    38    81    79   am
    39    51    52    1
    40    51    50    2
    41     2     1    1
    42     2     5    1
    43    71    70    1
    44    79    80    2
    45    79    78    1
    46     5     6    1
    47    50    49    1
    48    36    42    1
    49    36    37    1
    50    70    69    1
    51   109   107    1
    52    78    75    1
    53   120   118   ar
    54   120   119   ar
    55    42    41    1
    56    69    66    1
    57   118   116   ar
    58    49    48    1
    59   119   117   ar
    60    37    38    1
    61    37    40    1
    62   107   108    1
    63   107   104    1
    64    75    76    1
    65    75    74    1
    66    38    39    2
    67    77    76    2
    68    41    40    1
    69    68    67    2
    70    48    47    1
    71    66    65    1
    72    66    67    1
    73    47    44    1
    74   116   115   ar
    75   117   115   ar
    76    46    45    2
    77    65    56   am
    78    95    94   ar
    79    95    93   ar
    80   104   105    1
    81   104   103    1
    82   115   114    1
    83    94    92   ar
    84   106   105    2
    85    45    44    1
    86    45    54   am
    87    93    91   ar
    88   105   110   am
    89    44    43    1
    90   103    98   am
    91    56    55    1
    92    56    57    2
    93    55    54    1
    94    55    58    1
    95   110   111    1
    96   114   111    1
    97    92    89   ar
    98    60    62   ar
    99    60    59   ar
   100    62    64   ar
   101    91    89   ar
   102    91    90   ar
   103    98    99    2
   104    98    97    1
   105   111   112    1
   106    58    59    1
   107    59    61   ar
   108    89    87   ar
   109    64    63   ar
   110    97    96    1
   111    97   100    1
   112    90    88   ar
   113    96   102    1
   114    61    63   ar
   115   112   113    2
   116    87    88   ar
   117    87    86    1
   118   100   101    1
   119   102   101    1
   120    86    83    1
   121    85    84    2
   122    84    83    1
   123    83    82    1
