@<TRIPOS>MOLECULE
tmp/6i6xB05.pdb
 127 123 0 0 0
SMALL
GASTEIGER

@<TRIPOS>ATOM
      1  N        -70.7100  -46.6670  -26.9140 N.3    26  PHE26      -0.1227
      2  CA       -69.5290  -46.3480  -27.7300 C.3    26  PHE26       0.1736
      3  C        -69.4250  -47.2540  -28.9420 C.2    26  PHE26       0.2595
      4  O        -70.1790  -48.2270  -29.0920 O.2    26  PHE26      -0.2718
      5  CB       -68.2450  -46.4700  -26.9020 C.3    26  PHE26       0.0547
      6  CG       -67.8820  -47.8790  -26.5370 C.ar   26  PHE26      -0.0202
      7  CD1      -68.4440  -48.4890  -25.4270 C.ar   26  PHE26      -0.0042
      8  CD2      -66.9590  -48.5860  -27.2820 C.ar   26  PHE26      -0.0042
      9  CE1      -68.0830  -49.7780  -25.0600 C.ar   26  PHE26      -0.0003
     10  CE2      -66.6040  -49.8900  -26.9240 C.ar   26  PHE26      -0.0003
     11  CZ       -67.1580  -50.4810  -25.8070 C.ar   26  PHE26      -0.0000
     12  N        -68.4630  -46.9290  -29.7910 N.am   27  CYS27      -0.1970
     13  CA       -68.1540  -47.7050  -30.9920 C.3    27  CYS27       0.1712
     14  C        -66.6880  -48.1180  -30.9360 C.2    27  CYS27       0.2296
     15  O        -65.8420  -47.2710  -30.7040 O.2    27  CYS27      -0.2864
     16  CB       -68.4030  -46.8590  -32.2430 C.3    27  CYS27       0.0983
     17  SG       -68.0960  -47.7220  -33.7990 S.3    27  CYS27      -0.0798
     18  N        -71.5070  -50.8390  -30.3340 N.3    58  HIS58      -0.1241
     19  CA       -71.5760  -51.1460  -31.7650 C.3    58  HIS58       0.1621
     20  C        -70.7210  -52.3660  -32.1300 C.2    58  HIS58       0.2264
     21  O        -69.8000  -52.7210  -31.4120 O.2    58  HIS58      -0.2867
     22  CB       -71.0290  -49.9700  -32.5700 C.3    58  HIS58       0.0745
     23  CG       -71.9150  -48.7630  -32.6050 C.ar   58  HIS58       0.0817
     24  ND1      -73.0100  -48.6050  -31.7870 N.ar   58  HIS58      -0.2268
     25  CD2      -71.8530  -47.6470  -33.3750 C.ar   58  HIS58       0.1154
     26  CE1      -73.6090  -47.4650  -32.0840 C.ar   58  HIS58       0.1986
     27  NE2      -72.9220  -46.8630  -33.0370 N.ar   58  HIS58      -0.2212
     28  N        -77.0630  -50.0980  -35.9630 N.3   141  ASN141     -0.1225
     29  CA       -77.0400  -48.6540  -35.7420 C.3   141  ASN141      0.1785
     30  C        -77.2090  -47.8130  -36.9980 C.2   141  ASN141      0.2597
     31  O        -76.6100  -48.0870  -38.0340 O.2   141  ASN141     -0.2718
     32  CB       -75.7150  -48.2380  -35.0970 C.3   141  ASN141      0.1169
     33  CG       -75.7020  -46.7720  -34.7050 C.2   141  ASN141      0.2627
     34  OD1      -76.5130  -46.3270  -33.8930 O.2   141  ASN141     -0.2716
     35  ND2      -74.8120  -46.0240  -35.2910 N.am  141  ASN141     -0.0877
     36  N        -78.0080  -46.7620  -36.8740 N.am  142  GLU142     -0.1979
     37  CA       -78.1870  -45.7650  -37.9270 C.3   142  GLU142      0.1602
     38  C        -78.2310  -46.3720  -39.3410 C.2   142  GLU142      0.2287
     39  O        -77.3460  -46.1210  -40.1530 O.2   142  GLU142     -0.2864
     40  CB       -77.1060  -44.6600  -37.8000 C.3   142  GLU142      0.0415
     41  CG       -77.3100  -43.7790  -36.5700 C.3   142  GLU142      0.1163
     42  CD       -76.2730  -42.6750  -36.3550 C.2   142  GLU142      0.3649
     43  OE1      -75.2670  -42.6040  -37.1110 O.co2 142  GLU142     -0.2457
     44  OE2      -76.4770  -41.8840  -35.3920 O.co2 142  GLU142     -0.2457
     45  N        -77.7470  -44.1960  -42.3980 N.3   145  HIS145     -0.1241
     46  CA       -76.4250  -43.5650  -42.5470 C.3   145  HIS145      0.1621
     47  C        -75.4060  -44.4840  -43.2330 C.2   145  HIS145      0.2264
     48  O        -74.2190  -44.2770  -43.0820 O.2   145  HIS145     -0.2867
     49  CB       -75.8890  -43.0680  -41.1950 C.3   145  HIS145      0.0745
     50  CG       -76.6540  -41.9030  -40.6270 C.ar  145  HIS145      0.0817
     51  ND1      -76.0530  -40.7090  -40.2870 N.ar  145  HIS145     -0.2268
     52  CD2      -77.9700  -41.7500  -40.3360 C.ar  145  HIS145      0.1154
     53  CE1      -76.9630  -39.8700  -39.8230 C.ar  145  HIS145      0.1986
     54  NE2      -78.1380  -40.4720  -39.8550 N.ar  145  HIS145     -0.2212
     55  N        -79.4810  -35.0250  -31.5770 N.3   224  LYS224     -0.1245
     56  CA       -78.4280  -34.3230  -30.8630 C.3   224  LYS224      0.1561
     57  C        -78.7140  -32.8130  -30.8870 C.2   224  LYS224      0.2260
     58  O        -79.5840  -32.3460  -31.6190 O.2   224  LYS224     -0.2867
     59  CB       -77.0790  -34.6860  -31.4970 C.3   224  LYS224      0.0271
     60  CG       -76.7550  -36.1690  -31.3320 C.3   224  LYS224      0.0035
     61  CD       -75.8720  -36.7230  -32.4340 C.3   224  LYS224      0.0206
     62  CE       -75.4140  -38.1760  -32.1450 C.3   224  LYS224      0.1093
     63  NZ       -74.1980  -38.3790  -31.2610 N.3   224  LYS224     -0.1314
     64  N        -78.8660  -41.7950  -28.5690 N.3   259  GLU259     -0.1245
     65  CA       -77.6990  -40.9040  -28.7660 C.3   259  GLU259      0.1567
     66  C        -78.1080  -39.4410  -28.5980 C.2   259  GLU259      0.2260
     67  O        -78.2060  -38.6790  -29.5730 O.2   259  GLU259     -0.2867
     68  CB       -77.0520  -41.1110  -30.1350 C.3   259  GLU259      0.0388
     69  CG       -76.2570  -42.3940  -30.2080 C.3   259  GLU259      0.1160
     70  CD       -75.3650  -42.4840  -31.4250 C.2   259  GLU259      0.3649
     71  OE1      -75.0630  -41.4110  -32.0330 O.co2 259  GLU259     -0.2457
     72  OE2      -74.9960  -43.6500  -31.7560 O.co2 259  GLU259     -0.2457
     73  N        -72.8790  -33.6810  -32.0530 N.3   264  VAL264     -0.1231
     74  CA       -72.3490  -34.7790  -32.8640 C.3   264  VAL264      0.1692
     75  C        -70.8110  -34.6890  -33.0460 C.2   264  VAL264      0.2593
     76  O        -70.2380  -33.6080  -33.1620 O.2   264  VAL264     -0.2718
     77  CB       -73.0700  -34.8120  -34.2460 C.3   264  VAL264      0.0266
     78  CG1      -72.6320  -33.6570  -35.1400 C.3   264  VAL264      0.0020
     79  CG2      -72.8390  -36.1460  -34.9320 C.3   264  VAL264      0.0020
     80  N        -70.1510  -35.8410  -33.0490 N.am  265  GLY265     -0.1942
     81  CA       -68.6940  -35.9360  -33.2360 C.3   265  GLY265      0.2014
     82  C        -67.9400  -36.0570  -31.9250 C.2   265  GLY265      0.2638
     83  O        -67.3940  -35.0710  -31.4230 O.2   265  GLY265     -0.2714
     84  N        -67.8740  -37.2700  -31.3860 N.am  266  TRP266     -0.1973
     85  CA       -67.3410  -37.4930  -30.0460 C.3   266  TRP266      0.1640
     86  C        -65.8790  -37.0800  -29.9130 C.2   266  TRP266      0.2290
     87  O        -65.4570  -36.6420  -28.8450 O.2   266  TRP266     -0.2864
     88  CB       -67.5070  -38.9620  -29.6210 C.3   266  TRP266      0.0576
     89  CG       -66.4970  -39.9050  -30.2340 C.ar  266  TRP266      0.0006
     90  CD1      -66.6150  -40.6010  -31.4130 C.ar  266  TRP266      0.0946
     91  CD2      -65.2150  -40.2290  -29.7040 C.ar  266  TRP266      0.0152
     92  NE1      -65.4840  -41.3560  -31.6340 N.ar  266  TRP266     -0.2442
     93  CE2      -64.6040  -41.1380  -30.6080 C.ar  266  TRP266      0.0810
     94  CE3      -64.5170  -39.8410  -28.5550 C.ar  266  TRP266      0.0012
     95  CZ2      -63.3360  -41.6630  -30.3920 C.ar  266  TRP266      0.0191
     96  CZ3      -63.2570  -40.3680  -28.3350 C.ar  266  TRP266      0.0001
     97  CH2      -62.6780  -41.2730  -29.2530 C.ar  266  TRP266      0.0015
     98  N        -73.9720  -40.8490  -25.3390 N.3   304  ASP304     -0.1239
     99  CA       -73.0830  -41.8120  -25.9770 C.3   304  ASP304      0.1674
    100  C        -71.6100  -41.4510  -25.7070 C.2   304  ASP304      0.2266
    101  O        -70.9010  -40.9770  -26.6050 O.2   304  ASP304     -0.2867
    102  CB       -73.4100  -41.8550  -27.4750 C.3   304  ASP304      0.1410
    103  CG       -72.9810  -43.1380  -28.1390 C.2   304  ASP304      0.3668
    104  OD1      -73.1320  -44.2360  -27.5310 O.co2 304  ASP304     -0.2456
    105  OD2      -72.5240  -43.0300  -29.2980 O.co2 304  ASP304     -0.2456
    106  N        -66.5880  -43.7860  -24.8900 N.3   307  PHE307     -0.1241
    107  CA       -65.3820  -43.8450  -25.7150 C.3   307  PHE307      0.1605
    108  C        -64.1590  -43.6090  -24.8410 C.2   307  PHE307      0.2264
    109  O        -64.2680  -43.0410  -23.7300 O.2   307  PHE307     -0.2867
    110  CB       -65.4020  -42.7580  -26.8030 C.3   307  PHE307      0.0534
    111  CG       -66.4730  -42.9410  -27.8420 C.ar  307  PHE307     -0.0203
    112  CD1      -66.2300  -43.6870  -28.9920 C.ar  307  PHE307     -0.0042
    113  CD2      -67.7240  -42.3610  -27.6750 C.ar  307  PHE307     -0.0042
    114  CE1      -67.2150  -43.8510  -29.9560 C.ar  307  PHE307     -0.0003
    115  CE2      -68.7240  -42.5330  -28.6260 C.ar  307  PHE307     -0.0003
    116  CZ       -68.4680  -43.2670  -29.7730 C.ar  307  PHE307     -0.0000
    117  N        -65.6730  -36.3710  -25.9860 N.3   318  ARG318     -0.1245
    118  CA       -66.9160  -36.8130  -25.3660 C.3   318  ARG318      0.1563
    119  C        -66.6680  -38.1640  -24.7130 C.2   318  ARG318      0.2260
    120  O        -66.8610  -39.2090  -25.3340 O.2   318  ARG318     -0.2867
    121  CB       -68.0290  -36.9230  -26.4080 C.3   318  ARG318      0.0307
    122  CG       -69.4320  -36.8570  -25.8270 C.3   318  ARG318      0.0489
    123  CD       -70.4770  -36.7020  -26.9210 C.3   318  ARG318      0.2205
    124  NE       -70.7450  -37.9630  -27.6050 N.pl3 318  ARG318     -0.0865
    125  CZ       -71.0640  -38.0630  -28.8910 C.cat 318  ARG318      0.5346
    126  NH1      -71.1550  -36.9720  -29.6400 N.pl3 318  ARG318      0.1354
    127  NH2      -71.2910  -39.2530  -29.4300 N.pl3 318  ARG318      0.1354
@<TRIPOS>BOND
     1    47    48    2
     2    47    46    1
     3    46    45    1
     4    46    49    1
     5    49    50    1
     6    50    52   ar
     7    50    51   ar
     8    52    54   ar
     9    51    53   ar
    10    39    38    2
    11    54    53   ar
    12    38    37    1
    13    31    30    2
    14    37    40    1
    15    37    36    1
    16    40    41    1
    17    43    42   ar
    18    30    36   am
    19    30    29    1
    20    41    42    1
    21    42    44   ar
    22    28    29    1
    23    29    32    1
    24    35    33   am
    25    78    77    1
    26    32    33    1
    27    79    77    1
    28    33    34    2
    29    77    74    1
    30    17    16    1
    31    25    27   ar
    32    25    23   ar
    33    81    80    1
    34    81    82    1
    35    76    75    2
    36    80    75   am
    37    75    74    1
    38    27    26   ar
    39    74    73    1
    40    23    22    1
    41    23    24   ar
    42    22    19    1
    43    61    62    1
    44    61    60    1
    45    16    13    1
    46    62    63    1
    47    20    19    1
    48    20    21    2
    49    26    24   ar
    50    71    70   ar
    51    82    83    2
    52    82    84   am
    53    19    18    1
    54    72    70   ar
    55    92    90   ar
    56    92    93   ar
    57    58    57    2
    58    55    56    1
    59    59    60    1
    60    59    56    1
    61    70    69    1
    62    90    89   ar
    63    84    85    1
    64    13    14    1
    65    13    12    1
    66    14    15    2
    67    57    56    1
    68    93    95   ar
    69    93    91   ar
    70    95    97   ar
    71    89    91   ar
    72    89    88    1
    73    69    68    1
    74    68    65    1
    75    85    86    1
    76    85    88    1
    77   114   116   ar
    78   114   112   ar
    79    86    87    2
    80    12     3   am
    81   116   115   ar
    82    91    94   ar
    83   126   125    1
    84    67    66    2
    85   127   125    1
    86   105   103   ar
    87    97    96   ar
    88     4     3    2
    89   112   111   ar
    90     3     2    1
    91   125   124    2
    92    65    66    1
    93    65    64    1
    94   115   113   ar
    95    94    96   ar
    96   103   104   ar
    97   103   102    1
    98   111   113   ar
    99   111   110    1
   100     2     1    1
   101     2     5    1
   102   124   123    1
   103   102    99    1
   104     8    10   ar
   105     8     6   ar
   106    10    11   ar
   107   123   122    1
   108     5     6    1
   109   110   107    1
   110   101   100    2
   111     6     7   ar
   112   121   122    1
   113   121   118    1
   114   117   118    1
   115    99   100    1
   116    99    98    1
   117    11     9   ar
   118   107   106    1
   119   107   108    1
   120     7     9   ar
   121   118   119    1
   122   120   119    2
   123   108   109    2
