@<TRIPOS>MOLECULE
tmp/6i74A00.pdb
 109 102 0 0 0
SMALL
GASTEIGER

@<TRIPOS>ATOM
      1  N        -12.1000   12.4890    7.2720 N.3    32  ARG32      -0.1231
      2  CA       -12.5610   11.2140    6.7320 C.3    32  ARG32       0.1694
      3  C        -11.4420   10.1910    6.8050 C.2    32  ARG32       0.2592
      4  O        -10.2730   10.5550    6.7020 O.2    32  ARG32      -0.2718
      5  CB       -12.9750   11.3940    5.2640 C.3    32  ARG32       0.0321
      6  CG       -11.8070   11.8520    4.3760 C.3    32  ARG32       0.0489
      7  CD       -12.2100   12.1640    2.9460 C.3    32  ARG32       0.2205
      8  NE       -11.0290   12.4600    2.1350 N.pl3  32  ARG32      -0.0865
      9  CZ       -11.0380   12.5780    0.8130 C.cat  32  ARG32       0.5346
     10  NH1      -12.1740   12.4350    0.1510 N.pl3  32  ARG32       0.1354
     11  NH2       -9.9160   12.8390    0.1530 N.pl3  32  ARG32       0.1354
     12  N        -11.8290    8.9130    6.9140 N.am   33  ILE33      -0.1966
     13  CA       -10.9310    7.7610    6.7990 C.3    33  ILE33       0.1727
     14  C        -11.6600    6.7480    5.9240 C.2    33  ILE33       0.2616
     15  O        -12.8890    6.6870    5.9530 O.2    33  ILE33      -0.2715
     16  CB       -10.6810    7.1370    8.1880 C.3    33  ILE33       0.0290
     17  CG1      -10.0910    8.1830    9.1270 C.3    33  ILE33       0.0022
     18  CG2       -9.7890    5.9150    8.0810 C.3    33  ILE33       0.0023
     19  CD1      -10.0720    7.7600   10.5710 C.3    33  ILE33       0.0001
     20  N        -10.9270    5.9300    5.1650 N.am   34  ALA34      -0.1977
     21  CA       -11.5870    4.8540    4.4330 C.3    34  ALA34       0.1597
     22  C        -10.7130    3.6070    4.3880 C.2    34  ALA34       0.2287
     23  O         -9.4970    3.6650    4.1470 O.2    34  ALA34      -0.2864
     24  CB       -11.9230    5.2530    3.0050 C.3    34  ALA34       0.0319
     25  N        -10.9550    0.1640    2.0090 N.3    36  ASP36      -0.1239
     26  CA       -11.5840   -0.3250    0.7790 C.3    36  ASP36       0.1674
     27  C        -11.0640   -1.7280    0.4770 C.2    36  ASP36       0.2266
     28  O         -9.9470   -1.8860   -0.0180 O.2    36  ASP36      -0.2867
     29  CB       -11.2830    0.6070   -0.3760 C.3    36  ASP36       0.1410
     30  CG       -12.0170    1.9070   -0.2550 C.2    36  ASP36       0.3668
     31  OD1      -13.2270    1.9200   -0.5550 O.co2  36  ASP36      -0.2456
     32  OD2      -11.4110    2.9220    0.1550 O.co2  36  ASP36      -0.2456
     33  N        -16.4760   -0.9990    1.6810 N.3    46  HIS46      -0.1241
     34  CA       -15.9710    0.3450    1.9670 C.3    46  HIS46       0.1621
     35  C        -16.4460    0.6830    3.3650 C.2    46  HIS46       0.2264
     36  O        -17.6470    0.5980    3.6500 O.2    46  HIS46      -0.2867
     37  CB       -16.6070    1.3080    0.9610 C.3    46  HIS46       0.0745
     38  CG       -16.3110    2.7680    1.1450 C.ar   46  HIS46       0.0817
     39  ND1      -15.1240    3.3490    0.7660 N.ar   46  HIS46      -0.2268
     40  CD2      -17.1090    3.7860    1.5550 C.ar   46  HIS46       0.1154
     41  CE1      -15.2030    4.6620    0.9490 C.ar   46  HIS46       0.1986
     42  NE2      -16.3970    4.9600    1.4260 N.ar   46  HIS46      -0.2212
     43  N        -16.1050    3.7420    6.0690 N.3    48  ASN48      -0.1240
     44  CA       -15.7950    5.1670    5.9040 C.3    48  ASN48       0.1653
     45  C        -16.2680    6.0130    7.0770 C.2    48  ASN48       0.2266
     46  O        -17.3600    6.6000    7.0430 O.2    48  ASN48      -0.2867
     47  CB       -16.4100    5.6320    4.5820 C.3    48  ASN48       0.1155
     48  CG       -16.3090    7.1160    4.3000 C.2    48  ASN48       0.2627
     49  OD1      -17.2030    7.6630    3.6460 O.2    48  ASN48      -0.2716
     50  ND2      -15.2360    7.7660    4.7100 N.am   48  ASN48      -0.0877
     51  N        -16.7560    9.2880    8.7950 N.3    50  ARG50      -0.1245
     52  CA       -16.9110   10.6900    8.4210 C.3    50  ARG50       0.1563
     53  C        -17.0410   11.4910    9.7080 C.2    50  ARG50       0.2260
     54  O        -17.9700   11.2720   10.4910 O.2    50  ARG50      -0.2867
     55  CB       -18.1610   10.8720    7.5560 C.3    50  ARG50       0.0307
     56  CG       -18.1170   10.0950    6.2630 C.3    50  ARG50       0.0489
     57  CD       -19.3490   10.2790    5.4030 C.3    50  ARG50       0.2205
     58  NE       -19.2290    9.4730    4.2030 N.pl3  50  ARG50      -0.0865
     59  CZ       -20.1010    9.4740    3.2050 C.cat  50  ARG50       0.5346
     60  NH1      -21.1810   10.2440    3.2510 N.pl3  50  ARG50       0.1354
     61  NH2      -19.8880    8.6860    2.1580 N.pl3  50  ARG50       0.1354
     62  N        -20.0180    5.2710    7.4200 N.3    60  VAL60      -0.1245
     63  CA       -20.7680    4.8540    6.2400 C.3    60  VAL60       0.1561
     64  C        -20.0740    3.6350    5.6450 C.2    60  VAL60       0.2260
     65  O        -18.8610    3.6610    5.4070 O.2    60  VAL60      -0.2867
     66  CB       -20.8400    5.9880    5.2050 C.3    60  VAL60       0.0252
     67  CG1      -21.5990    5.5250    3.9810 C.3    60  VAL60       0.0019
     68  CG2      -21.5090    7.2090    5.8290 C.3    60  VAL60       0.0019
     69  N        -20.4440    0.6500    2.4130 N.3    62  ASN62      -0.1240
     70  CA       -21.1030    0.4370    1.1230 C.3    62  ASN62       0.1653
     71  C        -20.2170   -0.4630    0.2600 C.2    62  ASN62       0.2266
     72  O        -19.1130   -0.8710    0.6430 O.2    62  ASN62      -0.2867
     73  CB       -21.3600    1.7940    0.4460 C.3    62  ASN62       0.1155
     74  CG       -22.5270    1.7940   -0.5310 C.2    62  ASN62       0.2627
     75  OD1      -23.0600    0.7630   -0.9380 O.2    62  ASN62      -0.2716
     76  ND2      -22.9200    3.0010   -0.9280 N.am   62  ASN62      -0.0877
     77  N        -21.8810    3.2290   -6.5130 N.3    69  TRP69      -0.1241
     78  CA       -22.1330    2.9440   -5.1080 C.3    69  TRP69       0.1605
     79  C        -23.5550    2.4290   -4.9020 C.2    69  TRP69       0.2264
     80  O        -24.5010    2.8610   -5.5720 O.2    69  TRP69      -0.2867
     81  CB       -21.9090    4.2050   -4.2830 C.3    69  TRP69       0.0550
     82  CG       -20.4650    4.5790   -4.1910 C.ar   69  TRP69       0.0003
     83  CD1      -19.8210    5.6010   -4.8270 C.ar   69  TRP69       0.0946
     84  CD2      -19.4570    3.8760   -3.4560 C.ar   69  TRP69       0.0152
     85  NE1      -18.4890    5.5950   -4.5080 N.ar   69  TRP69      -0.2442
     86  CE2      -18.2380    4.5440   -3.6670 C.ar   69  TRP69       0.0810
     87  CE3      -19.4690    2.7430   -2.6420 C.ar   69  TRP69       0.0012
     88  CZ2      -17.0420    4.1170   -3.0870 C.ar   69  TRP69       0.0191
     89  CZ3      -18.2870    2.3380   -2.0510 C.ar   69  TRP69       0.0001
     90  CH2      -17.0940    3.0220   -2.2710 C.ar   69  TRP69       0.0015
     91  N        -26.2000    2.5520    1.1960 N.3    72  GLU72      -0.1245
     92  CA       -25.3360    2.7820    2.3410 C.3    72  GLU72       0.1567
     93  C        -25.8950    2.0990    3.5840 C.2    72  GLU72       0.2260
     94  O        -27.1160    2.0580    3.7970 O.2    72  GLU72      -0.2867
     95  CB       -25.1870    4.2800    2.6170 C.3    72  GLU72       0.0388
     96  CG       -24.4170    4.9970    1.5370 C.3    72  GLU72       0.1160
     97  CD       -24.2250    6.4860    1.7780 C.2    72  GLU72       0.3649
     98  OE1      -24.9530    7.0870    2.6090 O.co2  72  GLU72      -0.2457
     99  OE2      -23.3340    7.0550    1.1120 O.co2  72  GLU72      -0.2457
    100  N         -6.9530    4.7800    3.3350 N.3   125  SER125     -0.1202
    101  CA        -6.7850    6.1630    2.9200 C.3   125  SER125      0.2020
    102  C         -7.4160    7.1030    3.9380 C.2   125  SER125      0.2619
    103  O         -8.1460    6.6990    4.8500 O.2   125  SER125     -0.2717
    104  CB        -7.3600    6.3900    1.5210 C.3   125  SER125      0.2103
    105  OG        -8.7450    6.1340    1.4970 O.3   125  SER125     -0.2182
    106  N         -7.0990    8.3750    3.7790 N.am  126  GLY126     -0.1956
    107  CA        -7.7040    9.4130    4.5730 C.3   126  GLY126      0.1869
    108  C         -6.7950    9.9380    5.6630 C.2   126  GLY126      0.2309
    109  O         -5.5610    9.8830    5.5990 O.2   126  GLY126     -0.2863
@<TRIPOS>BOND
     1    77    78    1
     2    80    79    2
     3    78    79    1
     4    78    81    1
     5    83    85   ar
     6    83    82   ar
     7    85    86   ar
     8    81    82    1
     9    82    84   ar
    10    86    84   ar
    11    86    88   ar
    12    84    87   ar
    13    88    90   ar
    14    87    89   ar
    15    90    89   ar
    16    75    74    2
    17    76    74   am
    18    31    30   ar
    19    74    73    1
    20    29    30    1
    21    29    26    1
    22    30    32   ar
    23    28    27    2
    24    10     9    1
    25    11     9    1
    26    71    72    2
    27    71    70    1
    28    73    70    1
    29    27    26    1
    30    39    41   ar
    31    39    38   ar
    32    26    25    1
    33     9     8    2
    34    41    42   ar
    35    37    38    1
    36    37    34    1
    37    99    97   ar
    38    70    69    1
    39    38    40   ar
    40    91    92    1
    41    42    40   ar
    42   105   104    1
    43   104   101    1
    44    96    97    1
    45    96    95    1
    46    33    34    1
    47    97    98   ar
    48    34    35    1
    49     8     7    1
    50    61    59    1
    51    92    95    1
    52    92    93    1
    53   101   100    1
    54   101   102    1
    55     7     6    1
    56    24    21    1
    57    59    60    1
    58    59    58    2
    59    35    36    2
    60    93    94    2
    61    49    48    2
    62   106   102   am
    63   106   107    1
    64   102   103    2
    65    67    66    1
    66    23    22    2
    67    58    57    1
    68    48    47    1
    69    48    50   am
    70     6     5    1
    71    22    21    1
    72    21    20    1
    73   107   108    1
    74    47    44    1
    75    20    14   am
    76    66    68    1
    77    66    63    1
    78     5     2    1
    79    57    56    1
    80    65    64    2
    81   109   108    2
    82    64    63    1
    83    44    43    1
    84    44    45    1
    85    14    15    2
    86    14    13    1
    87    63    62    1
    88    56    55    1
    89     4     3    2
    90     2     3    1
    91     2     1    1
    92    13    12    1
    93    13    16    1
    94     3    12   am
    95    46    45    2
    96    55    52    1
    97    18    16    1
    98    16    17    1
    99    52    51    1
   100    52    53    1
   101    17    19    1
   102    53    54    2
