@<TRIPOS>MOLECULE
tmp/6i76A00.pdb
 124 117 0 0 0
SMALL
GASTEIGER

@<TRIPOS>ATOM
      1  N         -2.1050    7.3740    1.1810 N.3     5  PRO5       -0.2116
      2  CA        -2.8110    6.0830    1.2100 C.3     5  PRO5        0.1372
      3  C         -1.8600    4.9000    1.1320 C.2     5  PRO5        0.2244
      4  O         -0.8000    4.9680    0.5000 O.2     5  PRO5       -0.2868
      5  CB        -3.7010    6.1210   -0.0380 C.3     5  PRO5        0.0268
      6  CG        -3.7360    7.5740   -0.4620 C.3     5  PRO5        0.0207
      7  CD        -2.4320    8.1580   -0.0230 C.3     5  PRO5        0.0892
      8  N        -12.1270   12.3550    7.5210 N.3    32  ARG32      -0.1231
      9  CA       -12.5460   11.0540    7.0240 C.3    32  ARG32       0.1694
     10  C        -11.4140   10.0440    7.1150 C.2    32  ARG32       0.2592
     11  O        -10.2290   10.3940    7.0780 O.2    32  ARG32      -0.2718
     12  CB       -13.0200   11.1480    5.5700 C.3    32  ARG32       0.0321
     13  CG       -11.9180   11.6140    4.6150 C.3    32  ARG32       0.0489
     14  CD       -12.4390   11.9860    3.2370 C.3    32  ARG32       0.2205
     15  NE       -11.3860   12.5770    2.4110 N.pl3  32  ARG32      -0.0865
     16  CZ       -11.4860   12.7990    1.1010 C.cat  32  ARG32       0.5346
     17  NH1      -12.5990   12.4840    0.4490 N.pl3  32  ARG32       0.1354
     18  NH2      -10.4690   13.3350    0.4350 N.pl3  32  ARG32       0.1354
     19  N        -11.8120    8.7820    7.2390 N.am   33  ILE33      -0.1966
     20  CA       -10.9300    7.6300    7.1250 C.3    33  ILE33       0.1727
     21  C        -11.6110    6.6640    6.1770 C.2    33  ILE33       0.2616
     22  O        -12.8430    6.5790    6.1540 O.2    33  ILE33      -0.2715
     23  CB       -10.7120    6.9240    8.4750 C.3    33  ILE33       0.0290
     24  CG1      -10.0990    7.8970    9.4720 C.3    33  ILE33       0.0022
     25  CG2       -9.8080    5.6980    8.2720 C.3    33  ILE33       0.0023
     26  CD1      -10.0600    7.3720   10.8780 C.3    33  ILE33       0.0001
     27  N        -10.8280    5.9070    5.4070 N.am   34  ALA34      -0.1977
     28  CA       -11.4420    4.8440    4.6160 C.3    34  ALA34       0.1597
     29  C        -10.5780    3.5980    4.5480 C.2    34  ALA34       0.2287
     30  O         -9.3730    3.6870    4.3010 O.2    34  ALA34      -0.2864
     31  CB       -11.7410    5.2800    3.1790 C.3    34  ALA34       0.0319
     32  N        -10.6780    0.2240    2.1550 N.3    36  ASP36      -0.1239
     33  CA       -11.2830   -0.2460    0.9080 C.3    36  ASP36       0.1674
     34  C        -10.7230   -1.6340    0.6110 C.2    36  ASP36       0.2266
     35  O         -9.5750   -1.7700    0.1700 O.2    36  ASP36      -0.2867
     36  CB       -10.9910    0.7180   -0.2350 C.3    36  ASP36       0.1410
     37  CG       -11.7890    1.9920   -0.1340 C.2    36  ASP36       0.3668
     38  OD1      -13.0150    1.9520   -0.3660 O.co2  36  ASP36      -0.2456
     39  OD2      -11.1840    3.0310    0.1930 O.co2  36  ASP36      -0.2456
     40  N        -16.2050   -1.1020    1.7410 N.3    46  HIS46      -0.1241
     41  CA       -15.7530    0.2540    2.0260 C.3    46  HIS46       0.1621
     42  C        -16.2510    0.5770    3.4220 C.2    46  HIS46       0.2264
     43  O        -17.4560    0.4930    3.6890 O.2    46  HIS46      -0.2867
     44  CB       -16.4420    1.1850    1.0360 C.3    46  HIS46       0.0745
     45  CG       -16.1620    2.6500    1.2010 C.ar   46  HIS46       0.0817
     46  ND1      -14.9590    3.2280    0.8530 N.ar   46  HIS46      -0.2268
     47  CD2      -16.9740    3.6720    1.5710 C.ar   46  HIS46       0.1154
     48  CE1      -15.0360    4.5370    1.0250 C.ar   46  HIS46       0.1986
     49  NE2      -16.2550    4.8330    1.4340 N.ar   46  HIS46      -0.2212
     50  N        -15.9760    3.5910    6.1090 N.3    48  ASN48      -0.1240
     51  CA       -15.7260    5.0280    5.9460 C.3    48  ASN48       0.1653
     52  C        -16.2210    5.8160    7.1510 C.2    48  ASN48       0.2266
     53  O        -17.3260    6.3760    7.1390 O.2    48  ASN48      -0.2867
     54  CB       -16.3640    5.4840    4.6300 C.3    48  ASN48       0.1155
     55  CG       -16.2600    6.9720    4.3630 C.2    48  ASN48       0.2627
     56  OD1      -17.1240    7.5320    3.6870 O.2    48  ASN48      -0.2716
     57  ND2      -15.2130    7.6110    4.8440 N.am   48  ASN48      -0.0877
     58  N        -16.8200    9.0150    8.9470 N.3    50  ARG50      -0.1245
     59  CA       -16.9680   10.4180    8.5720 C.3    50  ARG50       0.1563
     60  C        -17.0860   11.2290    9.8530 C.2    50  ARG50       0.2260
     61  O        -17.9920   10.9900   10.6570 O.2    50  ARG50      -0.2867
     62  CB       -18.2100   10.6020    7.7040 C.3    50  ARG50       0.0307
     63  CG       -18.1150    9.8610    6.4000 C.3    50  ARG50       0.0489
     64  CD       -19.3350   10.0780    5.5220 C.3    50  ARG50       0.2205
     65  NE       -19.2300    9.2730    4.3040 N.pl3  50  ARG50      -0.0865
     66  CZ       -20.1520    9.2080    3.3460 C.cat  50  ARG50       0.5346
     67  NH1      -21.2680    9.9210    3.4410 N.pl3  50  ARG50       0.1354
     68  NH2      -19.9510    8.4330    2.2820 N.pl3  50  ARG50       0.1354
     69  N        -19.9810    5.0280    7.4900 N.3    60  VAL60      -0.1245
     70  CA       -20.7030    4.5880    6.3010 C.3    60  VAL60       0.1561
     71  C        -19.9680    3.3970    5.7000 C.2    60  VAL60       0.2260
     72  O        -18.7610    3.4730    5.4440 O.2    60  VAL60      -0.2867
     73  CB       -20.8110    5.7310    5.2790 C.3    60  VAL60       0.0252
     74  CG1      -21.5530    5.2730    4.0490 C.3    60  VAL60       0.0019
     75  CG2      -21.4870    6.9500    5.9050 C.3    60  VAL60       0.0019
     76  N        -20.2590    0.3790    2.4750 N.3    62  ASN62      -0.1240
     77  CA       -20.9010    0.1530    1.1870 C.3    62  ASN62       0.1653
     78  C        -19.9790   -0.7000    0.3250 C.2    62  ASN62       0.2266
     79  O        -18.8580   -1.0520    0.7090 O.2    62  ASN62      -0.2867
     80  CB       -21.2100    1.5000    0.5130 C.3    62  ASN62       0.1155
     81  CG       -22.4000    1.4460   -0.4430 C.2    62  ASN62       0.2627
     82  OD1      -22.8810    0.3780   -0.7890 O.2    62  ASN62      -0.2716
     83  ND2      -22.8620    2.6150   -0.8840 N.am   62  ASN62      -0.0877
     84  N        -21.8640    2.8560   -6.4950 N.3    69  TRP69      -0.1241
     85  CA       -22.0630    2.5570   -5.0830 C.3    69  TRP69       0.1605
     86  C        -23.4510    1.9660   -4.8730 C.2    69  TRP69       0.2264
     87  O        -24.4110    2.3370   -5.5530 O.2    69  TRP69      -0.2867
     88  CB       -21.8920    3.8220   -4.2380 C.3    69  TRP69       0.0550
     89  CG       -20.4650    4.2560   -4.1340 C.ar   69  TRP69       0.0003
     90  CD1      -19.8920    5.3340   -4.7370 C.ar   69  TRP69       0.0946
     91  CD2      -19.4260    3.6130   -3.3870 C.ar   69  TRP69       0.0152
     92  NE1      -18.5600    5.4030   -4.4160 N.ar   69  TRP69      -0.2442
     93  CE2      -18.2510    4.3630   -3.5800 C.ar   69  TRP69       0.0810
     94  CE3      -19.3770    2.4780   -2.5730 C.ar   69  TRP69       0.0012
     95  CZ2      -17.0390    4.0120   -2.9960 C.ar   69  TRP69       0.0191
     96  CZ3      -18.1690    2.1310   -1.9860 C.ar   69  TRP69       0.0001
     97  CH2      -17.0170    2.8920   -2.2070 C.ar   69  TRP69       0.0015
     98  N        -26.1210    2.0300    1.2750 N.3    72  GLU72      -0.1245
     99  CA       -25.2480    2.2630    2.4100 C.3    72  GLU72       0.1567
    100  C        -25.7790    1.5670    3.6550 C.2    72  GLU72       0.2260
    101  O        -26.9910    1.3990    3.8390 O.2    72  GLU72      -0.2867
    102  CB       -25.1360    3.7610    2.6870 C.3    72  GLU72       0.0388
    103  CG       -24.3580    4.5290    1.6340 C.3    72  GLU72       0.1160
    104  CD       -24.2800    6.0080    1.9180 C.2    72  GLU72       0.3649
    105  OE1      -25.0630    6.5290    2.7520 O.co2  72  GLU72      -0.2457
    106  OE2      -23.4130    6.6380    1.2830 O.co2  72  GLU72      -0.2457
    107  N         -6.8060    4.8340    3.6370 N.3   125  SER125     -0.1202
    108  CA        -6.6510    6.2310    3.2710 C.3   125  SER125      0.2020
    109  C         -7.3280    7.1340    4.2890 C.2   125  SER125      0.2619
    110  O         -8.0720    6.6890    5.1690 O.2   125  SER125     -0.2717
    111  CB        -7.1860    6.5130    1.8610 C.3   125  SER125      0.2103
    112  OG        -8.5830    6.3010    1.8050 O.3   125  SER125     -0.2182
    113  N         -7.0430    8.4210    4.1750 N.am  126  GLY126     -0.1942
    114  CA        -7.6970    9.4040    5.0050 C.3   126  GLY126      0.2014
    115  C         -6.8000   10.0490    6.0430 C.2   126  GLY126      0.2638
    116  O         -5.5700   10.0470    5.9530 O.2   126  GLY126     -0.2714
    117  N         -7.4480   10.6230    7.0510 N.am  127  ASP127     -0.1971
    118  CA        -6.8040   11.6150    7.9100 C.3   127  ASP127      0.1709
    119  C         -6.2070   10.9420    9.1420 C.2   127  ASP127      0.2293
    120  O         -6.6150   11.1710   10.2820 O.2   127  ASP127     -0.2864
    121  CB        -7.8030   12.6960    8.2900 C.3   127  ASP127      0.1436
    122  CG        -8.3880   13.3770    7.0710 C.2   127  ASP127      0.3671
    123  OD1       -7.6480   13.4950    6.0810 O.co2 127  ASP127     -0.2456
    124  OD2       -9.5700   13.7800    7.0650 O.co2 127  ASP127     -0.2456
@<TRIPOS>BOND
     1    84    85    1
     2    87    86    2
     3    85    86    1
     4    85    88    1
     5    90    92   ar
     6    90    89   ar
     7    92    93   ar
     8    88    89    1
     9    89    91   ar
    10    93    91   ar
    11    93    95   ar
    12    91    94   ar
    13    95    97   ar
    14    94    96   ar
    15    97    96   ar
    16    83    81   am
    17    82    81    2
    18     6     5    1
    19     6     7    1
    20    81    80    1
    21    38    37   ar
    22    36    37    1
    23    36    33    1
    24    37    39   ar
    25     5     2    1
    26     7     1    1
    27    35    34    2
    28    78    79    2
    29    78    77    1
    30    18    16    1
    31    17    16    1
    32     4     3    2
    33    80    77    1
    34    34    33    1
    35    46    48   ar
    36    46    45   ar
    37    33    32    1
    38    48    49   ar
    39    44    45    1
    40    44    41    1
    41    16    15    2
    42     3     2    1
    43     1     2    1
    44    77    76    1
    45    45    47   ar
    46    98    99    1
    47   106   104   ar
    48    49    47   ar
    49   103   104    1
    50   103   102    1
    51    40    41    1
    52   112   111    1
    53   111   108    1
    54   104   105   ar
    55    41    42    1
    56    68    66    1
    57    99   102    1
    58    99   100    1
    59    15    14    1
    60    31    28    1
    61    14    13    1
    62   108   107    1
    63   108   109    1
    64    66    67    1
    65    66    65    2
    66    42    43    2
    67   100   101    2
    68    56    55    2
    69    74    73    1
    70   113   109   am
    71   113   114    1
    72   109   110    2
    73    30    29    2
    74    65    64    1
    75    55    54    1
    76    55    57   am
    77    29    28    1
    78    13    12    1
    79    28    27    1
    80    54    51    1
    81   114   115    1
    82    73    75    1
    83    73    70    1
    84    27    21   am
    85    72    71    2
    86    64    63    1
    87    12     9    1
    88    71    70    1
    89    51    50    1
    90    51    52    1
    91   116   115    2
    92   115   117   am
    93   123   122   ar
    94    22    21    2
    95    21    20    1
    96    70    69    1
    97    63    62    1
    98     9    10    1
    99     9     8    1
   100   117   118    1
   101   124   122   ar
   102   122   121    1
   103    11    10    2
   104    10    19   am
   105    20    19    1
   106    20    23    1
   107    53    52    2
   108    62    59    1
   109   118   121    1
   110   118   119    1
   111    25    23    1
   112    23    24    1
   113    59    58    1
   114    59    60    1
   115   119   120    2
   116    24    26    1
   117    60    61    2
