@<TRIPOS>MOLECULE
tmp/6i7wA00.pdb
 194 191 0 0 0
SMALL
GASTEIGER

@<TRIPOS>ATOM
      1  N        -27.9860  -11.2590  -21.2150 N.3    23  ILE23      -0.1231
      2  CA       -26.9810  -11.7230  -22.1830 C.3    23  ILE23       0.1692
      3  C        -26.1280  -10.5430  -22.6770 C.2    23  ILE23       0.2593
      4  O        -26.6400   -9.5840  -23.2770 O.2    23  ILE23      -0.2718
      5  CB       -27.5530  -12.5800  -23.3280 C.3    23  ILE23       0.0266
      6  CG1      -28.0360  -13.9540  -22.7880 C.3    23  ILE23       0.0019
      7  CG2      -26.4820  -12.7550  -24.4420 C.3    23  ILE23       0.0020
      8  CD1      -28.8600  -14.7870  -23.7810 C.3    23  ILE23       0.0001
      9  N        -24.8320  -10.5950  -22.3320 N.am   24  SER24      -0.1938
     10  CA       -23.8690   -9.5300  -22.6080 C.3    24  SER24       0.2055
     11  C        -22.4980   -9.9700  -22.0830 C.2    24  SER24       0.2643
     12  O        -22.3760  -11.0760  -21.5610 O.2    24  SER24      -0.2714
     13  CB       -24.2990   -8.2550  -21.8750 C.3    24  SER24       0.2130
     14  OG       -24.1830   -8.4810  -20.4810 O.3    24  SER24      -0.2179
     15  N        -21.4870   -9.0870  -22.1310 N.am   25  ASN25      -0.1957
     16  CA       -20.1760   -9.4320  -21.5530 C.3    25  ASN25       0.1819
     17  C        -20.2140   -9.3950  -20.0170 C.2    25  ASN25       0.2621
     18  O        -19.3390   -9.9690  -19.3750 O.2    25  ASN25      -0.2715
     19  CB       -19.0950   -8.4200  -22.0330 C.3    25  ASN25       0.1195
     20  CG       -18.6380   -8.6080  -23.4660 C.2    25  ASN25       0.2630
     21  OD1      -19.1630   -9.4250  -24.2480 O.2    25  ASN25      -0.2716
     22  ND2      -17.7010   -7.7930  -23.8640 N.am   25  ASN25      -0.0877
     23  N        -21.2180   -8.7200  -19.4370 N.am   26  VAL26      -0.1977
     24  CA       -21.2960   -8.4280  -17.9870 C.3    26  VAL26       0.1596
     25  C        -22.4240   -9.1530  -17.2070 C.2    26  VAL26       0.2287
     26  O        -22.3510   -9.2400  -15.9710 O.2    26  VAL26      -0.2864
     27  CB       -21.3550   -6.8920  -17.7340 C.3    26  VAL26       0.0276
     28  CG1      -20.0780   -6.2080  -18.2150 C.3    26  VAL26       0.0022
     29  CG2      -22.5970   -6.2380  -18.3720 C.3    26  VAL26       0.0022
     30  N        -34.9660   -9.8480  -27.7560 N.3   112  LEU112     -0.1245
     31  CA       -34.1630  -10.7060  -28.6390 C.3   112  LEU112      0.1561
     32  C        -34.4870  -12.2210  -28.5210 C.2   112  LEU112      0.2260
     33  O        -33.8500  -13.0390  -29.2020 O.2   112  LEU112     -0.2867
     34  CB       -32.6520  -10.4250  -28.4350 C.3   112  LEU112      0.0270
     35  CG       -32.2180   -8.9630  -28.7420 C.3   112  LEU112      0.0019
     36  CD1      -30.9140   -8.6090  -28.0400 C.3   112  LEU112      0.0001
     37  CD2      -32.1370   -8.6850  -30.2470 C.3   112  LEU112      0.0001
     38  N        -33.0850  -14.9250  -31.2210 N.3   116  TYR116     -0.1241
     39  CA       -32.0190  -15.8160  -30.7170 C.3   116  TYR116      0.1605
     40  C        -32.4630  -17.2900  -30.5250 C.2   116  TYR116      0.2264
     41  O        -31.6220  -18.1610  -30.2700 O.2   116  TYR116     -0.2867
     42  CB       -31.4320  -15.2870  -29.4000 C.3   116  TYR116      0.0534
     43  CG       -30.6040  -14.0180  -29.4830 C.ar  116  TYR116     -0.0201
     44  CD1      -30.4510  -13.3310  -30.6880 C.ar  116  TYR116     -0.0009
     45  CD2      -30.0250  -13.4700  -28.3430 C.ar  116  TYR116     -0.0009
     46  CE1      -29.7450  -12.1260  -30.7500 C.ar  116  TYR116      0.0417
     47  CE2      -29.3360  -12.2590  -28.3890 C.ar  116  TYR116      0.0417
     48  CZ       -29.1800  -11.6030  -29.5970 C.ar  116  TYR116      0.1957
     49  OH       -28.4820  -10.4230  -29.6120 O.3   116  TYR116     -0.2866
     50  N        -26.5910  -19.7960  -22.5300 N.3   149  TRP149     -0.1241
     51  CA       -27.0830  -18.6500  -21.7640 C.3   149  TRP149      0.1605
     52  C        -28.5380  -18.2300  -22.1350 C.2   149  TRP149      0.2264
     53  O        -29.1000  -17.3520  -21.4860 O.2   149  TRP149     -0.2867
     54  CB       -26.1020  -17.4620  -21.8900 C.3   149  TRP149      0.0550
     55  CG       -25.7800  -17.0030  -23.2950 C.ar  149  TRP149      0.0003
     56  CD1      -26.3790  -17.3960  -24.4620 C.ar  149  TRP149      0.0946
     57  CD2      -24.8020  -16.0260  -23.6560 C.ar  149  TRP149      0.0152
     58  NE1      -25.8520  -16.6960  -25.5230 N.ar  149  TRP149     -0.2442
     59  CE2      -24.8620  -15.8670  -25.0610 C.ar  149  TRP149      0.0810
     60  CE3      -23.8780  -15.2570  -22.9270 C.ar  149  TRP149      0.0012
     61  CZ2      -23.9980  -15.0090  -25.7560 C.ar  149  TRP149      0.0191
     62  CZ3      -23.0260  -14.3950  -23.6140 C.ar  149  TRP149      0.0001
     63  CH2      -23.1150  -14.2530  -25.0070 C.ar  149  TRP149      0.0015
     64  N        -15.5140  -15.4740  -28.1870 N.3   255  ASN255     -0.1240
     65  CA       -16.1720  -14.1910  -28.4210 C.3   255  ASN255      0.1653
     66  C        -15.3090  -13.4320  -29.3910 C.2   255  ASN255      0.2266
     67  O        -14.0960  -13.6530  -29.4100 O.2   255  ASN255     -0.2867
     68  CB       -16.2390  -13.4080  -27.0800 C.3   255  ASN255      0.1155
     69  CG       -16.6830  -11.9490  -27.1860 C.2   255  ASN255      0.2627
     70  OD1      -15.8890  -11.0410  -27.4660 O.2   255  ASN255     -0.2716
     71  ND2      -17.9550  -11.6890  -26.9580 N.am  255  ASN255     -0.0877
     72  N        -18.6570    2.8440  -25.0850 N.3   343  MET343     -0.1245
     73  CA       -18.9950    3.0000  -23.6680 C.3   343  MET343      0.1570
     74  C        -17.6690    2.9560  -22.8630 C.2   343  MET343      0.2261
     75  O        -17.4400    2.0200  -22.0910 O.2   343  MET343     -0.2867
     76  CB       -19.9540    1.8780  -23.2520 C.3   343  MET343      0.0387
     77  CG       -20.6140    2.0910  -21.9160 C.3   343  MET343      0.0595
     78  SD       -21.6420    0.6600  -21.5630 S.3   343  MET343     -0.1393
     79  CE       -21.2610    0.4140  -20.0360 C.3   343  MET343      0.0692
     80  N        -15.5330   -0.4710  -21.6990 N.3   346  TYR346     -0.1227
     81  CA       -16.4330   -1.5970  -21.4080 C.3   346  TYR346      0.1736
     82  C        -15.8100   -2.8340  -22.0640 C.2   346  TYR346      0.2595
     83  O        -15.7420   -3.9040  -21.4550 O.2   346  TYR346     -0.2718
     84  CB       -17.8290   -1.3090  -22.0040 C.3   346  TYR346      0.0548
     85  CG       -18.7960   -2.4730  -21.9100 C.ar  346  TYR346     -0.0200
     86  CD1      -19.6020   -2.6460  -20.7890 C.ar  346  TYR346     -0.0009
     87  CD2      -18.9210   -3.3880  -22.9550 C.ar  346  TYR346     -0.0009
     88  CE1      -20.5540   -3.6670  -20.7340 C.ar  346  TYR346      0.0417
     89  CE2      -19.8340   -4.4420  -22.8900 C.ar  346  TYR346      0.0417
     90  CZ       -20.6470   -4.5780  -21.7770 C.ar  346  TYR346      0.1957
     91  OH       -21.5470   -5.6080  -21.7130 O.3   346  TYR346     -0.2866
     92  N        -15.3270   -2.6710  -23.3010 N.am  347  TYR347     -0.1976
     93  CA       -14.5670   -3.7080  -23.9990 C.3   347  TYR347      0.1639
     94  C        -13.0940   -3.3900  -23.7260 C.2   347  TYR347      0.2290
     95  O        -12.6680   -2.2450  -23.8930 O.2   347  TYR347     -0.2864
     96  CB       -14.8180   -3.6620  -25.5240 C.3   347  TYR347      0.0560
     97  CG       -16.2530   -3.9110  -25.9250 C.ar  347  TYR347     -0.0198
     98  CD1      -16.8770   -5.1270  -25.6420 C.ar  347  TYR347     -0.0009
     99  CD2      -16.9820   -2.9480  -26.6200 C.ar  347  TYR347     -0.0009
    100  CE1      -18.2100   -5.3520  -25.9780 C.ar  347  TYR347      0.0417
    101  CE2      -18.3190   -3.1660  -26.9690 C.ar  347  TYR347      0.0417
    102  CZ       -18.9230   -4.3740  -26.6520 C.ar  347  TYR347      0.1957
    103  OH       -20.2370   -4.5930  -26.9750 O.3   347  TYR347     -0.2866
    104  N        -20.0470    7.3630  -24.1790 N.3   373  TYR373     -0.1241
    105  CA       -21.3450    7.3770  -23.5130 C.3   373  TYR373      0.1605
    106  C        -21.2850    6.5790  -22.2110 C.2   373  TYR373      0.2264
    107  O        -20.6430    5.5260  -22.1570 O.2   373  TYR373     -0.2867
    108  CB       -22.4830    6.9300  -24.4540 C.3   373  TYR373      0.0534
    109  CG       -22.4270    5.4810  -24.8910 C.ar  373  TYR373     -0.0201
    110  CD1      -23.0910    4.4900  -24.1730 C.ar  373  TYR373     -0.0009
    111  CD2      -21.7740    5.1100  -26.0640 C.ar  373  TYR373     -0.0009
    112  CE1      -23.0810    3.1610  -24.5910 C.ar  373  TYR373      0.0417
    113  CE2      -21.7510    3.7790  -26.4910 C.ar  373  TYR373      0.0417
    114  CZ       -22.4020    2.8060  -25.7460 C.ar  373  TYR373      0.1957
    115  OH       -22.4030    1.4870  -26.1480 O.3   373  TYR373     -0.2866
    116  N        -18.8000    0.1360  -31.5390 N.3   388  ASN388     -0.1225
    117  CA       -18.1480   -1.1470  -31.2950 C.3   388  ASN388      0.1785
    118  C        -19.1830   -2.1120  -30.6870 C.2   388  ASN388      0.2597
    119  O        -20.2440   -1.6740  -30.2200 O.2   388  ASN388     -0.2718
    120  CB       -16.8680   -1.0090  -30.4480 C.3   388  ASN388      0.1169
    121  CG       -17.0150   -0.2430  -29.1520 C.2   388  ASN388      0.2627
    122  OD1      -18.1050   -0.0710  -28.6100 O.2   388  ASN388     -0.2716
    123  ND2      -15.9020    0.2140  -28.6120 N.am  388  ASN388     -0.0877
    124  N        -18.8910   -3.4170  -30.7340 N.am  389  TRP389     -0.1962
    125  CA       -19.7660   -4.4660  -30.2280 C.3   389  TRP389      0.1771
    126  C        -18.9350   -5.7380  -30.0730 C.2   389  TRP389      0.2620
    127  O        -17.7500   -5.7840  -30.4220 O.2   389  TRP389     -0.2715
    128  CB       -20.9610   -4.6850  -31.2160 C.3   389  TRP389      0.0590
    129  CG       -22.1290   -5.5140  -30.7210 C.ar  389  TRP389      0.0006
    130  CD1      -22.5650   -5.6510  -29.4310 C.ar  389  TRP389      0.0946
    131  CD2      -23.0380   -6.2820  -31.5370 C.ar  389  TRP389      0.0152
    132  NE1      -23.6680   -6.4800  -29.3890 N.ar  389  TRP389     -0.2442
    133  CE2      -23.9930   -6.8630  -30.6690 C.ar  389  TRP389      0.0810
    134  CE3      -23.1730   -6.4840  -32.9260 C.ar  389  TRP389      0.0012
    135  CZ2      -25.0400   -7.6740  -31.1400 C.ar  389  TRP389      0.0191
    136  CZ3      -24.1950   -7.3040  -33.3910 C.ar  389  TRP389      0.0001
    137  CH2      -25.1180   -7.8820  -32.5050 C.ar  389  TRP389      0.0015
    138  N        -19.5510   -6.7700  -29.5280 N.am  390  SER390     -0.1936
    139  CA       -18.9330   -8.0800  -29.4230 C.3   390  SER390      0.2055
    140  C        -20.0430   -9.1250  -29.5810 C.2   390  SER390      0.2643
    141  O        -21.2290   -8.7900  -29.4310 O.2   390  SER390     -0.2714
    142  CB       -18.1790   -8.2320  -28.1010 C.3   390  SER390      0.2130
    143  OG       -18.9700   -8.8200  -27.0840 O.3   390  SER390     -0.2179
    144  N        -19.6480  -10.3700  -29.9040 N.am  391  ASN391     -0.1957
    145  CA       -20.5310  -11.5290  -30.0380 C.3   391  ASN391      0.1819
    146  C        -19.9050  -12.7360  -29.4220 C.2   391  ASN391      0.2621
    147  O        -18.8480  -13.1880  -29.8770 O.2   391  ASN391     -0.2715
    148  CB       -20.8630  -11.8490  -31.5080 C.3   391  ASN391      0.1195
    149  CG       -21.9810  -11.0540  -32.1490 C.2   391  ASN391      0.2630
    150  OD1      -22.5130  -10.0560  -31.6150 O.2   391  ASN391     -0.2716
    151  ND2      -22.3540  -11.4720  -33.3450 N.am  391  ASN391     -0.0877
    152  N        -20.5610  -13.2650  -28.3970 N.am  392  GLY392     -0.1954
    153  CA       -20.1820  -14.5240  -27.7700 C.3   392  GLY392      0.1869
    154  C        -20.6610  -15.6510  -28.6730 C.2   392  GLY392      0.2309
    155  O        -21.8370  -15.6670  -29.0650 O.2   392  GLY392     -0.2863
    156  N        -21.9420  -18.7150  -28.7480 N.3   394  TRP394     -0.1241
    157  CA       -22.6380  -19.4870  -27.7200 C.3   394  TRP394      0.1605
    158  C        -23.1550  -20.9140  -28.1150 C.2   394  TRP394      0.2264
    159  O        -23.7960  -21.5750  -27.2890 O.2   394  TRP394     -0.2867
    160  CB       -23.7630  -18.6210  -27.1270 C.3   394  TRP394      0.0550
    161  CG       -24.7830  -18.0880  -28.0990 C.ar  394  TRP394      0.0003
    162  CD1      -24.7120  -16.9360  -28.8370 C.ar  394  TRP394      0.0946
    163  CD2      -26.0800  -18.6420  -28.3430 C.ar  394  TRP394      0.0152
    164  NE1      -25.8810  -16.7560  -29.5490 N.ar  394  TRP394     -0.2442
    165  CE2      -26.7490  -17.7760  -29.2420 C.ar  394  TRP394      0.0810
    166  CE3      -26.7580  -19.7800  -27.8620 C.ar  394  TRP394      0.0012
    167  CZ2      -28.0530  -18.0330  -29.7000 C.ar  394  TRP394      0.0191
    168  CZ3      -28.0460  -20.0320  -28.3110 C.ar  394  TRP394      0.0001
    169  CH2      -28.6810  -19.1670  -29.2210 C.ar  394  TRP394      0.0015
    170  N        -22.8810  -16.9130  -34.1100 N.3   401  THR401     -0.1218
    171  CA       -23.9300  -15.8900  -34.0360 C.3   401  THR401      0.1862
    172  C        -24.3350  -15.3330  -35.3890 C.2   401  THR401      0.2287
    173  O        -25.1300  -14.3980  -35.4230 O.2   401  THR401     -0.2866
    174  CB       -23.4750  -14.7220  -33.1240 C.3   401  THR401      0.1770
    175  OG1      -22.2230  -14.2320  -33.6030 O.3   401  THR401     -0.2211
    176  CG2      -23.3670  -15.1360  -31.6800 C.3   401  THR401      0.0375
    177  N        -27.8280  -13.0860  -35.0230 N.3   405  GLU405     -0.1245
    178  CA       -27.5660  -11.6460  -35.0890 C.3   405  GLU405      0.1567
    179  C        -27.7420  -11.0420  -36.4800 C.2   405  GLU405      0.2260
    180  O        -28.2900   -9.9580  -36.5920 O.2   405  GLU405     -0.2867
    181  CB       -26.1540  -11.2660  -34.5720 C.3   405  GLU405      0.0388
    182  CG       -25.8070  -11.6850  -33.1580 C.3   405  GLU405      0.1160
    183  CD       -26.5500  -11.0350  -32.0060 C.2   405  GLU405      0.3649
    184  OE1      -27.4350  -10.1760  -32.2330 O.co2 405  GLU405     -0.2457
    185  OE2      -26.2840  -11.4510  -30.8590 O.co2 405  GLU405     -0.2457
    186  N        -17.4280  -15.6930  -21.8480 N.3   481  GLU481     -0.1245
    187  CA       -17.6580  -14.4190  -21.1460 C.3   481  GLU481      0.1567
    188  C        -18.5250  -14.5650  -19.8840 C.2   481  GLU481      0.2260
    189  O        -19.5960  -13.9550  -19.7540 O.2   481  GLU481     -0.2867
    190  CB       -18.2140  -13.3500  -22.1000 C.3   481  GLU481      0.0388
    191  CG       -19.5390  -13.7400  -22.7280 C.3   481  GLU481      0.1160
    192  CD       -19.8120  -12.9590  -23.9850 C.2   481  GLU481      0.3649
    193  OE1      -20.4970  -11.9220  -23.8780 O.co2 481  GLU481     -0.2457
    194  OE2      -19.2700  -13.3260  -25.0500 O.co2 481  GLU481     -0.2457
@<TRIPOS>BOND
     1   180   179    2
     2   179   178    1
     3   173   172    2
     4   172   171    1
     5   178   177    1
     6   178   181    1
     7   181   182    1
     8   170   171    1
     9   171   174    1
    10   175   174    1
    11   136   134   ar
    12   136   137   ar
    13   151   149   am
    14   182   183    1
    15   174   176    1
    16   134   131   ar
    17   137   135   ar
    18   184   183   ar
    19   149   150    2
    20   149   148    1
    21   183   185   ar
    22   116   117    1
    23   131   129   ar
    24   131   133   ar
    25   148   145    1
    26   117   118    1
    27   117   120    1
    28    38    39    1
    29   128   129    1
    30   128   125    1
    31   135   133   ar
    32    46    44   ar
    33    46    48   ar
    34   124   118   am
    35   124   125    1
    36   129   130   ar
    37    39    40    1
    38    39    42    1
    39    44    43   ar
    40   118   119    2
    41   133   132   ar
    42    40    41    2
    43   120   121    1
    44   127   126    2
    45    37    35    1
    46   125   126    1
    47   126   138   am
    48   145   144    1
    49   145   146    1
    50   144   140   am
    51   147   146    2
    52   167   165   ar
    53   167   169   ar
    54    49    48    1
    55    48    47   ar
    56   140   141    2
    57   140   139    1
    58   164   165   ar
    59   164   162   ar
    60   138   139    1
    61    43    42    1
    62    43    45   ar
    63   130   132   ar
    64   139   142    1
    65   146   152   am
    66    67    66    2
    67    66    65    1
    68   165   163   ar
    69   169   168   ar
    70    33    32    2
    71   121   123   am
    72   121   122    2
    73   155   154    2
    74   162   161   ar
    75   156   157    1
    76    35    34    1
    77    35    36    1
    78   154   153    1
    79    31    32    1
    80    31    34    1
    81    31    30    1
    82    65    64    1
    83    65    68    1
    84   152   153    1
    85    47    45   ar
    86   163   161   ar
    87   163   166   ar
    88   168   166   ar
    89   158   157    1
    90   158   159    2
    91   142   143    1
    92   161   160    1
    93   157   160    1
    94    70    69    2
    95    69    68    1
    96    69    71   am
    97   103   102    1
    98   101   102   ar
    99   101    99   ar
   100   102   100   ar
   101    99    97   ar
   102   113   111   ar
   103   113   114   ar
   104   115   114    1
   105   111   109   ar
   106   100    98   ar
   107    97    98   ar
   108    97    96    1
   109    61    59   ar
   110    61    63   ar
   111   114   112   ar
   112    96    93    1
   113    58    59   ar
   114    58    56   ar
   115    72    73    1
   116    59    57   ar
   117   194   192   ar
   118    63    62   ar
   119   109   108    1
   120   109   110   ar
   121   112   110   ar
   122    56    55   ar
   123   108   105    1
   124     7     5    1
   125    21    20    2
   126   104   105    1
   127    93    94    1
   128    93    92    1
   129   192   193   ar
   130   192   191    1
   131    95    94    2
   132    22    20   am
   133     8     6    1
   134    73    76    1
   135    73    74    1
   136    57    55   ar
   137    57    60   ar
   138    62    60   ar
   139   105   106    1
   140    20    19    1
   141     5     6    1
   142     5     2    1
   143    92    82   am
   144    55    54    1
   145     4     3    2
   146    76    77    1
   147    87    89   ar
   148    87    85   ar
   149    89    90   ar
   150    74    75    2
   151   191   190    1
   152     3     9   am
   153     3     2    1
   154    10     9    1
   155    10    11    1
   156    10    13    1
   157    50    51    1
   158   106   107    2
   159     2     1    1
   160    52    51    1
   161    52    53    2
   162    15    11   am
   163    15    16    1
   164   190   187    1
   165    11    12    2
   166    82    83    2
   167    82    81    1
   168    19    16    1
   169    84    85    1
   170    84    81    1
   171    77    78    1
   172    85    86   ar
   173    54    51    1
   174    13    14    1
   175   186   187    1
   176    90    91    1
   177    90    88   ar
   178    80    81    1
   179    78    79    1
   180    16    17    1
   181   187   188    1
   182    86    88   ar
   183    17    23   am
   184    17    18    2
   185   188   189    2
   186    23    24    1
   187    29    27    1
   188    28    27    1
   189    24    27    1
   190    24    25    1
   191    25    26    2
