@<TRIPOS>MOLECULE
tmp/6i8bB00.pdb
 231 232 0 0 0
SMALL
GASTEIGER

@<TRIPOS>ATOM
      1  N         35.7010    1.3930   61.2030 N.3     9  HIS9       -0.1241
      2  CA        35.2040    2.1560   62.3330 C.3     9  HIS9        0.1621
      3  C         34.5120    3.4090   61.8320 C.2     9  HIS9        0.2264
      4  O         34.7170    3.8590   60.6930 O.2     9  HIS9       -0.2867
      5  CB        36.3380    2.5160   63.2960 C.3     9  HIS9        0.0745
      6  CG        37.3600    3.4260   62.7030 C.ar    9  HIS9        0.0817
      7  ND1       37.2280    4.7960   62.7170 N.ar    9  HIS9       -0.2268
      8  CD2       38.5270    3.1650   62.0700 C.ar    9  HIS9        0.1154
      9  CE1       38.2730    5.3420   62.1220 C.ar    9  HIS9        0.1986
     10  NE2       39.0710    4.3720   61.7130 N.ar    9  HIS9       -0.2212
     11  N         33.8220    7.5390   62.3690 N.3    11  TRP11      -0.1241
     12  CA        34.6080    8.7190   62.6940 C.3    11  TRP11       0.1605
     13  C         33.6700    9.9030   62.8380 C.2    11  TRP11       0.2264
     14  O         32.8270   10.1310   61.9680 O.2    11  TRP11      -0.2867
     15  CB        35.6350    9.0010   61.6040 C.3    11  TRP11       0.0550
     16  CG        36.5560   10.1290   61.8900 C.ar   11  TRP11       0.0003
     17  CD1       36.5160   11.3780   61.3510 C.ar   11  TRP11       0.0946
     18  CD2       37.6780   10.1050   62.7710 C.ar   11  TRP11       0.0152
     19  NE1       37.5510   12.1360   61.8410 N.ar   11  TRP11      -0.2442
     20  CE2       38.2790   11.3760   62.7160 C.ar   11  TRP11       0.0810
     21  CE3       38.2320    9.1320   63.6040 C.ar   11  TRP11       0.0012
     22  CZ2       39.4080   11.6990   63.4650 C.ar   11  TRP11       0.0191
     23  CZ3       39.3560    9.4560   64.3510 C.ar   11  TRP11       0.0001
     24  CH2       39.9300   10.7260   64.2760 C.ar   11  TRP11       0.0015
     25  N         34.7010    4.0580   57.8010 N.3    21  TRP21      -0.1241
     26  CA        36.0400    3.9240   57.2510 C.3    21  TRP21       0.1605
     27  C         36.5060    2.4810   57.3330 C.2    21  TRP21       0.2264
     28  O         36.2150    1.7780   58.3040 O.2    21  TRP21      -0.2867
     29  CB        37.0260    4.8310   57.9890 C.3    21  TRP21       0.0550
     30  CG        36.6630    6.2650   57.8540 C.ar   21  TRP21       0.0003
     31  CD1       35.8260    6.9810   58.6580 C.ar   21  TRP21       0.0946
     32  CD2       37.1080    7.1610   56.8360 C.ar   21  TRP21       0.0152
     33  NE1       35.7240    8.2680   58.2020 N.ar   21  TRP21      -0.2442
     34  CE2       36.5010    8.4050   57.0830 C.ar   21  TRP21       0.0810
     35  CE3       37.9620    7.0310   55.7370 C.ar   21  TRP21       0.0012
     36  CZ2       36.7240    9.5140   56.2730 C.ar   21  TRP21       0.0191
     37  CZ3       38.1800    8.1310   54.9360 C.ar   21  TRP21       0.0001
     38  CH2       37.5660    9.3540   55.2070 C.ar   21  TRP21       0.0015
     39  N         43.9860    3.7520   54.9810 N.3    40  TYR40      -0.1241
     40  CA        42.5680    3.6130   54.6800 C.3    40  TYR40       0.1605
     41  C         42.3830    3.2680   53.2160 C.2    40  TYR40       0.2264
     42  O         43.1130    3.7700   52.3590 O.2    40  TYR40      -0.2867
     43  CB        41.8180    4.8970   55.0190 C.3    40  TYR40       0.0534
     44  CG        41.7070    5.0800   56.4940 C.ar   40  TYR40      -0.0201
     45  CD1       40.7320    4.4150   57.2130 C.ar   40  TYR40      -0.0009
     46  CD2       42.6040    5.8860   57.1750 C.ar   40  TYR40      -0.0009
     47  CE1       40.6380    4.5630   58.5690 C.ar   40  TYR40       0.0417
     48  CE2       42.5180    6.0430   58.5360 C.ar   40  TYR40       0.0417
     49  CZ        41.5340    5.3820   59.2250 C.ar   40  TYR40       0.1957
     50  OH        41.4520    5.5340   60.5800 O.3    40  TYR40      -0.2866
     51  N         42.7380    5.8350   50.0820 N.3    43  PHE43      -0.1227
     52  CA        43.3870    7.0800   50.4650 C.3    43  PHE43       0.1736
     53  C         44.8750    6.8210   50.6330 C.2    43  PHE43       0.2595
     54  O         45.2790    5.7900   51.1800 O.2    43  PHE43      -0.2718
     55  CB        42.7470    7.6430   51.7450 C.3    43  PHE43       0.0547
     56  CG        41.2690    7.9070   51.5920 C.ar   43  PHE43      -0.0202
     57  CD1       40.3470    6.9080   51.8380 C.ar   43  PHE43      -0.0042
     58  CD2       40.8100    9.1380   51.1330 C.ar   43  PHE43      -0.0042
     59  CE1       38.9900    7.1320   51.6700 C.ar   43  PHE43      -0.0003
     60  CE2       39.4560    9.3680   50.9610 C.ar   43  PHE43      -0.0003
     61  CZ        38.5440    8.3620   51.2270 C.ar   43  PHE43      -0.0000
     62  N         45.6870    7.7610   50.1530 N.am   44  ASP44      -0.1974
     63  CA        47.1020    7.5210   49.9220 C.3    44  ASP44       0.1709
     64  C         47.9950    7.9430   51.0850 C.2    44  ASP44       0.2293
     65  O         49.1540    7.5170   51.1360 O.2    44  ASP44      -0.2864
     66  CB        47.5530    8.2600   48.6490 C.3    44  ASP44       0.1436
     67  CG        46.6590    7.9660   47.4330 C.2    44  ASP44       0.3671
     68  OD1       46.1160    6.8410   47.3300 O.co2  44  ASP44      -0.2456
     69  OD2       46.5110    8.8660   46.5670 O.co2  44  ASP44      -0.2456
     70  N         48.0130    7.5330   58.1850 N.3    47  TYR47      -0.1241
     71  CA        47.4370    8.2610   59.3050 C.3    47  TYR47       0.1605
     72  C         47.8160    7.5690   60.6030 C.2    47  TYR47       0.2264
     73  O         47.9090    6.3380   60.6560 O.2    47  TYR47      -0.2867
     74  CB        45.9130    8.3470   59.1700 C.3    47  TYR47       0.0534
     75  CG        45.4970    9.1180   57.9430 C.ar   47  TYR47      -0.0201
     76  CD1       45.4210   10.5030   57.9660 C.ar   47  TYR47      -0.0009
     77  CD2       45.2220    8.4690   56.7550 C.ar   47  TYR47      -0.0009
     78  CE1       45.0700   11.2180   56.8430 C.ar   47  TYR47       0.0417
     79  CE2       44.8680    9.1770   55.6250 C.ar   47  TYR47       0.0417
     80  CZ        44.7940   10.5500   55.6790 C.ar   47  TYR47       0.1957
     81  OH        44.4430   11.2680   54.5650 O.3    47  TYR47      -0.2866
     82  N         46.6490    7.1420   64.5880 N.3    49  LEU49      -0.1245
     83  CA        45.5410    7.2860   65.5170 C.3    49  LEU49       0.1561
     84  C         45.8820    6.5670   66.8080 C.2    49  LEU49       0.2260
     85  O         46.4010    5.4490   66.7850 O.2    49  LEU49      -0.2867
     86  CB        44.2450    6.7070   64.9470 C.3    49  LEU49       0.0270
     87  CG        43.4800    7.4710   63.8700 C.3    49  LEU49       0.0019
     88  CD1       42.2480    6.6750   63.5320 C.3    49  LEU49       0.0001
     89  CD2       43.0930    8.8630   64.3190 C.3    49  LEU49       0.0001
     90  N         56.7160   11.8300   40.3570 N.3    80  HIS80      -0.1226
     91  CA        55.5690   10.9370   40.4640 C.3    80  HIS80       0.1752
     92  C         54.3720   11.5670   39.7600 C.2    80  HIS80       0.2596
     93  O         53.8300   12.5710   40.2300 O.2    80  HIS80      -0.2718
     94  CB        55.2660   10.6770   41.9380 C.3    80  HIS80       0.0759
     95  CG        54.4890    9.4240   42.1880 C.ar   80  HIS80       0.0818
     96  ND1       54.0130    9.0820   43.4360 N.ar   80  HIS80      -0.2268
     97  CD2       54.1110    8.4280   41.3530 C.ar   80  HIS80       0.1154
     98  CE1       53.3770    7.9260   43.3580 C.ar   80  HIS80       0.1986
     99  NE2       53.4180    7.5110   42.1040 N.ar   80  HIS80      -0.2212
    100  N         53.9430   10.9660   38.6550 N.am   81  MET81      -0.1965
    101  CA        52.8750   11.5300   37.8470 C.3    81  MET81       0.1736
    102  C         51.5050   11.0700   38.3440 C.2    81  MET81       0.2616
    103  O         51.3660   10.0380   39.0060 O.2    81  MET81      -0.2715
    104  CB        53.0720   11.1380   36.3820 C.3    81  MET81       0.0427
    105  CG        54.4830   11.4110   35.8800 C.3    81  MET81       0.0599
    106  SD        54.7400   10.8720   34.2260 S.3    81  MET81      -0.1393
    107  CE        56.3130   11.4380   33.7240 C.3    81  MET81       0.0692
    108  N         50.4860   11.8660   38.0230 N.am   82  PHE82      -0.1960
    109  CA        49.1180   11.5660   38.4220 C.3    82  PHE82       0.1771
    110  C         48.1670   12.3310   37.5160 C.2    82  PHE82       0.2619
    111  O         48.5590   13.2900   36.8450 O.2    82  PHE82      -0.2715
    112  CB        48.8700   11.9180   39.8940 C.3    82  PHE82       0.0574
    113  CG        49.1950   13.3380   40.2340 C.ar   82  PHE82      -0.0200
    114  CD1       48.2240   14.3190   40.1650 C.ar   82  PHE82      -0.0042
    115  CD2       50.4770   13.6940   40.6050 C.ar   82  PHE82      -0.0042
    116  CE1       48.5240   15.6360   40.4680 C.ar   82  PHE82      -0.0003
    117  CE2       50.7850   15.0060   40.9120 C.ar   82  PHE82      -0.0003
    118  CZ        49.8060   15.9790   40.8420 C.ar   82  PHE82      -0.0000
    119  N         46.9080   11.8970   37.5120 N.am   83  GLU83      -0.1977
    120  CA        45.8940   12.4510   36.6270 C.3    83  GLU83       0.1602
    121  C         45.2070   13.6670   37.2410 C.2    83  GLU83       0.2287
    122  O         44.9890   13.7410   38.4540 O.2    83  GLU83      -0.2864
    123  CB        44.8400   11.3930   36.2980 C.3    83  GLU83       0.0415
    124  CG        45.3980   10.1290   35.6640 C.3    83  GLU83       0.1163
    125  CD        45.8880   10.3440   34.2460 C.2    83  GLU83       0.3649
    126  OE1       45.4230   11.3000   33.5900 O.co2  83  GLU83      -0.2457
    127  OE2       46.7380    9.5530   33.7860 O.co2  83  GLU83      -0.2457
    128  N         54.3750   15.4410   41.0480 N.3    92  TRP92      -0.1241
    129  CA        55.0120   15.9060   42.2680 C.3    92  TRP92       0.1605
    130  C         56.3860   15.2660   42.3820 C.2    92  TRP92       0.2264
    131  O         56.5410   14.0710   42.1180 O.2    92  TRP92      -0.2867
    132  CB        54.1890   15.5470   43.4990 C.3    92  TRP92       0.0550
    133  CG        52.9960   16.4060   43.7540 C.ar   92  TRP92       0.0003
    134  CD1       52.4730   17.3580   42.9330 C.ar   92  TRP92       0.0946
    135  CD2       52.1770   16.3950   44.9320 C.ar   92  TRP92       0.0152
    136  NE1       51.3690   17.9320   43.5180 N.ar   92  TRP92      -0.2442
    137  CE2       51.1690   17.3600   44.7490 C.ar   92  TRP92       0.0810
    138  CE3       52.1930   15.6530   46.1180 C.ar   92  TRP92       0.0012
    139  CZ2       50.1850   17.6060   45.7090 C.ar   92  TRP92       0.0191
    140  CZ3       51.2120   15.9000   47.0770 C.ar   92  TRP92       0.0001
    141  CH2       50.2240   16.8680   46.8640 C.ar   92  TRP92       0.0015
    142  N         56.7240   14.1840   49.6310 N.3   111  TYR111     -0.1241
    143  CA        56.8020   15.1150   48.5100 C.3   111  TYR111      0.1605
    144  C         57.0410   16.5330   49.0050 C.2   111  TYR111      0.2264
    145  O         56.5490   16.9250   50.0630 O.2   111  TYR111     -0.2867
    146  CB        55.5090   15.1070   47.7020 C.3   111  TYR111      0.0534
    147  CG        55.0760   13.7490   47.2210 C.ar  111  TYR111     -0.0201
    148  CD1       55.4900   13.2680   45.9800 C.ar  111  TYR111     -0.0009
    149  CD2       54.2250   12.9590   47.9820 C.ar  111  TYR111     -0.0009
    150  CE1       55.0890   12.0350   45.5260 C.ar  111  TYR111      0.0417
    151  CE2       53.8180   11.7180   47.5390 C.ar  111  TYR111      0.0417
    152  CZ        54.2560   11.2620   46.2990 C.ar  111  TYR111      0.1957
    153  OH        53.8630   10.0360   45.8270 O.3   111  TYR111     -0.2866
    154  N         53.7510   18.3810   49.6420 N.3   114  ASP114     -0.1239
    155  CA        52.9530   17.9230   50.7760 C.3   114  ASP114      0.1674
    156  C         53.8150   16.9830   51.6070 C.2   114  ASP114      0.2266
    157  O         53.7280   15.7590   51.4460 O.2   114  ASP114     -0.2867
    158  CB        51.6770   17.2160   50.3110 C.3   114  ASP114      0.1410
    159  CG        50.6410   17.0820   51.4240 C.2   114  ASP114      0.3668
    160  OD1       50.7770   17.7670   52.4610 O.co2 114  ASP114     -0.2456
    161  OD2       49.6880   16.2910   51.2640 O.co2 114  ASP114     -0.2456
    162  N         53.1270    9.4210   52.7050 N.3   118  TYR118     -0.1241
    163  CA        52.2670    8.8260   51.6990 C.3   118  TYR118      0.1605
    164  C         52.6600    7.3750   51.4890 C.2   118  TYR118      0.2264
    165  O         53.7490    6.9410   51.8660 O.2   118  TYR118     -0.2867
    166  CB        52.3780    9.5730   50.3620 C.3   118  TYR118      0.0534
    167  CG        51.5840   10.8490   50.2740 C.ar  118  TYR118     -0.0201
    168  CD1       52.1280   12.0640   50.6810 C.ar  118  TYR118     -0.0009
    169  CD2       50.2940   10.8450   49.7650 C.ar  118  TYR118     -0.0009
    170  CE1       51.3980   13.2370   50.5830 C.ar  118  TYR118      0.0417
    171  CE2       49.5610   12.0110   49.6660 C.ar  118  TYR118      0.0417
    172  CZ        50.1180   13.1970   50.0720 C.ar  118  TYR118      0.1957
    173  OH        49.3860   14.3490   49.9680 O.3   118  TYR118     -0.2866
    174  N         52.2250    4.2910   48.3440 N.3   120  TYR120     -0.1227
    175  CA        51.7930    3.9440   46.9900 C.3   120  TYR120      0.1736
    176  C         52.4570    2.6590   46.5110 C.2   120  TYR120      0.2595
    177  O         53.5310    2.2720   46.9770 O.2   120  TYR120     -0.2718
    178  CB        52.1340    5.0350   45.9680 C.3   120  TYR120      0.0548
    179  CG        51.2760    6.2640   46.0320 C.ar  120  TYR120     -0.0200
    180  CD1       49.9920    6.2600   45.5240 C.ar  120  TYR120     -0.0009
    181  CD2       51.7600    7.4390   46.5810 C.ar  120  TYR120     -0.0009
    182  CE1       49.2050    7.3910   45.5680 C.ar  120  TYR120      0.0417
    183  CE2       50.9790    8.5750   46.6270 C.ar  120  TYR120      0.0417
    184  CZ        49.7050    8.5470   46.1230 C.ar  120  TYR120      0.1957
    185  OH        48.9250    9.6830   46.1700 O.3   120  TYR120     -0.2866
    186  N         51.8260    2.0320   45.5160 N.am  121  GLN121     -0.1979
    187  CA        52.4220    0.8920   44.8220 C.3   121  GLN121      0.1601
    188  C         53.3110    1.4250   43.7000 C.2   121  GLN121      0.2287
    189  O         52.9280    1.5050   42.5290 O.2   121  GLN121     -0.2864
    190  CB        51.3380   -0.0390   44.3030 C.3   121  GLN121      0.0394
    191  CG        50.4860   -0.6580   45.4000 C.3   121  GLN121      0.0908
    192  CD        49.4970   -1.6650   44.8540 C.2   121  GLN121      0.2608
    193  OE1       48.4900   -1.2970   44.2570 O.2   121  GLN121     -0.2717
    194  NE2       49.7850   -2.9430   45.0490 N.am  121  GLN121     -0.0878
    195  N         53.3160    1.7920   39.4650 N.3   125  ASP125     -0.1239
    196  CA        53.3950    3.1200   38.8640 C.3   125  ASP125      0.1674
    197  C         54.6000    3.2290   37.9390 C.2   125  ASP125      0.2266
    198  O         54.5110    3.8190   36.8560 O.2   125  ASP125     -0.2867
    199  CB        53.4460    4.1870   39.9520 C.3   125  ASP125      0.1410
    200  CG        52.1030    4.3850   40.6270 C.2   125  ASP125      0.3668
    201  OD1       51.1410    3.6760   40.2460 O.co2 125  ASP125     -0.2456
    202  OD2       51.9990    5.2420   41.5280 O.co2 125  ASP125     -0.2456
    203  N         54.6470    6.1250   35.1060 N.3   130  ASP130     -0.1239
    204  CA        54.2190    7.2520   35.9260 C.3   130  ASP130      0.1674
    205  C         55.1960    7.5650   37.0570 C.2   130  ASP130      0.2266
    206  O         54.8600    8.3400   37.9590 O.2   130  ASP130     -0.2867
    207  CB        52.8190    6.9900   36.4920 C.3   130  ASP130      0.1410
    208  CG        51.7190    7.1410   35.4450 C.2   130  ASP130      0.3668
    209  OD1       51.9190    7.8740   34.4490 O.co2 130  ASP130     -0.2456
    210  OD2       50.6450    6.5270   35.6230 O.co2 130  ASP130     -0.2456
    211  N         46.2650   14.0120   62.6230 N.3   175  PHE175     -0.1227
    212  CA        46.4420   12.5860   62.3730 C.3   175  PHE175      0.1736
    213  C         47.3270   12.2740   61.1690 C.2   175  PHE175      0.2595
    214  O         47.4990   11.0990   60.8450 O.2   175  PHE175     -0.2718
    215  CB        45.0820   11.8840   62.2080 C.3   175  PHE175      0.0547
    216  CG        44.0820   12.6370   61.3640 C.ar  175  PHE175     -0.0202
    217  CD1       42.7830   12.8130   61.8120 C.ar  175  PHE175     -0.0042
    218  CD2       44.4290   13.1600   60.1290 C.ar  175  PHE175     -0.0042
    219  CE1       41.8510   13.5000   61.0420 C.ar  175  PHE175     -0.0003
    220  CE2       43.5000   13.8470   59.3600 C.ar  175  PHE175     -0.0003
    221  CZ        42.2170   14.0140   59.8130 C.ar  175  PHE175     -0.0000
    222  N         47.9130   13.2730   60.5150 N.am  176  HIS176     -0.1975
    223  CA        48.9280   12.9910   59.5100 C.3   176  HIS176      0.1656
    224  C         50.2640   12.6860   60.1870 C.2   176  HIS176      0.2291
    225  O         50.5040   13.0540   61.3410 O.2   176  HIS176     -0.2864
    226  CB        49.1020   14.1710   58.5440 C.3   176  HIS176      0.0771
    227  CG        47.9400   14.3890   57.6280 C.ar  176  HIS176      0.0820
    228  ND1       46.9120   15.2600   57.9230 N.ar  176  HIS176     -0.2267
    229  CD2       47.6520   13.8630   56.4130 C.ar  176  HIS176      0.1154
    230  CE1       46.0360   15.2540   56.9310 C.ar  176  HIS176      0.1986
    231  NE2       46.4640   14.4160   56.0030 N.ar  176  HIS176     -0.2212
@<TRIPOS>BOND
     1   126   125   ar
     2   107   106    1
     3   127   125   ar
     4   106   105    1
     5   125   124    1
     6   209   208   ar
     7   203   204    1
     8   208   210   ar
     9   208   207    1
    10   124   123    1
    11   105   104    1
    12   204   207    1
    13   204   205    1
    14   123   120    1
    15   104   101    1
    16   120   121    1
    17   120   119    1
    18   111   110    2
    19   198   197    2
    20   205   206    2
    21   121   122    2
    22   119   110   am
    23   110   109    1
    24   101   102    1
    25   101   100    1
    26   197   196    1
    27   108   102   am
    28   108   109    1
    29   102   103    2
    30   109   112    1
    31   100    92   am
    32   196   195    1
    33   196   199    1
    34    92    93    2
    35    92    91    1
    36   112   113    1
    37   199   200    1
    38   114   113   ar
    39   114   116   ar
    40   113   115   ar
    41   201   200   ar
    42    90    91    1
    43    91    94    1
    44   116   118   ar
    45   115   117   ar
    46   200   202   ar
    47   118   117   ar
    48   128   129    1
    49    97    99   ar
    50    97    95   ar
    51    94    95    1
    52    99    98   ar
    53   131   130    2
    54    95    96   ar
    55   129   130    1
    56   129   132    1
    57   189   188    2
    58   134   136   ar
    59   134   133   ar
    60    98    96   ar
    61   132   133    1
    62   136   137   ar
    63   188   187    1
    64   133   135   ar
    65   193   192    2
    66   190   187    1
    67   190   191    1
    68   137   135   ar
    69   137   139   ar
    70   187   186    1
    71   192   194   am
    72   192   191    1
    73   135   138   ar
    74   186   176   am
    75   180   182   ar
    76   180   179   ar
    77   150   148   ar
    78   150   152   ar
    79   182   184   ar
    80   139   141   ar
    81   153   152    1
    82   178   179    1
    83   178   175    1
    84   148   147   ar
    85   179   181   ar
    86   138   140   ar
    87   184   185    1
    88   184   183   ar
    89   152   151   ar
    90   176   177    2
    91   176   175    1
    92    69    67   ar
    93   181   183   ar
    94   141   140   ar
    95   175   174    1
    96   147   146    1
    97   147   149   ar
    98    68    67   ar
    99    67    66    1
   100   151   149   ar
   101   146   143    1
   102   143   144    1
   103   143   142    1
   104    66    63    1
   105   144   145    2
   106   154   155    1
   107   171   169   ar
   108   171   172   ar
   109   169   167   ar
   110    63    62    1
   111    63    64    1
   112   173   172    1
   113   172   170   ar
   114    51    52    1
   115    62    53   am
   116   167   166    1
   117   167   168   ar
   118   158   155    1
   119   158   159    1
   120   166   163    1
   121    52    53    1
   122    52    55    1
   123   170   168   ar
   124    53    54    2
   125   155   156    1
   126    60    58   ar
   127    60    61   ar
   128    64    65    2
   129    58    56   ar
   130    61    59   ar
   131   161   159   ar
   132   159   160   ar
   133   157   156    2
   134   164   163    1
   135   164   165    2
   136    56    55    1
   137    56    57   ar
   138    59    57   ar
   139   163   162    1
   140    42    41    2
   141    41    40    1
   142    81    80    1
   143    40    39    1
   144    40    43    1
   145    37    38   ar
   146    37    35   ar
   147    43    44    1
   148    38    36   ar
   149    79    80   ar
   150    79    77   ar
   151    80    78   ar
   152    35    32   ar
   153   231   229   ar
   154   231   230   ar
   155    36    34   ar
   156   229   227   ar
   157    44    46   ar
   158    44    45   ar
   159    77    75   ar
   160    32    34   ar
   161    32    30   ar
   162    78    76   ar
   163   230   228   ar
   164    34    33   ar
   165    46    48   ar
   166    45    47   ar
   167    26    27    1
   168    26    25    1
   169    26    29    1
   170    27    28    2
   171   227   228   ar
   172   227   226    1
   173    30    29    1
   174    30    31   ar
   175    75    76   ar
   176    75    74    1
   177    70    71    1
   178    33    31   ar
   179    48    49   ar
   180   226   223    1
   181    47    49   ar
   182    74    71    1
   183    49    50    1
   184    71    72    1
   185   220   221   ar
   186   220   218   ar
   187   223   224    1
   188   223   222    1
   189   221   219   ar
   190   218   216   ar
   191   224   225    2
   192   222   213   am
   193    72    73    2
   194     4     3    2
   195   214   213    2
   196   219   217   ar
   197   213   212    1
   198     1     2    1
   199    17    19   ar
   200    17    16   ar
   201   216   217   ar
   202   216   215    1
   203    15    16    1
   204    15    12    1
   205    10     8   ar
   206    10     9   ar
   207     3     2    1
   208    19    20   ar
   209    16    18   ar
   210    14    13    2
   211     8     6   ar
   212     9     7   ar
   213   215   212    1
   214     2     5    1
   215    11    12    1
   216   212   211    1
   217    12    13    1
   218     6     7   ar
   219     6     5    1
   220    20    18   ar
   221    20    22   ar
   222    18    21   ar
   223    22    24   ar
   224    88    87    1
   225    21    23   ar
   226    87    89    1
   227    87    86    1
   228    24    23   ar
   229    82    83    1
   230    86    83    1
   231    83    84    1
   232    85    84    2
