@<TRIPOS>MOLECULE
tmp/6i8bA01.pdb
 81 77 0 0 0
SMALL
GASTEIGER

@<TRIPOS>ATOM
      1  N         43.7490   19.4310   54.0070 N.3     1  ARG1       -0.1231
      2  CA        43.0880   20.6160   54.5390 C.3     1  ARG1        0.1694
      3  C         41.5710   20.4580   54.5190 C.2     1  ARG1        0.2592
      4  O         40.8510   21.2410   55.1380 O.2     1  ARG1       -0.2718
      5  CB        43.4960   21.8610   53.7490 C.3     1  ARG1        0.0321
      6  CG        44.8880   22.2810   54.1410 C.3     1  ARG1        0.0489
      7  CD        44.9070   23.0350   55.4510 C.3     1  ARG1        0.2205
      8  NE        43.9920   24.1650   55.4940 N.pl3   1  ARG1       -0.0865
      9  CZ        42.9890   24.2860   56.3670 C.cat   1  ARG1        0.5346
     10  NH1       42.7360   23.3320   57.2710 N.pl3   1  ARG1        0.1354
     11  NH2       42.2110   25.3800   56.2870 N.pl3   1  ARG1        0.1354
     12  N         41.0880   19.4450   53.8030 N.am    2  ARG2       -0.1966
     13  CA        39.6590   19.1770   53.7220 C.3     2  ARG2        0.1729
     14  C         39.2040   18.3050   54.8840 C.2     2  ARG2        0.2616
     15  O         39.9110   17.3860   55.3070 O.2     2  ARG2       -0.2715
     16  CB        39.3030   18.4870   52.4050 C.3     2  ARG2        0.0348
     17  CG        39.1210   19.4200   51.2220 C.3     2  ARG2        0.0492
     18  CD        38.5370   18.6660   50.0410 C.3     2  ARG2        0.2205
     19  NE        39.2260   17.3970   49.8300 N.pl3   2  ARG2       -0.0865
     20  CZ        39.0440   16.6090   48.7750 C.cat   2  ARG2        0.5346
     21  NH1       39.7160   15.4720   48.6720 N.pl3   2  ARG2        0.1354
     22  NH2       38.1940   16.9570   47.8220 N.pl3   2  ARG2        0.1354
     23  N         38.0110   18.6030   55.3950 N.am    3  ASN3       -0.1972
     24  CA        37.3380   17.7160   56.3340 C.3     3  ASN3        0.1688
     25  C         36.2140   16.9830   55.6150 C.2     3  ASN3        0.2292
     26  O         36.3590   15.8170   55.2330 O.2     3  ASN3       -0.2864
     27  CB        36.7930   18.4990   57.5280 C.3     3  ASN3        0.1181
     28  CG        37.8910   19.0740   58.3970 C.2     3  ASN3        0.2629
     29  OD1       39.0010   18.5440   58.4440 O.2     3  ASN3       -0.2716
     30  ND2       37.5860   20.1620   59.0960 N.am    3  ASN3       -0.0877
     31  N         34.7210   17.3500   49.6610 N.3     7  CYS7       -0.1235
     32  CA        34.8620   15.9240   49.4220 C.3     7  CYS7        0.1677
     33  C         33.6810   15.3990   48.6220 C.2     7  CYS7        0.2270
     34  O         32.5760   15.9480   48.6570 O.2     7  CYS7       -0.2867
     35  CB        34.9560   15.1470   50.7400 C.3     7  CYS7        0.0956
     36  SG        36.3940   15.5230   51.7430 S.3     7  CYS7       -0.0801
     37  N         33.2660    8.9620   52.7730 N.3    64  VAL64      -0.1245
     38  CA        33.9750    9.8560   51.8710 C.3    64  VAL64       0.1561
     39  C         34.5270    9.0180   50.7350 C.2    64  VAL64       0.2260
     40  O         35.1060    7.9500   50.9640 O.2    64  VAL64      -0.2867
     41  CB        35.1030   10.5990   52.6000 C.3    64  VAL64       0.0252
     42  CG1       35.8870   11.4670   51.6270 C.3    64  VAL64       0.0019
     43  CG2       34.5410   11.4300   53.7240 C.3    64  VAL64       0.0019
     44  N         39.0020   11.1880   45.7560 N.3    67  ASP67      -0.1225
     45  CA        39.0780   11.8910   44.4830 C.3    67  ASP67       0.1805
     46  C         39.7110   10.9810   43.4430 C.2    67  ASP67       0.2598
     47  O         40.7530   10.3680   43.6910 O.2    67  ASP67      -0.2718
     48  CB        39.9030   13.1720   44.6090 C.3    67  ASP67       0.1424
     49  CG        39.3210   14.1590   45.5990 C.2    67  ASP67       0.3668
     50  OD1       40.1140   14.8000   46.3100 O.co2  67  ASP67      -0.2456
     51  OD2       38.0800   14.2920   45.6710 O.co2  67  ASP67      -0.2456
     52  N         39.0830   10.8900   42.2710 N.am   68  ARG68      -0.1966
     53  CA        39.6920   10.1230   41.1920 C.3    68  ARG68       0.1729
     54  C         40.7860   10.9180   40.4920 C.2    68  ARG68       0.2616
     55  O         41.7600   10.3310   40.0100 O.2    68  ARG68      -0.2715
     56  CB        38.6270    9.6790   40.1860 C.3    68  ARG68       0.0348
     57  CG        37.4190    8.9880   40.8380 C.3    68  ARG68       0.0492
     58  CD        37.7450    7.5530   41.1550 C.3    68  ARG68       0.2205
     59  NE        36.5250    6.8070   41.5530 N.pl3  68  ARG68      -0.0865
     60  CZ        36.1260    6.8110   42.8470 C.cat  68  ARG68       0.5346
     61  NH1       36.8480    7.4500   43.7310 N.pl3  68  ARG68       0.1354
     62  NH2       35.0420    6.1240   43.1980 N.pl3  68  ARG68       0.1354
     63  N         40.6510   12.2460   40.4460 N.am   69  VAL69      -0.1963
     64  CA        41.6140   13.1190   39.7910 C.3    69  VAL69       0.1727
     65  C         41.8770   14.3350   40.6710 C.2    69  VAL69       0.2616
     66  O         41.0620   14.7140   41.5160 O.2    69  VAL69      -0.2715
     67  CB        41.1300   13.5700   38.3940 C.3    69  VAL69       0.0290
     68  CG1       40.9720   12.3710   37.4890 C.3    69  VAL69       0.0023
     69  CG2       39.8160   14.3240   38.5150 C.3    69  VAL69       0.0023
     70  N         43.0350   14.9510   40.4520 N.am   70  ALA70      -0.1963
     71  CA        43.4120   16.1490   41.1840 C.3    70  ALA70       0.1728
     72  C         42.8060   17.3900   40.5410 C.2    70  ALA70       0.2616
     73  O         42.6110   17.4570   39.3230 O.2    70  ALA70      -0.2715
     74  CB        44.9330   16.2850   41.2400 C.3    70  ALA70       0.0334
     75  N         42.5100   18.3810   41.3740 N.am   71  THR71      -0.1951
     76  CA        41.9470   19.6340   40.8890 C.3    71  THR71       0.1897
     77  C         43.0070   20.4340   40.1390 C.2    71  THR71       0.2313
     78  O         42.6880   21.2390   39.2660 O.2    71  THR71      -0.2863
     79  CB        41.3780   20.4860   42.0420 C.3    71  THR71       0.1794
     80  OG1       42.4440   20.9170   42.8970 O.3    71  THR71      -0.2208
     81  CG2       40.3790   19.6800   42.8570 C.3    71  THR71       0.0378
@<TRIPOS>BOND
     1    68    67    1
     2    67    69    1
     3    67    64    1
     4    78    77    2
     5    73    72    2
     6    64    63    1
     7    64    65    1
     8    55    54    2
     9    77    76    1
    10    56    57    1
    11    56    53    1
    12    63    54   am
    13    70    65   am
    14    70    71    1
    15    54    53    1
    16    72    71    1
    17    72    75   am
    18    65    66    2
    19    57    58    1
    20    76    75    1
    21    76    79    1
    22    58    59    1
    23    71    74    1
    24    53    52    1
    25    59    60    2
    26    79    81    1
    27    79    80    1
    28    52    46   am
    29    60    62    1
    30    60    61    1
    31    46    47    2
    32    46    45    1
    33    45    48    1
    34    45    44    1
    35    48    49    1
    36    49    51   ar
    37    49    50   ar
    38    22    20    1
    39    33    34    2
    40    33    32    1
    41    21    20    1
    42    20    19    2
    43    32    31    1
    44    32    35    1
    45    19    18    1
    46    18    17    1
    47    39    40    2
    48    39    38    1
    49    35    36    1
    50    17    16    1
    51    42    41    1
    52    38    41    1
    53    38    37    1
    54    16    13    1
    55    41    43    1
    56    13    12    1
    57    13    14    1
    58     5     6    1
    59     5     2    1
    60    12     3   am
    61     1     2    1
    62     6     7    1
    63     3     2    1
    64     3     4    2
    65    14    15    2
    66    14    23   am
    67    26    25    2
    68    23    24    1
    69     7     8    1
    70     8     9    2
    71    25    24    1
    72    11     9    1
    73    24    27    1
    74     9    10    1
    75    27    28    1
    76    28    29    2
    77    28    30   am
