@<TRIPOS>MOLECULE
tmp/6i8lA00.pdb
 104 99 0 0 0
SMALL
GASTEIGER

@<TRIPOS>ATOM
      1  N        -13.5300  -25.8650   -4.5080 N.3    95  GLY95      -0.1210
      2  CA       -13.0700  -25.7150   -3.1410 C.3    95  GLY95       0.1956
      3  C        -12.0220  -24.6380   -2.9750 C.2    95  GLY95       0.2611
      4  O        -11.8940  -23.7070   -3.7570 O.2    95  GLY95      -0.2717
      5  N        -11.2790  -24.7260   -1.8450 N.am   96  MET96      -0.1979
      6  CA       -10.3530  -23.6910   -1.4220 C.3    96  MET96       0.1605
      7  C         -9.0900  -24.4180   -0.9630 C.2    96  MET96       0.2287
      8  O         -9.1730  -25.3740   -0.1860 O.2    96  MET96      -0.2864
      9  CB       -10.9100  -22.8400   -0.2580 C.3    96  MET96       0.0413
     10  CG        -9.9140  -21.9500    0.3470 C.3    96  MET96       0.0598
     11  SD       -10.6000  -21.1610    1.8570 S.3    96  MET96      -0.1393
     12  CE       -10.7610  -19.5010    1.2230 C.3    96  MET96       0.0692
     13  N         -6.1700  -24.6120    1.3930 N.3    98  LEU98      -0.1245
     14  CA        -6.0700  -24.0240    2.7370 C.3    98  LEU98       0.1561
     15  C         -4.6320  -23.7370    3.1640 C.2    98  LEU98       0.2260
     16  O         -4.3380  -22.7200    3.7910 O.2    98  LEU98      -0.2867
     17  CB        -6.7400  -25.0110    3.6820 C.3    98  LEU98       0.0270
     18  CG        -8.2080  -25.3490    3.4070 C.3    98  LEU98       0.0019
     19  CD1       -8.5390  -26.6220    4.1560 C.3    98  LEU98       0.0001
     20  CD2       -9.0680  -24.1390    3.8070 C.3    98  LEU98       0.0001
     21  N        -10.2270  -28.1290    1.0550 N.3   111  THR111     -0.1203
     22  CA       -11.5720  -28.5930    1.3830 C.3   111  THR111      0.1994
     23  C        -12.5270  -28.1220    0.2850 C.2   111  THR111      0.2618
     24  O        -12.1460  -27.3600   -0.6370 O.2   111  THR111     -0.2717
     25  CB       -12.0190  -28.1370    2.8000 C.3   111  THR111      0.1784
     26  OG1      -13.2190  -28.7860    3.1450 O.3   111  THR111     -0.2211
     27  CG2      -12.2770  -26.6610    2.8270 C.3   111  THR111      0.0376
     28  N        -13.7540  -28.6450    0.3460 N.am  112  TYR112     -0.1961
     29  CA       -14.6980  -28.4830   -0.7670 C.3   112  TYR112      0.1771
     30  C        -16.0930  -28.1830   -0.2730 C.2   112  TYR112      0.2619
     31  O        -16.5240  -28.6690    0.7870 O.2   112  TYR112     -0.2715
     32  CB       -14.7420  -29.7900   -1.6010 C.3   112  TYR112      0.0574
     33  CG       -13.4260  -30.2740   -2.0750 C.ar  112  TYR112     -0.0198
     34  CD1      -12.9050  -29.8140   -3.2920 C.ar  112  TYR112     -0.0009
     35  CD2      -12.6990  -31.2100   -1.3610 C.ar  112  TYR112     -0.0009
     36  CE1      -11.6950  -30.2300   -3.6840 C.ar  112  TYR112      0.0417
     37  CE2      -11.4930  -31.6490   -1.7670 C.ar  112  TYR112      0.0417
     38  CZ       -10.9950  -31.1530   -3.0000 C.ar  112  TYR112      0.1957
     39  OH        -9.7810  -31.5860   -3.4240 O.3   112  TYR112     -0.2866
     40  N        -16.8530  -27.3970   -1.0570 N.am  113  GLU113     -0.1977
     41  CA       -18.2120  -27.0810   -0.6360 C.3   113  GLU113      0.1602
     42  C        -19.0530  -28.3480   -0.5350 C.2   113  GLU113      0.2287
     43  O        -19.9460  -28.4440    0.3190 O.2   113  GLU113     -0.2864
     44  CB       -18.8860  -26.0960   -1.5930 C.3   113  GLU113      0.0415
     45  CG       -18.2300  -24.7420   -1.6440 C.3   113  GLU113      0.1163
     46  CD       -18.9180  -23.7980   -2.6450 C.2   113  GLU113      0.3649
     47  OE1      -19.9450  -23.1540   -2.3190 O.co2 113  GLU113     -0.2457
     48  OE2      -18.3020  -23.7400   -3.7180 O.co2 113  GLU113     -0.2457
     49  N        -17.1440  -30.5510    3.2060 N.3   116  PRO116     -0.2116
     50  CA       -16.2790  -29.5650    3.8970 C.3   116  PRO116      0.1372
     51  C        -15.5360  -30.1740    5.0890 C.2   116  PRO116      0.2244
     52  O        -15.6550  -29.7370    6.2240 O.2   116  PRO116     -0.2868
     53  CB       -17.2880  -28.4770    4.2890 C.3   116  PRO116      0.0268
     54  CG       -18.5860  -29.1900    4.5410 C.3   116  PRO116      0.0207
     55  CD       -18.5660  -30.2840    3.4120 C.3   116  PRO116      0.0892
     56  N        -11.6030  -18.9920    8.9050 N.3   166  VAL166     -0.1245
     57  CA       -11.7380  -20.4200    8.6400 C.3   166  VAL166      0.1561
     58  C        -10.9700  -21.2060    9.6810 C.2   166  VAL166      0.2260
     59  O         -9.8000  -20.9170    9.9520 O.2   166  VAL166     -0.2867
     60  CB       -11.2300  -20.7460    7.2370 C.3   166  VAL166      0.0252
     61  CG1      -11.3720  -22.3010    6.9650 C.3   166  VAL166      0.0019
     62  CG2      -12.0270  -19.9350    6.1810 C.3   166  VAL166      0.0019
     63  N        -14.1240  -28.4360    8.4510 N.3   179  VAL179     -0.1231
     64  CA       -13.6320  -27.1070    8.1150 C.3   179  VAL179      0.1692
     65  C        -14.8270  -26.1700    8.0160 C.2   179  VAL179      0.2592
     66  O        -15.8030  -26.4700    7.3280 O.2   179  VAL179     -0.2718
     67  CB       -12.8110  -27.1270    6.8060 C.3   179  VAL179      0.0266
     68  CG1      -12.2750  -25.7940    6.5290 C.3   179  VAL179      0.0020
     69  CG2      -11.6870  -28.2070    6.8480 C.3   179  VAL179      0.0020
     70  N        -14.7330  -24.9960    8.6750 N.am  180  TYR180     -0.1962
     71  CA       -15.8310  -24.0150    8.6240 C.3   180  TYR180      0.1771
     72  C        -15.2980  -22.6120    8.4340 C.2   180  TYR180      0.2619
     73  O        -14.3500  -22.2160    9.0890 O.2   180  TYR180     -0.2715
     74  CB       -16.6330  -24.0110    9.9530 C.3   180  TYR180      0.0574
     75  CG       -17.3360  -25.3100   10.2850 C.ar  180  TYR180     -0.0198
     76  CD1      -18.6360  -25.5130    9.8490 C.ar  180  TYR180     -0.0009
     77  CD2      -16.7520  -26.2700   11.0730 C.ar  180  TYR180     -0.0009
     78  CE1      -19.3020  -26.6960   10.1780 C.ar  180  TYR180      0.0417
     79  CE2      -17.4260  -27.4240   11.4220 C.ar  180  TYR180      0.0417
     80  CZ       -18.6650  -27.6220   11.0250 C.ar  180  TYR180      0.1957
     81  OH       -19.3740  -28.7490   11.3750 O.3   180  TYR180     -0.2866
     82  N        -15.9900  -21.8370    7.6080 N.am  181  ASP181     -0.1971
     83  CA       -15.8180  -20.3820    7.5330 C.3   181  ASP181      0.1709
     84  C        -16.9070  -19.7860    8.4290 C.2   181  ASP181      0.2293
     85  O        -18.1000  -19.9280    8.1440 O.2   181  ASP181     -0.2864
     86  CB       -15.9490  -19.9240    6.1020 C.3   181  ASP181      0.1436
     87  CG       -15.6640  -18.4450    5.9440 C.2   181  ASP181      0.3671
     88  OD1      -15.6810  -17.7030    6.9630 O.co2 181  ASP181     -0.2456
     89  OD2      -15.5210  -18.0190    4.7730 O.co2 181  ASP181     -0.2456
     90  N        -20.2070  -17.9200    7.3060 N.3   184  LYS184     -0.1245
     91  CA       -21.1220  -18.5280    6.3680 C.3   184  LYS184      0.1561
     92  C        -22.2250  -19.3120    7.0480 C.2   184  LYS184      0.2260
     93  O        -22.1630  -19.6560    8.2210 O.2   184  LYS184     -0.2867
     94  CB       -20.3490  -19.4640    5.4310 C.3   184  LYS184      0.0271
     95  CG       -19.2570  -18.7710    4.6270 C.3   184  LYS184      0.0035
     96  CD       -19.7630  -17.9340    3.5040 C.3   184  LYS184      0.0206
     97  CE       -18.7560  -17.4400    2.4530 C.3   184  LYS184      0.1093
     98  NZ       -18.0050  -16.2780    3.0150 N.3   184  LYS184     -0.1314
     99  N        -23.0020  -22.3840    6.7270 N.3   186  SER186     -0.1217
    100  CA       -22.5670  -23.6780    7.2220 C.3   186  SER186      0.1889
    101  C        -22.1320  -23.6440    8.6630 C.2   186  SER186      0.2288
    102  O        -22.1860  -24.6680    9.3540 O.2   186  SER186     -0.2866
    103  CB       -21.3920  -24.1960    6.3560 C.3   186  SER186      0.2089
    104  OG       -20.2570  -23.3730    6.5240 O.3   186  SER186     -0.2183
@<TRIPOS>BOND
     1     1     2    1
     2     4     3    2
     3    48    46   ar
     4    36    34   ar
     5    36    38   ar
     6    39    38    1
     7    34    33   ar
     8     2     3    1
     9    38    37   ar
    10     3     5   am
    11    46    47   ar
    12    46    45    1
    13    33    32    1
    14    33    35   ar
    15     5     6    1
    16    37    35   ar
    17    45    44    1
    18    32    29    1
    19    44    41    1
    20     6     7    1
    21     6     9    1
    22    40    41    1
    23    40    30   am
    24     7     8    2
    25    29    30    1
    26    29    28    1
    27    24    23    2
    28    41    42    1
    29    42    43    2
    30    30    31    2
    31     9    10    1
    32    23    28   am
    33    23    22    1
    34    10    11    1
    35    21    22    1
    36    12    11    1
    37    22    25    1
    38    13    14    1
    39    97    98    1
    40    97    96    1
    41    14    15    1
    42    14    17    1
    43    25    27    1
    44    25    26    1
    45    15    16    2
    46    49    55    1
    47    49    50    1
    48    18    17    1
    49    18    20    1
    50    18    19    1
    51    55    54    1
    52    96    95    1
    53    50    53    1
    54    50    51    1
    55    53    54    1
    56    95    94    1
    57    89    87   ar
    58    51    52    2
    59    94    91    1
    60    87    86    1
    61    87    88   ar
    62    86    83    1
    63    62    60    1
    64   103   104    1
    65   103   100    1
    66    91    92    1
    67    91    90    1
    68    68    67    1
    69    99   100    1
    70    67    69    1
    71    67    64    1
    72    61    60    1
    73    92    93    2
    74   100   101    1
    75    60    57    1
    76    66    65    2
    77    83    82    1
    78    83    84    1
    79    82    72   am
    80    65    64    1
    81    65    70   am
    82    64    63    1
    83    85    84    2
    84    72    71    1
    85    72    73    2
    86    71    70    1
    87    71    74    1
    88    57    56    1
    89    57    58    1
    90   101   102    2
    91    58    59    2
    92    76    78   ar
    93    76    75   ar
    94    74    75    1
    95    78    80   ar
    96    75    77   ar
    97    80    81    1
    98    80    79   ar
    99    77    79   ar
