@<TRIPOS>MOLECULE
tmp/6i8lA02.pdb
 117 116 0 0 0
SMALL
GASTEIGER

@<TRIPOS>ATOM
      1  N         -3.3890  -43.9060    0.2790 N.3    42  GLY42      -0.1225
      2  CA        -4.4990  -44.1100   -0.6330 C.3    42  GLY42       0.1811
      3  C         -5.8370  -43.4950   -0.2610 C.2    42  GLY42       0.2280
      4  O         -6.7560  -43.5090   -1.0970 O.2    42  GLY42      -0.2866
      5  N         -7.9070  -40.0030    0.9450 N.3    44  ASP44      -0.1239
      6  CA        -7.6110  -38.6060    0.6730 C.3    44  ASP44       0.1674
      7  C         -7.9570  -37.6440    1.7930 C.2    44  ASP44       0.2266
      8  O         -7.4410  -36.5030    1.8040 O.2    44  ASP44      -0.2867
      9  CB        -8.3280  -38.1490   -0.6280 C.3    44  ASP44       0.1410
     10  CG        -7.9750  -38.9930   -1.8570 C.2    44  ASP44       0.3668
     11  OD1       -6.8190  -39.4430   -1.9400 O.co2  44  ASP44      -0.2456
     12  OD2       -8.8380  -39.1230   -2.7700 O.co2  44  ASP44      -0.2456
     13  N        -11.4530  -28.5840   -8.9330 N.3    81  HIS81      -0.1226
     14  CA       -10.5930  -29.7800   -8.8860 C.3    81  HIS81       0.1752
     15  C        -11.2620  -30.9470   -9.6020 C.2    81  HIS81       0.2596
     16  O        -12.2860  -31.4540   -9.1610 O.2    81  HIS81      -0.2718
     17  CB       -10.3140  -30.0830   -7.4130 C.3    81  HIS81       0.0759
     18  CG        -9.1290  -30.9750   -7.2030 C.ar   81  HIS81       0.0818
     19  ND1       -8.8010  -31.4600   -5.9530 N.ar   81  HIS81      -0.2268
     20  CD2       -8.1880  -31.4470   -8.0500 C.ar   81  HIS81       0.1154
     21  CE1       -7.7450  -32.2280   -6.0610 C.ar   81  HIS81       0.1986
     22  NE2       -7.3240  -32.2230   -7.3170 N.ar   81  HIS81      -0.2212
     23  N        -10.6950  -31.3620  -10.7250 N.am   82  MET82      -0.1965
     24  CA       -11.3240  -32.3990  -11.5390 C.3    82  MET82       0.1736
     25  C        -10.8570  -33.7860  -11.0970 C.2    82  MET82       0.2616
     26  O         -9.7570  -33.9550  -10.5610 O.2    82  MET82      -0.2715
     27  CB       -11.0060  -32.1620  -13.0330 C.3    82  MET82       0.0427
     28  CG       -11.5890  -30.7980  -13.5120 C.3    82  MET82       0.0599
     29  SD       -10.6950  -30.1330  -14.9180 S.3    82  MET82      -0.1393
     30  CE       -10.9830  -31.4260  -16.0980 C.3    82  MET82       0.0692
     31  N        -11.7030  -34.7890  -11.3160 N.am   83  PHE83      -0.1960
     32  CA       -11.3780  -36.1700  -10.9750 C.3    83  PHE83       0.1771
     33  C        -12.1780  -37.1500  -11.8200 C.2    83  PHE83       0.2619
     34  O        -13.1450  -36.7780  -12.4850 O.2    83  PHE83      -0.2715
     35  CB       -11.6690  -36.3960   -9.4880 C.3    83  PHE83       0.0574
     36  CG       -13.1200  -36.1070   -9.0950 C.ar   83  PHE83      -0.0200
     37  CD1      -14.0520  -37.0950   -9.1570 C.ar   83  PHE83      -0.0042
     38  CD2      -13.5130  -34.8580   -8.6950 C.ar   83  PHE83      -0.0042
     39  CE1      -15.4150  -36.8540   -8.8020 C.ar   83  PHE83      -0.0003
     40  CE2      -14.8400  -34.5910   -8.3600 C.ar   83  PHE83      -0.0003
     41  CZ       -15.7940  -35.6230   -8.4480 C.ar   83  PHE83      -0.0000
     42  N        -11.7860  -38.4390  -11.7920 N.am   84  GLU84      -0.1977
     43  CA       -12.4470  -39.4150  -12.6610 C.3    84  GLU84       0.1602
     44  C        -13.6390  -40.1400  -12.0260 C.2    84  GLU84       0.2287
     45  O        -13.6210  -40.4560  -10.8440 O.2    84  GLU84      -0.2864
     46  CB       -11.4490  -40.4750  -13.1170 C.3    84  GLU84       0.0415
     47  CG       -10.2790  -39.9320  -13.8520 C.3    84  GLU84       0.1163
     48  CD       -10.6510  -39.4710  -15.2220 C.2    84  GLU84       0.3649
     49  OE1      -11.6300  -40.0130  -15.7690 O.co2  84  GLU84      -0.2457
     50  OE2       -9.9730  -38.5620  -15.7440 O.co2  84  GLU84      -0.2457
     51  N        -15.1380  -30.8880   -8.2790 N.3    93  TRP93      -0.1241
     52  CA       -15.5840  -30.2110   -7.0740 C.3    93  TRP93       0.1605
     53  C        -14.8660  -28.8780   -6.9760 C.2    93  TRP93       0.2264
     54  O        -13.6340  -28.8100   -7.1250 O.2    93  TRP93      -0.2867
     55  CB       -15.3070  -31.0130   -5.7860 C.3    93  TRP93       0.0550
     56  CG       -16.1600  -32.1730   -5.5510 C.ar   93  TRP93       0.0003
     57  CD1      -17.1050  -32.7090   -6.3640 C.ar   93  TRP93       0.0946
     58  CD2      -16.1040  -32.9910   -4.3860 C.ar   93  TRP93       0.0152
     59  NE1      -17.6580  -33.8460   -5.7980 N.ar   93  TRP93      -0.2442
     60  CE2      -17.0600  -34.0130   -4.5590 C.ar   93  TRP93       0.0810
     61  CE3      -15.3300  -32.9680   -3.2170 C.ar   93  TRP93       0.0012
     62  CZ2      -17.2490  -34.9970   -3.6180 C.ar   93  TRP93       0.0191
     63  CZ3      -15.5570  -33.9660   -2.2710 C.ar   93  TRP93       0.0001
     64  CH2      -16.4860  -34.9420   -2.4920 C.ar   93  TRP93       0.0015
     65  N        -13.7540  -28.6450    0.3460 N.3   112  TYR112     -0.1241
     66  CA       -14.6980  -28.4830   -0.7670 C.3   112  TYR112      0.1605
     67  C        -16.0930  -28.1830   -0.2730 C.2   112  TYR112      0.2264
     68  O        -16.5240  -28.6690    0.7870 O.2   112  TYR112     -0.2867
     69  CB       -14.7420  -29.7900   -1.6010 C.3   112  TYR112      0.0534
     70  CG       -13.4260  -30.2740   -2.0750 C.ar  112  TYR112     -0.0201
     71  CD1      -12.9050  -29.8140   -3.2920 C.ar  112  TYR112     -0.0009
     72  CD2      -12.6990  -31.2100   -1.3610 C.ar  112  TYR112     -0.0009
     73  CE1      -11.6950  -30.2300   -3.6840 C.ar  112  TYR112      0.0417
     74  CE2      -11.4930  -31.6490   -1.7670 C.ar  112  TYR112      0.0417
     75  CZ       -10.9950  -31.1530   -3.0000 C.ar  112  TYR112      0.1957
     76  OH        -9.7810  -31.5860   -3.4240 O.3   112  TYR112     -0.2866
     77  N         -9.1000  -32.4710    3.3600 N.3   119  TYR119     -0.1241
     78  CA        -8.4900  -33.3520    2.3750 C.3   119  TYR119      0.1605
     79  C         -7.0340  -32.9430    2.1550 C.2   119  TYR119      0.2264
     80  O         -6.6550  -31.7900    2.4300 O.2   119  TYR119     -0.2867
     81  CB        -9.2430  -33.1890    1.0470 C.3   119  TYR119      0.0534
     82  CG       -10.5780  -33.9870    0.9260 C.ar  119  TYR119     -0.0201
     83  CD1      -11.7890  -33.4400    1.3780 C.ar  119  TYR119     -0.0009
     84  CD2      -10.6250  -35.2460    0.3460 C.ar  119  TYR119     -0.0009
     85  CE1      -12.9810  -34.1360    1.2080 C.ar  119  TYR119      0.0417
     86  CE2      -11.8750  -35.9710    0.1950 C.ar  119  TYR119      0.0417
     87  CZ       -13.0250  -35.3800    0.6240 C.ar  119  TYR119      0.1957
     88  OH       -14.1490  -36.1400    0.4580 O.3   119  TYR119     -0.2866
     89  N         -4.0620  -33.4450   -0.9790 N.3   121  TYR121     -0.1227
     90  CA        -3.7430  -33.8800   -2.3440 C.3   121  TYR121      0.1736
     91  C         -2.4280  -33.2690   -2.8160 C.2   121  TYR121      0.2595
     92  O         -2.0190  -32.2170   -2.3550 O.2   121  TYR121     -0.2718
     93  CB        -4.8060  -33.4760   -3.3620 C.3   121  TYR121      0.0548
     94  CG        -6.0960  -34.2870   -3.2840 C.ar  121  TYR121     -0.0200
     95  CD1       -6.1440  -35.6000   -3.7720 C.ar  121  TYR121     -0.0009
     96  CD2       -7.2310  -33.7360   -2.6850 C.ar  121  TYR121     -0.0009
     97  CE1       -7.3290  -36.3440   -3.7170 C.ar  121  TYR121      0.0417
     98  CE2       -8.4120  -34.4220   -2.6640 C.ar  121  TYR121      0.0417
     99  CZ        -8.4860  -35.6890   -3.1630 C.ar  121  TYR121      0.1957
    100  OH        -9.6480  -36.4520   -3.1170 O.3   121  TYR121     -0.2866
    101  N         -1.8420  -33.9000   -3.8640 N.am  122  GLN122     -0.1979
    102  CA        -0.6120  -33.4200   -4.5010 C.3   122  GLN122      0.1601
    103  C         -1.0790  -32.4740   -5.5930 C.2   122  GLN122      0.2287
    104  O         -1.1160  -32.8050   -6.7920 O.2   122  GLN122     -0.2864
    105  CB         0.2030  -34.5620   -5.0610 C.3   122  GLN122      0.0394
    106  CG         0.8890  -35.4020   -3.9860 C.3   122  GLN122      0.0908
    107  CD         1.7560  -36.4790   -4.5070 C.2   122  GLN122      0.2608
    108  OE1        2.9960  -36.4110   -4.4090 O.2   122  GLN122     -0.2717
    109  NE2        1.1330  -37.5070   -5.0700 N.am  122  GLN122     -0.0878
    110  N         -1.5990  -32.4850   -9.8700 N.3   126  ASP126     -0.1239
    111  CA        -2.8960  -32.4190  -10.5210 C.3   126  ASP126      0.1674
    112  C         -2.9810  -31.1920  -11.4150 C.2   126  ASP126      0.2266
    113  O         -3.5400  -31.2520  -12.5230 O.2   126  ASP126     -0.2867
    114  CB        -3.9880  -32.3840   -9.4630 C.3   126  ASP126      0.1410
    115  CG        -4.1730  -33.6850   -8.7620 C.2   126  ASP126      0.3668
    116  OD1       -3.4900  -34.6810   -9.1040 O.co2 126  ASP126     -0.2456
    117  OD2       -5.0850  -33.7350   -7.8930 O.co2 126  ASP126     -0.2456
@<TRIPOS>BOND
     1    30    29    1
     2    49    48   ar
     3    50    48   ar
     4    48    47    1
     5    29    28    1
     6    47    46    1
     7    28    27    1
     8    46    43    1
     9    27    24    1
    10    43    44    1
    11    43    42    1
    12   113   112    2
    13    34    33    2
    14    44    45    2
    15    33    42   am
    16    33    32    1
    17    24    25    1
    18    24    23    1
    19   112   111    1
    20    31    25   am
    21    31    32    1
    22    25    26    2
    23    32    35    1
    24    23    15   am
    25   111   110    1
    26   111   114    1
    27    15    16    2
    28    15    14    1
    29    35    36    1
    30   114   115    1
    31    37    36   ar
    32    37    39   ar
    33   116   115   ar
    34    36    38   ar
    35    13    14    1
    36    14    17    1
    37    39    41   ar
    38   115   117   ar
    39    38    40   ar
    40    41    40   ar
    41    51    52    1
    42    20    22   ar
    43    20    18   ar
    44    17    18    1
    45    22    21   ar
    46    18    19   ar
    47    54    53    2
    48    52    53    1
    49    52    55    1
    50   104   103    2
    51    57    59   ar
    52    57    56   ar
    53    21    19   ar
    54    59    60   ar
    55    55    56    1
    56   103   102    1
    57    56    58   ar
    58   109   107   am
    59   105   102    1
    60   105   106    1
    61    60    58   ar
    62    60    62   ar
    63   107   108    2
    64   107   106    1
    65   102   101    1
    66    58    61   ar
    67   101    91   am
    68    95    97   ar
    69    95    94   ar
    70    97    99   ar
    71    73    71   ar
    72    73    75   ar
    73    62    64   ar
    74    76    75    1
    75    93    94    1
    76    93    90    1
    77    71    70   ar
    78    94    96   ar
    79    61    63   ar
    80    99   100    1
    81    99    98   ar
    82    75    74   ar
    83    91    92    2
    84    91    90    1
    85    12    10   ar
    86    96    98   ar
    87    64    63   ar
    88    90    89    1
    89    70    69    1
    90    70    72   ar
    91    11    10   ar
    92    10     9    1
    93    74    72   ar
    94    69    66    1
    95     4     3    2
    96    66    67    1
    97    66    65    1
    98     2     3    1
    99     2     1    1
   100     9     6    1
   101    67    68    2
   102    86    84   ar
   103    86    87   ar
   104    84    82   ar
   105    88    87    1
   106    87    85   ar
   107     6     5    1
   108     6     7    1
   109    82    81    1
   110    82    83   ar
   111    81    78    1
   112    85    83   ar
   113     7     8    2
   114    79    78    1
   115    79    80    2
   116    78    77    1
