@<TRIPOS>MOLECULE
tmp/6i8yA01.pdb
 108 107 0 0 0
SMALL
GASTEIGER

@<TRIPOS>ATOM
      1  N         50.2270   -1.5240    1.3040 N.3    10  HIS10      -0.1241
      2  CA        50.7010   -2.2950    2.4390 C.3    10  HIS10       0.1621
      3  C         51.4570   -3.5150    1.9350 C.2    10  HIS10       0.2264
      4  O         51.3040   -3.9330    0.7890 O.2    10  HIS10      -0.2867
      5  CB        49.5550   -2.7140    3.3620 C.3    10  HIS10       0.0745
      6  CG        48.5530   -3.6600    2.7730 C.ar   10  HIS10       0.0817
      7  ND1       48.7280   -5.0280    2.7560 N.ar   10  HIS10      -0.2268
      8  CD2       47.3410   -3.4250    2.1890 C.ar   10  HIS10       0.1154
      9  CE1       47.6750   -5.5980    2.1820 C.ar   10  HIS10       0.1986
     10  NE2       46.8240   -4.6450    1.8270 N.ar   10  HIS10      -0.2212
     11  N         52.1540   -7.7140    2.6070 N.3    12  TRP12      -0.1241
     12  CA        51.3660   -8.8960    2.9170 C.3    12  TRP12       0.1605
     13  C         52.3340  -10.0510    3.0930 C.2    12  TRP12       0.2264
     14  O         53.2230  -10.2380    2.2570 O.2    12  TRP12      -0.2867
     15  CB        50.3570   -9.1950    1.8100 C.3    12  TRP12       0.0550
     16  CG        49.4730  -10.3390    2.0600 C.ar   12  TRP12       0.0003
     17  CD1       49.6120  -11.5970    1.5760 C.ar   12  TRP12       0.0946
     18  CD2       48.2740  -10.3350    2.8370 C.ar   12  TRP12       0.0152
     19  NE1       48.5820  -12.3890    2.0310 N.ar   12  TRP12      -0.2442
     20  CE2       47.7260  -11.6240    2.7630 C.ar   12  TRP12       0.0810
     21  CE3       47.6030   -9.3710    3.5730 C.ar   12  TRP12       0.0012
     22  CZ2       46.5470  -11.9610    3.4420 C.ar   12  TRP12       0.0191
     23  CZ3       46.4410   -9.7100    4.2390 C.ar   12  TRP12       0.0001
     24  CH2       45.9170  -10.9900    4.1400 C.ar   12  TRP12       0.0015
     25  N         52.2220  -14.3060    4.4570 N.3    14  GLU14      -0.1245
     26  CA        51.5430  -15.5010    4.9700 C.3    14  GLU14       0.1567
     27  C         52.5860  -16.4660    5.5260 C.2    14  GLU14       0.2260
     28  O         53.4980  -16.8800    4.7990 O.2    14  GLU14      -0.2867
     29  CB        50.7250  -16.1900    3.8820 C.3    14  GLU14       0.0388
     30  CG        49.9410  -15.2500    2.9840 C.3    14  GLU14       0.1160
     31  CD        48.4880  -15.6490    2.8270 C.2    14  GLU14       0.3649
     32  OE1       47.9580  -16.3650    3.7100 O.co2  14  GLU14      -0.2457
     33  OE2       47.8780  -15.2340    1.8160 O.co2  14  GLU14      -0.2457
     34  N         54.8320   -9.4730   -0.0310 N.3    20  THR20      -0.1218
     35  CA        54.4210   -8.8890   -1.3010 C.3    20  THR20       0.1862
     36  C         53.8050   -7.5150   -1.0180 C.2    20  THR20       0.2287
     37  O         53.2450   -7.2880    0.0570 O.2    20  THR20      -0.2866
     38  CB        53.4480   -9.7800   -2.0660 C.3    20  THR20       0.1770
     39  OG1       52.3520  -10.1820   -1.2360 O.3    20  THR20      -0.2211
     40  CG2       54.1360  -11.0640   -2.5320 C.3    20  THR20       0.0375
     41  N         51.2410   -4.2310   -2.1090 N.3    22  TRP22      -0.1241
     42  CA        49.8880   -4.1030   -2.6410 C.3    22  TRP22       0.1605
     43  C         49.4370   -2.6510   -2.5590 C.2    22  TRP22       0.2264
     44  O         49.6920   -1.9840   -1.5600 O.2    22  TRP22      -0.2867
     45  CB        48.8830   -4.9710   -1.8810 C.3    22  TRP22       0.0550
     46  CG        49.2290   -6.4130   -1.9680 C.ar   22  TRP22       0.0003
     47  CD1       50.0580   -7.1090   -1.1200 C.ar   22  TRP22       0.0946
     48  CD2       48.8390   -7.3290   -2.9970 C.ar   22  TRP22       0.0152
     49  NE1       50.1490   -8.4120   -1.5190 N.ar   22  TRP22      -0.2442
     50  CE2       49.4600   -8.5660   -2.7050 C.ar   22  TRP22       0.0810
     51  CE3       48.0380   -7.2350   -4.1590 C.ar   22  TRP22       0.0012
     52  CZ2       49.2960   -9.6860   -3.5300 C.ar   22  TRP22       0.0191
     53  CZ3       47.9170   -8.3490   -4.9600 C.ar   22  TRP22       0.0001
     54  CH2       48.5000   -9.5760   -4.6060 C.ar   22  TRP22       0.0015
     55  N         41.9310   -3.8800   -5.0850 N.3    41  TYR41      -0.1241
     56  CA        43.3480   -3.7770   -5.3540 C.3    41  TYR41       0.1605
     57  C         43.5760   -3.5040   -6.8320 C.2    41  TYR41       0.2264
     58  O         42.8730   -4.0470   -7.7050 O.2    41  TYR41      -0.2867
     59  CB        44.0480   -5.0700   -4.9280 C.3    41  TYR41       0.0534
     60  CG        44.1430   -5.1590   -3.4000 C.ar   41  TYR41      -0.0201
     61  CD1       45.1920   -4.5710   -2.7270 C.ar   41  TYR41      -0.0009
     62  CD2       43.1640   -5.8010   -2.6420 C.ar   41  TYR41      -0.0009
     63  CE1       45.2520   -4.6040   -1.3570 C.ar   41  TYR41       0.0417
     64  CE2       43.2440   -5.8520   -1.2870 C.ar   41  TYR41       0.0417
     65  CZ        44.2770   -5.2690   -0.6680 C.ar   41  TYR41       0.1957
     66  OH        44.3610   -5.3220    0.7330 O.3    41  TYR41      -0.2866
     67  N         43.3640   -6.1670   -9.9360 N.3    44  PHE44      -0.1241
     68  CA        42.6650   -7.3850   -9.5580 C.3    44  PHE44       0.1605
     69  C         41.1610   -7.1050   -9.4820 C.2    44  PHE44       0.2264
     70  O         40.7330   -6.0760   -8.9610 O.2    44  PHE44      -0.2867
     71  CB        43.2070   -7.9190   -8.2150 C.3    44  PHE44       0.0534
     72  CG        44.6010   -8.4730   -8.3220 C.ar   44  PHE44      -0.0203
     73  CD1       45.6870   -7.6400   -8.2420 C.ar   44  PHE44      -0.0042
     74  CD2       44.8210   -9.8130   -8.5940 C.ar   44  PHE44      -0.0042
     75  CE1       46.9830   -8.1540   -8.4050 C.ar   44  PHE44      -0.0003
     76  CE2       46.1220  -10.3060   -8.7710 C.ar   44  PHE44      -0.0003
     77  CZ        47.1660   -9.4760   -8.6830 C.ar   44  PHE44      -0.0000
     78  N         37.8900   -7.5070   -2.0490 N.3    48  TYR48      -0.1241
     79  CA        38.4300   -8.2030   -0.9020 C.3    48  TYR48       0.1605
     80  C         38.0480   -7.5530    0.4190 C.2    48  TYR48       0.2264
     81  O         37.7490   -6.3660    0.4750 O.2    48  TYR48      -0.2867
     82  CB        39.9520   -8.2910   -1.0150 C.3    48  TYR48       0.0534
     83  CG        40.3770   -9.1200   -2.1840 C.ar   48  TYR48      -0.0201
     84  CD1       40.5900   -8.5130   -3.3890 C.ar   48  TYR48      -0.0009
     85  CD2       40.5520  -10.4780   -2.0660 C.ar   48  TYR48      -0.0009
     86  CE1       40.9620   -9.2740   -4.5080 C.ar   48  TYR48       0.0417
     87  CE2       40.8960  -11.2480   -3.1500 C.ar   48  TYR48       0.0417
     88  CZ        41.1270  -10.6290   -4.3520 C.ar   48  TYR48       0.1957
     89  OH        41.4920  -11.3830   -5.4600 O.3    48  TYR48      -0.2866
     90  N         39.2890   -7.1830    4.4320 N.3    50  LEU50      -0.1245
     91  CA        40.3270   -7.3840    5.4410 C.3    50  LEU50       0.1561
     92  C         39.9920   -6.6320    6.7060 C.2    50  LEU50       0.2260
     93  O         39.5190   -5.5040    6.6370 O.2    50  LEU50      -0.2867
     94  CB        41.6740   -6.8500    4.9990 C.3    50  LEU50       0.0270
     95  CG        42.4010   -7.5560    3.8410 C.3    50  LEU50       0.0019
     96  CD1       43.6840   -6.8830    3.4300 C.3    50  LEU50       0.0001
     97  CD2       42.6350   -9.0110    4.1730 C.3    50  LEU50       0.0001
     98  N         39.4120  -14.0440    2.4360 N.3   172  PHE172     -0.1241
     99  CA        39.3070  -12.6150    2.1860 C.3   172  PHE172      0.1605
    100  C         38.4470  -12.2650    0.9580 C.2   172  PHE172      0.2264
    101  O         38.3070  -11.0950    0.6560 O.2   172  PHE172     -0.2867
    102  CB        40.7030  -11.9330    2.0870 C.3   172  PHE172      0.0534
    103  CG        41.7440  -12.6470    1.2530 C.ar  172  PHE172     -0.0203
    104  CD1       43.0350  -12.7450    1.7290 C.ar  172  PHE172     -0.0042
    105  CD2       41.4710  -13.1640    0.0050 C.ar  172  PHE172     -0.0042
    106  CE1       44.0330  -13.3320    0.9830 C.ar  172  PHE172     -0.0003
    107  CE2       42.4750  -13.7600   -0.7300 C.ar  172  PHE172     -0.0003
    108  CZ        43.7440  -13.8350   -0.2590 C.ar  172  PHE172     -0.0000
@<TRIPOS>BOND
     1    67    68    1
     2    68    69    1
     3    68    71    1
     4    69    70    2
     5    76    77   ar
     6    76    74   ar
     7    77    75   ar
     8    74    72   ar
     9    75    73   ar
    10    72    73   ar
    11    72    71    1
    12    58    57    2
    13    57    56    1
    14    89    88    1
    15    56    55    1
    16    56    59    1
    17    53    54   ar
    18    53    51   ar
    19    59    60    1
    20    54    52   ar
    21    86    88   ar
    22    86    84   ar
    23    88    87   ar
    24    51    48   ar
    25    52    50   ar
    26    60    61   ar
    27    60    62   ar
    28    84    83   ar
    29    87    85   ar
    30    48    50   ar
    31    48    46   ar
    32    61    63   ar
    33    50    49   ar
    34    62    64   ar
    35    42    43    1
    36    42    41    1
    37    42    45    1
    38    43    44    2
    39    40    38    1
    40    83    85   ar
    41    83    82    1
    42    38    35    1
    43    38    39    1
    44    78    79    1
    45    46    45    1
    46    46    47   ar
    47    49    47   ar
    48    63    65   ar
    49    35    36    1
    50    35    34    1
    51    64    65   ar
    52    36    37    2
    53    82    79    1
    54    79    80    1
    55   107   108   ar
    56   107   105   ar
    57    65    66    1
    58   108   106   ar
    59   105   103   ar
    60    80    81    2
    61   101   100    2
    62     4     3    2
    63   100    99    1
    64   106   104   ar
    65   103   104   ar
    66   103   102    1
    67     1     2    1
    68    17    19   ar
    69    17    16   ar
    70    15    16    1
    71    15    12    1
    72    33    31   ar
    73    10     9   ar
    74    10     8   ar
    75     3     2    1
    76    19    20   ar
    77    16    18   ar
    78   102    99    1
    79     9     7   ar
    80    99    98    1
    81     8     6   ar
    82    14    13    2
    83     2     5    1
    84    11    12    1
    85     7     6   ar
    86    20    18   ar
    87    20    22   ar
    88     6     5    1
    89    31    30    1
    90    31    32   ar
    91    18    21   ar
    92    12    13    1
    93    30    29    1
    94    96    95    1
    95    22    24   ar
    96    21    23   ar
    97    95    97    1
    98    95    94    1
    99    29    26    1
   100    24    23   ar
   101    90    91    1
   102    25    26    1
   103    28    27    2
   104    26    27    1
   105    94    91    1
   106    91    92    1
   107    93    92    2
