@<TRIPOS>MOLECULE
tmp/6i8yA00.pdb
 121 121 0 0 0
SMALL
GASTEIGER

@<TRIPOS>ATOM
      1  N         40.3510   -8.0040  -10.0410 N.3    45  ASP45      -0.1239
      2  CA        38.9580   -7.6830  -10.2800 C.3    45  ASP45       0.1674
      3  C         38.0180   -7.9990   -9.1120 C.2    45  ASP45       0.2266
      4  O         36.9040   -7.4500   -9.0750 O.2    45  ASP45      -0.2867
      5  CB        38.4910   -8.4430  -11.5390 C.3    45  ASP45       0.1410
      6  CG        39.2980   -8.1180  -12.7800 C.2    45  ASP45       0.3668
      7  OD1       39.7930   -6.9670  -12.9140 O.co2  45  ASP45      -0.2456
      8  OD2       39.3960   -9.0190  -13.6800 O.co2  45  ASP45      -0.2456
      9  N         28.9060  -11.7740  -19.9940 N.3    81  HIS81      -0.1226
     10  CA        30.0580  -10.8710  -19.9340 C.3    81  HIS81       0.1752
     11  C         31.2440  -11.5160  -20.6460 C.2    81  HIS81       0.2596
     12  O         31.7700  -12.5260  -20.1760 O.2    81  HIS81      -0.2718
     13  CB        30.3510  -10.5700  -18.4810 C.3    81  HIS81       0.0759
     14  CG        31.2040   -9.3620  -18.2640 C.ar   81  HIS81       0.0818
     15  ND1       31.6520   -9.0200  -17.0000 N.ar   81  HIS81      -0.2268
     16  CD2       31.6710   -8.4130  -19.1130 C.ar   81  HIS81       0.1154
     17  CE1       32.3670   -7.9070  -17.0910 C.ar   81  HIS81       0.1986
     18  NE2       32.4150   -7.5320  -18.3590 N.ar   81  HIS81      -0.2212
     19  N         31.6450  -10.9410  -21.7850 N.am   82  MET82      -0.1965
     20  CA        32.6920  -11.5170  -22.6280 C.3    82  MET82       0.1736
     21  C         34.0760  -10.9990  -22.2530 C.2    82  MET82       0.2616
     22  O         34.2260   -9.8480  -21.8380 O.2    82  MET82      -0.2715
     23  CB        32.4150  -11.1950  -24.1140 C.3    82  MET82       0.0427
     24  CG        33.3900  -11.8300  -25.0810 C.3    82  MET82       0.0599
     25  SD        32.6260  -12.1660  -26.6950 S.3    82  MET82      -0.1393
     26  CE        31.7790  -10.6050  -27.0310 C.3    82  MET82       0.0692
     27  N         35.0900  -11.8620  -22.3940 N.am   83  PHE83      -0.1960
     28  CA        36.4600  -11.4960  -22.0390 C.3    83  PHE83       0.1771
     29  C         37.4420  -12.3160  -22.8630 C.2    83  PHE83       0.2619
     30  O         37.1030  -13.3480  -23.4400 O.2    83  PHE83      -0.2715
     31  CB        36.7350  -11.6840  -20.5390 C.3    83  PHE83       0.0574
     32  CG        36.5120  -13.1100  -20.0640 C.ar   83  PHE83      -0.0200
     33  CD1       35.2430  -13.5410  -19.7790 C.ar   83  PHE83      -0.0042
     34  CD2       37.5610  -14.0080  -19.9520 C.ar   83  PHE83      -0.0042
     35  CE1       35.0080  -14.8440  -19.3450 C.ar   83  PHE83      -0.0003
     36  CE2       37.3460  -15.3060  -19.5670 C.ar   83  PHE83      -0.0003
     37  CZ        36.0580  -15.7340  -19.2570 C.ar   83  PHE83      -0.0000
     38  N         38.6800  -11.8420  -22.8900 N.am   84  GLU84      -0.1977
     39  CA        39.7480  -12.4920  -23.6350 C.3    84  GLU84       0.1602
     40  C         40.5450  -13.4000  -22.7130 C.2    84  GLU84       0.2287
     41  O         40.7780  -13.0520  -21.5540 O.2    84  GLU84      -0.2864
     42  CB        40.6600  -11.4340  -24.2660 C.3    84  GLU84       0.0415
     43  CG        41.7000  -11.9820  -25.2270 C.3    84  GLU84       0.1163
     44  CD        42.5480  -10.8940  -25.8850 C.2    84  GLU84       0.3649
     45  OE1       42.4360   -9.7020  -25.5150 O.co2  84  GLU84      -0.2457
     46  OE2       43.3400  -11.2420  -26.7850 O.co2  84  GLU84      -0.2457
     47  N         31.1720  -15.3790  -19.3760 N.3    93  TRP93      -0.1241
     48  CA        30.5230  -15.8480  -18.1600 C.3    93  TRP93       0.1605
     49  C         29.1820  -15.1600  -17.9790 C.2    93  TRP93       0.2264
     50  O         29.0680  -13.9360  -18.1550 O.2    93  TRP93      -0.2867
     51  CB        31.3610  -15.5500  -16.9200 C.3    93  TRP93       0.0550
     52  CG        32.5480  -16.3890  -16.7040 C.ar   93  TRP93       0.0003
     53  CD1       33.0530  -17.3260  -17.5190 C.ar   93  TRP93       0.0946
     54  CD2       33.3830  -16.3620  -15.5390 C.ar   93  TRP93       0.0152
     55  NE1       34.1670  -17.9230  -16.9390 N.ar   93  TRP93      -0.2442
     56  CE2       34.3950  -17.3280  -15.7290 C.ar   93  TRP93       0.0810
     57  CE3       33.3590  -15.6280  -14.3570 C.ar   93  TRP93       0.0012
     58  CZ2       35.3810  -17.5770  -14.7500 C.ar   93  TRP93       0.0191
     59  CZ3       34.3570  -15.8550  -13.3990 C.ar   93  TRP93       0.0001
     60  CH2       35.3320  -16.8260  -13.5980 C.ar   93  TRP93       0.0015
     61  N         29.0520  -14.0250  -10.6600 N.3   112  TYR112     -0.1241
     62  CA        28.9220  -14.9720  -11.7600 C.3   112  TYR112      0.1605
     63  C         28.6180  -16.3680  -11.2340 C.2   112  TYR112      0.2264
     64  O         29.1200  -16.7630  -10.1830 O.2   112  TYR112     -0.2867
     65  CB        30.1980  -15.0180  -12.5800 C.3   112  TYR112      0.0534
     66  CG        30.6190  -13.6700  -13.0790 C.ar  112  TYR112     -0.0201
     67  CD1       30.1290  -13.1900  -14.2760 C.ar  112  TYR112     -0.0009
     68  CD2       31.5520  -12.9130  -12.3960 C.ar  112  TYR112     -0.0009
     69  CE1       30.5030  -11.9290  -14.7110 C.ar  112  TYR112      0.0417
     70  CE2       31.9480  -11.6690  -12.8200 C.ar  112  TYR112      0.0417
     71  CZ        31.4430  -11.2030  -14.0400 C.ar  112  TYR112      0.1957
     72  OH        31.8610   -9.9780  -14.4630 O.3   112  TYR112     -0.2866
     73  N         32.8250   -9.3130   -7.6570 N.3   119  TYR119     -0.1241
     74  CA        33.6910   -8.6500   -8.6150 C.3   119  TYR119      0.1605
     75  C         33.2580   -7.2030   -8.8320 C.2   119  TYR119      0.2264
     76  O         32.1240   -6.8260   -8.5160 O.2   119  TYR119     -0.2867
     77  CB        33.6050   -9.3860   -9.9540 C.3   119  TYR119      0.0534
     78  CG        34.3370  -10.7100  -10.0640 C.ar  119  TYR119     -0.0201
     79  CD1       33.7870  -11.9060   -9.6170 C.ar  119  TYR119     -0.0009
     80  CD2       35.5780  -10.7530  -10.6750 C.ar  119  TYR119     -0.0009
     81  CE1       34.4990  -13.1110   -9.7570 C.ar  119  TYR119      0.0417
     82  CE2       36.2840  -11.9620  -10.8310 C.ar  119  TYR119      0.0417
     83  CZ        35.7360  -13.1240  -10.3680 C.ar  119  TYR119      0.1957
     84  OH        36.5220  -14.2460  -10.5600 O.3   119  TYR119     -0.2866
     85  N         33.6840   -4.1750  -12.0050 N.3   121  TYR121     -0.1227
     86  CA        34.1020   -3.8300  -13.3620 C.3   121  TYR121      0.1736
     87  C         33.4290   -2.5380  -13.8170 C.2   121  TYR121      0.2595
     88  O         32.3290   -2.2130  -13.3700 O.2   121  TYR121     -0.2718
     89  CB        33.7380   -4.9510  -14.3740 C.3   121  TYR121      0.0548
     90  CG        34.5610   -6.2260  -14.2950 C.ar  121  TYR121     -0.0200
     91  CD1       35.8870   -6.2460  -14.7370 C.ar  121  TYR121     -0.0009
     92  CD2       34.0160   -7.4060  -13.7690 C.ar  121  TYR121     -0.0009
     93  CE1       36.6310   -7.4120  -14.6450 C.ar  121  TYR121      0.0417
     94  CE2       34.7310   -8.5660  -13.7410 C.ar  121  TYR121      0.0417
     95  CZ        36.0420   -8.5710  -14.1590 C.ar  121  TYR121      0.1957
     96  OH        36.7530   -9.7330  -14.0770 O.3   121  TYR121     -0.2866
     97  N         34.0400   -1.9010  -14.8360 N.am  122  GLN122     -0.1979
     98  CA        33.4950   -0.7000  -15.4700 C.3   122  GLN122      0.1601
     99  C         32.5690   -1.1680  -16.5890 C.2   122  GLN122      0.2287
    100  O         32.9040   -1.1630  -17.7960 O.2   122  GLN122     -0.2864
    101  CB        34.6110    0.1970  -15.9820 C.3   122  GLN122      0.0394
    102  CG        35.4110    0.8120  -14.8780 C.3   122  GLN122      0.0908
    103  CD        36.4530    1.7710  -15.4020 C.2   122  GLN122      0.2608
    104  OE1       37.4240    1.3700  -16.0370 O.2   122  GLN122     -0.2717
    105  NE2       36.2350    3.0470  -15.1610 N.am  122  GLN122     -0.0878
    106  N         31.6180    0.7890  -19.8490 N.3   125  ASP125     -0.1225
    107  CA        32.6500    0.7200  -20.8770 C.3   125  ASP125      0.1805
    108  C         32.5680   -0.6130  -21.6140 C.2   125  ASP125      0.2597
    109  O         32.6200   -0.6500  -22.8600 O.2   125  ASP125     -0.2718
    110  CB        34.0300    0.9070  -20.2600 C.3   125  ASP125      0.1424
    111  CG        34.3710    2.3630  -19.9950 C.2   125  ASP125      0.3668
    112  OD1       33.5940    3.2570  -20.3920 O.co2 125  ASP125     -0.2456
    113  OD2       35.4360    2.6110  -19.3880 O.co2 125  ASP125     -0.2456
    114  N         32.5060   -1.7250  -20.8520 N.am  126  ASP126     -0.1974
    115  CA        32.4200   -3.0370  -21.4800 C.3   126  ASP126      0.1709
    116  C         31.1960   -3.1270  -22.3940 C.2   126  ASP126      0.2293
    117  O         31.2620   -3.7140  -23.4770 O.2   126  ASP126     -0.2864
    118  CB        32.3970   -4.1450  -20.4140 C.3   126  ASP126      0.1436
    119  CG        33.7360   -4.3580  -19.7740 C.2   126  ASP126      0.3671
    120  OD1       34.7040   -3.6390  -20.1430 O.co2 126  ASP126     -0.2456
    121  OD2       33.8240   -5.2450  -18.8830 O.co2 126  ASP126     -0.2456
@<TRIPOS>BOND
     1    26    25    1
     2    46    44   ar
     3    25    24    1
     4    44    45   ar
     5    44    43    1
     6    43    42    1
     7    24    23    1
     8    42    39    1
     9    23    20    1
    10    39    38    1
    11    39    40    1
    12   117   116    2
    13    30    29    2
    14    38    29   am
    15    29    28    1
    16   109   108    2
    17    40    41    2
    18    20    21    1
    19    20    19    1
    20   116   115    1
    21    27    21   am
    22    27    28    1
    23    21    22    2
    24    28    31    1
    25    19    11   am
    26   108   107    1
    27   108   114   am
    28   115   114    1
    29   115   118    1
    30   107   110    1
    31   107   106    1
    32    11    12    2
    33    11    10    1
    34    31    32    1
    35   118   119    1
    36   112   111   ar
    37   110   111    1
    38   120   119   ar
    39    32    34   ar
    40    32    33   ar
    41   111   113   ar
    42     9    10    1
    43    34    36   ar
    44    10    13    1
    45    33    35   ar
    46   119   121   ar
    47    36    37   ar
    48    47    48    1
    49    35    37   ar
    50    16    18   ar
    51    16    14   ar
    52    13    14    1
    53    18    17   ar
    54    14    15   ar
    55    48    49    1
    56    48    51    1
    57    50    49    2
    58   100    99    2
    59    53    55   ar
    60    53    52   ar
    61    17    15   ar
    62    55    56   ar
    63    51    52    1
    64    52    54   ar
    65    99    98    1
    66   104   103    2
    67   101    98    1
    68   101   102    1
    69    56    54   ar
    70    56    58   ar
    71    54    57   ar
    72    98    97    1
    73   103   105   am
    74   103   102    1
    75    97    87   am
    76    58    60   ar
    77    91    93   ar
    78    91    90   ar
    79    69    67   ar
    80    69    71   ar
    81    93    95   ar
    82    72    71    1
    83    89    90    1
    84    89    86    1
    85    57    59   ar
    86    90    92   ar
    87    67    66   ar
    88    95    96    1
    89    95    94   ar
    90    71    70   ar
    91    87    88    2
    92    87    86    1
    93    92    94   ar
    94     8     6   ar
    95    60    59   ar
    96    86    85    1
    97    66    65    1
    98    66    68   ar
    99     7     6   ar
   100    70    68   ar
   101     6     5    1
   102    65    62    1
   103    62    63    1
   104    62    61    1
   105     5     2    1
   106    63    64    2
   107    82    80   ar
   108    82    83   ar
   109    80    78   ar
   110    84    83    1
   111    83    81   ar
   112     2     1    1
   113     2     3    1
   114    78    77    1
   115    78    79   ar
   116    77    74    1
   117    81    79   ar
   118     3     4    2
   119    75    74    1
   120    75    76    2
   121    74    73    1
