@<TRIPOS>MOLECULE
tmp/6i8zA00.pdb
 187 176 0 0 0
SMALL
GASTEIGER

@<TRIPOS>ATOM
      1  N          4.8010   29.4650   39.2810 N.3    13  ARG13      -0.1231
      2  CA         5.4380   30.4600   38.4160 C.3    13  ARG13       0.1694
      3  C          5.1560   30.2500   36.9310 C.2    13  ARG13       0.2592
      4  O          4.9270   29.1270   36.4810 O.2    13  ARG13      -0.2718
      5  CB         6.9690   30.5460   38.6640 C.3    13  ARG13       0.0321
      6  CG         7.8040   29.3580   38.1530 C.3    13  ARG13       0.0489
      7  CD         9.2840   29.5620   38.4330 C.3    13  ARG13       0.2205
      8  NE        10.0580   28.3190   38.3260 N.pl3  13  ARG13      -0.0865
      9  CZ        10.6270   27.8360   37.2180 C.cat  13  ARG13       0.5346
     10  NH1       10.5170   28.4850   36.0620 N.pl3  13  ARG13       0.1354
     11  NH2       11.3080   26.6960   37.2590 N.pl3  13  ARG13       0.1354
     12  N          5.2130   31.3470   36.1760 N.am   14  CYS14      -0.1956
     13  CA         5.0290   31.3410   34.7310 C.3    14  CYS14       0.1843
     14  C          6.2350   30.6360   34.0740 C.2    14  CYS14       0.2625
     15  O          7.3770   30.9030   34.4440 O.2    14  CYS14      -0.2714
     16  CB         4.8580   32.7690   34.2140 C.3    14  CYS14       0.0997
     17  SG         4.7070   32.8980   32.4150 S.3    14  CYS14      -0.0797
     18  N          5.9750   29.6870   33.1640 N.am   15  ILE15      -0.1963
     19  CA         7.0200   28.9350   32.4470 C.3    15  ILE15       0.1727
     20  C          7.0410   29.2280   30.9500 C.2    15  ILE15       0.2617
     21  O          7.9500   28.7750   30.2570 O.2    15  ILE15      -0.2715
     22  CB         6.9330   27.4070   32.7180 C.3    15  ILE15       0.0290
     23  CG1        5.5390   26.8310   32.3910 C.3    15  ILE15       0.0022
     24  CG2        7.3260   27.0970   34.1570 C.3    15  ILE15       0.0023
     25  CD1        5.5030   25.3340   32.3360 C.3    15  ILE15       0.0001
     26  N          6.0590   29.9620   30.4490 N.am   16  GLY16      -0.1940
     27  CA         6.0090   30.2740   29.0320 C.3    16  GLY16       0.2014
     28  C          4.7380   30.9920   28.6440 C.2    16  GLY16       0.2638
     29  O          3.9400   31.3810   29.5010 O.2    16  GLY16      -0.2714
     30  N          4.5580   31.1720   27.3420 N.am   17  GLU17      -0.1977
     31  CA         3.3910   31.8330   26.7830 C.3    17  GLU17       0.1602
     32  C          2.8990   31.0180   25.6120 C.2    17  GLU17       0.2287
     33  O          3.6990   30.3960   24.9050 O.2    17  GLU17      -0.2864
     34  CB         3.7370   33.2590   26.2920 C.3    17  GLU17       0.0415
     35  CG         4.6320   34.0730   27.2200 C.3    17  GLU17       0.1163
     36  CD         6.1290   33.8400   27.0950 C.2    17  GLU17       0.3649
     37  OE1        6.6310   33.7330   25.9510 O.co2  17  GLU17      -0.2457
     38  OE2        6.8050   33.7800   28.1470 O.co2  17  GLU17      -0.2457
     39  N          1.5320   30.1950   30.4380 N.3    23  VAL23      -0.1245
     40  CA         1.6100   28.7980   30.8330 C.3    23  VAL23       0.1561
     41  C          2.3450   28.8380   32.1830 C.2    23  VAL23       0.2260
     42  O          3.3680   29.5230   32.3110 O.2    23  VAL23      -0.2867
     43  CB         2.3730   27.9450   29.7760 C.3    23  VAL23       0.0252
     44  CG1        2.3300   26.4570   30.1370 C.3    23  VAL23       0.0019
     45  CG2        1.8030   28.1730   28.3660 C.3    23  VAL23       0.0019
     46  N          3.7120   26.5460   35.8680 N.3    25  GLN25      -0.1245
     47  CA         3.9570   25.2640   36.4920 C.3    25  GLN25       0.1566
     48  C          3.0660   25.3350   37.7280 C.2    25  GLN25       0.2260
     49  O          2.6470   26.4200   38.1310 O.2    25  GLN25      -0.2867
     50  CB         5.4300   25.0160   36.8530 C.3    25  GLN25       0.0367
     51  CG         6.0450   25.9250   37.9170 C.3    25  GLN25       0.0905
     52  CD         7.4110   25.4130   38.2780 C.2    25  GLN25       0.2608
     53  OE1        7.6490   24.9310   39.3810 O.2    25  GLN25      -0.2717
     54  NE2        8.3460   25.4970   37.3590 N.am   25  GLN25      -0.0878
     55  N          1.7710   21.2520   34.4930 N.3    39  ALA39      -0.1245
     56  CA         1.8760   22.4690   33.7010 C.3    39  ALA39       0.1562
     57  C          0.4270   22.9400   33.4910 C.2    39  ALA39       0.2260
     58  O         -0.4580   22.1000   33.3240 O.2    39  ALA39      -0.2867
     59  CB         2.5610   22.1940   32.3710 C.3    39  ALA39       0.0290
     60  N         -1.9860   25.5250   31.2950 N.3    41  LYS41      -0.1245
     61  CA        -2.1770   26.4880   30.2210 C.3    41  LYS41       0.1561
     62  C         -3.3680   27.3400   30.6300 C.2    41  LYS41       0.2260
     63  O         -4.4030   26.7940   31.0190 O.2    41  LYS41      -0.2867
     64  CB        -2.4840   25.8090   28.8800 C.3    41  LYS41       0.0271
     65  CG        -1.3290   25.0120   28.2890 C.3    41  LYS41       0.0035
     66  CD        -1.7960   24.0800   27.1550 C.3    41  LYS41       0.0206
     67  CE        -2.4140   24.8180   25.9730 C.3    41  LYS41       0.1093
     68  NZ        -2.8850   23.8800   24.9170 N.3    41  LYS41      -0.1314
     69  N          3.9200   14.7670   25.7170 N.3    71  VAL71      -0.1245
     70  CA         3.2760   15.2160   26.9570 C.3    71  VAL71       0.1561
     71  C          1.8210   14.7900   27.0000 C.2    71  VAL71       0.2260
     72  O          1.1200   14.8930   25.9950 O.2    71  VAL71      -0.2867
     73  CB         3.3890   16.7390   27.2420 C.3    71  VAL71       0.0252
     74  CG1        4.8270   17.1400   27.4980 C.3    71  VAL71       0.0019
     75  CG2        2.7550   17.5880   26.1400 C.3    71  VAL71       0.0019
     76  N         -1.7110   19.8580   32.2410 N.3    86  MET86      -0.1230
     77  CA        -0.8760   18.9300   31.5060 C.3    86  MET86       0.1702
     78  C          0.1870   18.3790   32.4240 C.2    86  MET86       0.2592
     79  O          0.4620   18.9350   33.4810 O.2    86  MET86      -0.2718
     80  CB        -0.1690   19.6560   30.3470 C.3    86  MET86       0.0401
     81  CG        -1.0920   20.3020   29.3200 C.3    86  MET86       0.0596
     82  SD        -2.0280   19.1180   28.3350 S.3    86  MET86      -0.1393
     83  CE        -0.7280   18.3870   27.3360 C.3    86  MET86       0.0692
     84  N          0.8360   17.3130   31.9700 N.am   87  GLU87      -0.1966
     85  CA         2.0080   16.7130   32.6150 C.3    87  GLU87       0.1733
     86  C          3.1180   17.7760   32.6250 C.2    87  GLU87       0.2616
     87  O          3.2000   18.5440   31.6770 O.2    87  GLU87      -0.2715
     88  CB         2.4760   15.5310   31.7480 C.3    87  GLU87       0.0429
     89  CG         3.7670   14.8570   32.1650 C.3    87  GLU87       0.1163
     90  CD         4.2600   13.8690   31.1280 C.2    87  GLU87       0.3649
     91  OE1        3.5060   13.5560   30.1770 O.co2  87  GLU87      -0.2457
     92  OE2        5.4120   13.4030   31.2700 O.co2  87  GLU87      -0.2457
     93  N          3.9400   17.8460   33.6830 N.am   88  LEU88      -0.1963
     94  CA         5.0480   18.8030   33.7150 C.3    88  LEU88       0.1728
     95  C          6.3330   18.0650   33.3840 C.2    88  LEU88       0.2616
     96  O          6.5780   16.9950   33.9380 O.2    88  LEU88      -0.2715
     97  CB         5.1960   19.4580   35.0940 C.3    88  LEU88       0.0311
     98  CG         6.2630   20.5780   35.2160 C.3    88  LEU88       0.0022
     99  CD1        5.8470   21.8480   34.4650 C.3    88  LEU88       0.0001
    100  CD2        6.5170   20.9200   36.6730 C.3    88  LEU88       0.0001
    101  N          7.1410   18.6360   32.4830 N.am   89  CYS89      -0.1954
    102  CA         8.4770   18.1390   32.1390 C.3    89  CYS89       0.1843
    103  C          9.3720   19.0720   32.9420 C.2    89  CYS89       0.2626
    104  O          9.5460   20.2370   32.5620 O.2    89  CYS89      -0.2714
    105  CB         8.7170   18.2420   30.6360 C.3    89  CYS89       0.0997
    106  SG         7.6600   17.1370   29.6620 S.3    89  CYS89      -0.0797
    107  N          9.8020   18.6060   34.1380 N.am   90  THR90      -0.1936
    108  CA        10.4900   19.4480   35.1270 C.3    90  THR90       0.2028
    109  C         11.7920   20.1030   34.6840 C.2    90  THR90       0.2642
    110  O         12.1100   21.1460   35.2440 O.2    90  THR90      -0.2714
    111  CB        10.7510   18.7080   36.4590 C.3    90  THR90       0.1808
    112  OG1       11.6050   17.5830   36.2380 O.3    90  THR90      -0.2208
    113  CG2        9.4680   18.2830   37.1610 C.3    90  THR90       0.0379
    114  N         12.5550   19.5260   33.7270 N.am   91  LEU91      -0.1963
    115  CA        13.8240   20.1320   33.3070 C.3    91  LEU91       0.1728
    116  C         13.6700   21.1790   32.1880 C.2    91  LEU91       0.2617
    117  O         14.6650   21.7450   31.7440 O.2    91  LEU91      -0.2715
    118  CB        14.8570   19.0480   32.9460 C.3    91  LEU91       0.0311
    119  CG        15.2140   18.0890   34.0930 C.3    91  LEU91       0.0022
    120  CD1       16.2810   17.1010   33.6700 C.3    91  LEU91       0.0001
    121  CD2       15.6830   18.8380   35.3100 C.3    91  LEU91       0.0001
    122  N         12.4330   21.4720   31.7950 N.am   92  GLY92      -0.1940
    123  CA        12.1160   22.5510   30.8900 C.3    92  GLY92       0.2014
    124  C         12.3730   22.3130   29.4230 C.2    92  GLY92       0.2638
    125  O         12.3080   21.1830   28.9360 O.2    92  GLY92      -0.2714
    126  N         12.6360   23.4090   28.7200 N.am   93  GLU93      -0.1977
    127  CA        12.8400   23.4400   27.2700 C.3    93  GLU93       0.1602
    128  C         14.1940   22.8370   26.8670 C.2    93  GLU93       0.2287
    129  O         15.2150   23.1070   27.5100 O.2    93  GLU93      -0.2864
    130  CB        12.7260   24.8890   26.7790 C.3    93  GLU93       0.0415
    131  CG        11.3160   25.4490   26.9190 C.3    93  GLU93       0.1163
    132  CD        11.2750   26.9520   27.0920 C.2    93  GLU93       0.3649
    133  OE1       11.6910   27.4340   28.1670 O.co2  93  GLU93      -0.2457
    134  OE2       10.8310   27.6500   26.1560 O.co2  93  GLU93      -0.2457
    135  N         12.6810   23.9740   19.8380 N.3   137  ARG137     -0.1231
    136  CA        11.9080   24.8390   20.7440 C.3   137  ARG137      0.1694
    137  C         10.6160   24.1660   21.2840 C.2   137  ARG137      0.2592
    138  O         10.1230   24.5410   22.3500 O.2   137  ARG137     -0.2718
    139  CB        11.5800   26.2030   20.1020 C.3   137  ARG137      0.0321
    140  CG        10.6980   26.1580   18.8500 C.3   137  ARG137      0.0489
    141  CD         9.8310   27.3970   18.7010 C.3   137  ARG137      0.2205
    142  NE         8.7130   27.3880   19.6500 N.pl3 137  ARG137     -0.0865
    143  CZ         7.6180   28.1470   19.5680 C.cat 137  ARG137      0.5346
    144  NH1        7.4670   29.0110   18.5660 N.pl3 137  ARG137      0.1354
    145  NH2        6.6590   28.0390   20.4820 N.pl3 137  ARG137      0.1354
    146  N         10.0900   23.1750   20.5630 N.am  138  ASN138     -0.1974
    147  CA         8.8740   22.4620   20.9610 C.3   138  ASN138      0.1688
    148  C          9.1230   21.1270   21.6720 C.2   138  ASN138      0.2292
    149  O          8.1680   20.3900   21.9310 O.2   138  ASN138     -0.2864
    150  CB         7.9940   22.2780   19.7120 C.3   138  ASN138      0.1181
    151  CG         7.6060   23.5920   19.0550 C.2   138  ASN138      0.2629
    152  OD1        7.5230   23.7270   17.8220 O.2   138  ASN138     -0.2716
    153  ND2        7.3440   24.6040   19.8350 N.am  138  ASN138     -0.0877
    154  N         10.5140   19.1530   25.1600 N.3   140  LEU140     -0.1245
    155  CA        10.7110   19.3810   26.5980 C.3   140  LEU140      0.1561
    156  C         11.5490   18.2600   27.1880 C.2   140  LEU140      0.2260
    157  O         11.6070   17.1750   26.6200 O.2   140  LEU140     -0.2867
    158  CB         9.3640   19.4680   27.3230 C.3   140  LEU140      0.0270
    159  CG         8.3580   20.4740   26.7290 C.3   140  LEU140      0.0019
    160  CD1        6.9890   20.2590   27.3230 C.3   140  LEU140      0.0001
    161  CD2        8.8250   21.9100   26.9600 C.3   140  LEU140      0.0001
    162  N          6.3590   18.5740   23.1520 N.3   150  GLY150     -0.1210
    163  CA         5.5320   19.4550   23.9650 C.3   150  GLY150      0.1956
    164  C          4.0890   19.5130   23.4890 C.2   150  GLY150      0.2611
    165  O          3.7140   18.8390   22.5250 O.2   150  GLY150     -0.2717
    166  N          3.2720   20.3430   24.1490 N.am  151  ASP151     -0.1973
    167  CA         1.8590   20.4990   23.7950 C.3   151  ASP151      0.1709
    168  C          1.7330   20.9720   22.3430 C.2   151  ASP151      0.2293
    169  O          2.5130   21.8170   21.9180 O.2   151  ASP151     -0.2864
    170  CB         1.1700   21.4770   24.7520 C.3   151  ASP151      0.1436
    171  CG        -0.2730   21.6870   24.3770 C.2   151  ASP151      0.3671
    172  OD1       -1.0560   20.7320   24.4950 O.co2 151  ASP151     -0.2456
    173  OD2       -0.6050   22.7860   23.8990 O.co2 151  ASP151     -0.2456
    174  N          0.8160   24.7220   22.1260 N.3   154  LEU154     -0.1231
    175  CA         1.9540   25.5840   22.4470 C.3   154  LEU154      0.1693
    176  C          3.0390   25.4780   21.3680 C.2   154  LEU154      0.2592
    177  O          3.8230   26.4100   21.2100 O.2   154  LEU154     -0.2718
    178  CB         2.5380   25.2430   23.8270 C.3   154  LEU154      0.0284
    179  CG         1.5760   25.4020   25.0160 C.3   154  LEU154      0.0019
    180  CD1        2.2320   24.9370   26.3100 C.3   154  LEU154      0.0001
    181  CD2        1.1200   26.8500   25.1660 C.3   154  LEU154      0.0001
    182  N          3.0680   24.3720   20.6040 N.am  155  SER155     -0.1952
    183  CA         4.0650   24.2050   19.5460 C.3   155  SER155      0.1924
    184  C          3.8350   25.0690   18.2800 C.2   155  SER155      0.2314
    185  O          4.7810   25.2450   17.5100 O.2   155  SER155     -0.2863
    186  CB         4.2020   22.7320   19.1660 C.3   155  SER155      0.2116
    187  OG         4.6990   21.9930   20.2710 O.3   155  SER155     -0.2180
@<TRIPOS>BOND
     1   185   184    2
     2   152   151    2
     3   184   183    1
     4   144   143    1
     5   141   140    1
     6   141   142    1
     7   140   139    1
     8   151   150    1
     9   151   153   am
    10   186   183    1
    11   186   187    1
    12   183   182    1
    13   143   142    2
    14   143   145    1
    15   150   147    1
    16   135   136    1
    17   139   136    1
    18   146   147    1
    19   146   137   am
    20   182   176   am
    21   136   137    1
    22   147   148    1
    23   177   176    2
    24   137   138    2
    25   176   175    1
    26   148   149    2
    27   169   168    2
    28   174   175    1
    29   168   167    1
    30   175   178    1
    31   165   164    2
    32   162   163    1
    33   164   163    1
    34   164   166   am
    35   167   166    1
    36   167   170    1
    37   178   179    1
    38   173   171   ar
    39   171   172   ar
    40   171   170    1
    41    33    32    2
    42    68    67    1
    43   179   181    1
    44   179   180    1
    45   154   155    1
    46    32    31    1
    47    69    70    1
    48    37    36   ar
    49    67    66    1
    50    72    71    2
    51    75    73    1
    52   134   132   ar
    53    34    31    1
    54    34    35    1
    55   155   156    1
    56   155   158    1
    57   157   156    2
    58   159   161    1
    59   159   160    1
    60   159   158    1
    61   130   131    1
    62   130   127    1
    63    31    30    1
    64   128   127    1
    65   128   129    2
    66   131   132    1
    67    70    71    1
    68    70    73    1
    69   132   133   ar
    70    36    35    1
    71    36    38   ar
    72    66    65    1
    73    73    74    1
    74   127   126    1
    75    83    82    1
    76    30    28   am
    77    65    64    1
    78    82    81    1
    79    45    43    1
    80    28    27    1
    81    28    29    2
    82   126   124   am
    83    64    61    1
    84   125   124    2
    85    27    26    1
    86    81    80    1
    87   124   123    1
    88   106   105    1
    89    43    44    1
    90    43    40    1
    91    91    90   ar
    92    61    62    1
    93    61    60    1
    94    21    20    2
    95    80    77    1
    96    39    40    1
    97    26    20   am
    98    62    63    2
    99   105   102    1
   100    40    41    1
   101   123   122    1
   102    20    19    1
   103    90    92   ar
   104    90    89    1
   105    77    76    1
   106    77    78    1
   107    87    86    2
   108   117   116    2
   109    88    89    1
   110    88    85    1
   111   122   116   am
   112    84    78   am
   113    84    85    1
   114   102   101    1
   115   102   103    1
   116    41    42    2
   117   116   115    1
   118    25    23    1
   119    59    56    1
   120    23    22    1
   121    17    16    1
   122    78    79    2
   123    19    22    1
   124    19    18    1
   125   101    95   am
   126   104   103    2
   127    85    86    1
   128    86    93   am
   129    22    24    1
   130   103   107   am
   131   118   115    1
   132   118   119    1
   133    18    14   am
   134   115   114    1
   135    58    57    2
   136    95    94    1
   137    95    96    2
   138    57    56    1
   139   120   119    1
   140    93    94    1
   141    56    55    1
   142    94    97    1
   143   114   109   am
   144    14    15    2
   145    14    13    1
   146   119   121    1
   147   107   108    1
   148    16    13    1
   149    99    98    1
   150   109   108    1
   151   109   110    2
   152    13    12    1
   153    97    98    1
   154   108   111    1
   155    98   100    1
   156    46    47    1
   157    10     9    1
   158    12     3   am
   159   112   111    1
   160   111   113    1
   161     4     3    2
   162    47    50    1
   163    47    48    1
   164    50    51    1
   165     3     2    1
   166     9    11    1
   167     9     8    2
   168    54    52   am
   169    48    49    2
   170    51    52    1
   171     6     7    1
   172     6     5    1
   173    52    53    2
   174     8     7    1
   175     2     5    1
   176     2     1    1
