@<TRIPOS>MOLECULE
tmp/6i9aB00.pdb
 155 153 0 0 0
SMALL
GASTEIGER

@<TRIPOS>ATOM
      1  N         -1.6600  -56.8110   46.7740 N.3   163  TRP163     -0.1241
      2  CA        -0.8830  -57.0970   45.5540 C.3   163  TRP163      0.1605
      3  C         -0.4420  -55.8420   44.8210 C.2   163  TRP163      0.2264
      4  O          0.4880  -55.9520   44.0060 O.2   163  TRP163     -0.2867
      5  CB        -1.7150  -57.9790   44.6060 C.3   163  TRP163      0.0550
      6  CG        -1.9110  -59.3820   45.0630 C.ar  163  TRP163      0.0003
      7  CD1       -3.0440  -59.9180   45.6170 C.ar  163  TRP163      0.0946
      8  CD2       -0.9610  -60.4410   44.9840 C.ar  163  TRP163      0.0152
      9  NE1       -2.8570  -61.2710   45.8560 N.ar  163  TRP163     -0.2442
     10  CE2       -1.5650  -61.6040   45.5210 C.ar  163  TRP163      0.0810
     11  CE3        0.3540  -60.5180   44.4840 C.ar  163  TRP163      0.0012
     12  CZ2       -0.8970  -62.8270   45.5960 C.ar  163  TRP163      0.0191
     13  CZ3        1.0040  -61.7380   44.5400 C.ar  163  TRP163      0.0001
     14  CH2        0.3890  -62.8830   45.0950 C.ar  163  TRP163      0.0015
     15  N          3.2440  -56.7600   43.5540 N.3   167  VAL167     -0.1245
     16  CA         3.3530  -57.1680   42.1540 C.3   167  VAL167      0.1561
     17  C          2.9730  -56.0260   41.2050 C.2   167  VAL167      0.2260
     18  O          3.6560  -55.8770   40.1880 O.2   167  VAL167     -0.2867
     19  CB         2.4870  -58.4290   41.9020 C.3   167  VAL167      0.0252
     20  CG1        2.2800  -58.6800   40.4080 C.3   167  VAL167      0.0019
     21  CG2        3.1570  -59.6340   42.5390 C.3   167  VAL167      0.0019
     22  N         -2.8370  -53.5270   35.1170 N.3   214  THR214     -0.1203
     23  CA        -2.6840  -54.7710   35.8700 C.3   214  THR214      0.1994
     24  C         -3.3020  -54.5920   37.2320 C.2   214  THR214      0.2618
     25  O         -2.8670  -53.7280   38.0110 O.2   214  THR214     -0.2717
     26  CB        -1.1900  -55.2520   35.9660 C.3   214  THR214      0.1784
     27  OG1       -1.2080  -56.4300   36.7820 O.3   214  THR214     -0.2211
     28  CG2       -0.2120  -54.1840   36.5260 C.3   214  THR214      0.0376
     29  N         -4.3860  -55.3440   37.5110 N.am  215  ALA215     -0.1965
     30  CA        -5.1670  -55.3580   38.7800 C.3   215  ALA215      0.1728
     31  C         -6.4770  -56.0610   38.4450 C.2   215  ALA215      0.2616
     32  O         -6.4570  -57.0250   37.6840 O.2   215  ALA215     -0.2715
     33  CB        -5.3700  -53.9670   39.3840 C.3   215  ALA215      0.0334
     34  N         -7.5980  -55.6680   39.0580 N.am  216  HIS216     -0.1959
     35  CA        -8.8410  -56.4620   38.9160 C.3   216  HIS216      0.1787
     36  C         -9.6060  -56.1320   37.6520 C.2   216  HIS216      0.2621
     37  O         -9.6910  -54.9640   37.2480 O.2   216  HIS216     -0.2715
     38  CB        -9.7700  -56.1740   40.0950 C.3   216  HIS216      0.0785
     39  CG        -9.1430  -56.3640   41.4400 C.ar  216  HIS216      0.0821
     40  ND1       -9.4770  -55.5290   42.5060 N.ar  216  HIS216     -0.2267
     41  CD2       -8.1710  -57.2090   41.8570 C.ar  216  HIS216      0.1154
     42  CE1       -8.7200  -55.9080   43.5300 C.ar  216  HIS216      0.1986
     43  NE2       -7.9230  -56.9010   43.2010 N.ar  216  HIS216     -0.2212
     44  N        -10.1880  -57.1710   37.0680 N.am  217  GLY217     -0.1940
     45  CA       -11.0100  -57.0000   35.8730 C.3   217  GLY217      0.2014
     46  C        -12.3500  -57.6790   36.0330 C.2   217  GLY217      0.2640
     47  O        -12.5200  -58.6200   36.7890 O.2   217  GLY217     -0.2714
     48  N        -13.3020  -57.1590   35.2560 N.am  218  SER218     -0.1935
     49  CA       -14.6140  -57.8000   35.0940 C.3   218  SER218      0.2055
     50  C        -14.8480  -58.0290   33.6050 C.2   218  SER218      0.2642
     51  O        -14.0280  -57.6320   32.7870 O.2   218  SER218     -0.2714
     52  CB       -15.7490  -56.9780   35.6960 C.3   218  SER218      0.2130
     53  OG       -16.0350  -55.9170   34.8020 O.3   218  SER218     -0.2179
     54  N        -15.9890  -58.6170   33.2420 N.am  219  GLU219     -0.1976
     55  CA       -16.2110  -58.8900   31.8110 C.3   219  GLU219      0.1602
     56  C        -16.2830  -57.6180   31.0150 C.2   219  GLU219      0.2287
     57  O        -16.0140  -57.6320   29.8280 O.2   219  GLU219     -0.2864
     58  CB       -17.5370  -59.6640   31.5960 C.3   219  GLU219      0.0415
     59  CG       -17.6740  -60.9720   32.3660 C.3   219  GLU219      0.1163
     60  CD       -18.2750  -60.8780   33.7680 C.2   219  GLU219      0.3649
     61  OE1      -18.2640  -59.7710   34.3660 O.co2 219  GLU219     -0.2457
     62  OE2      -18.7050  -61.9360   34.2710 O.co2 219  GLU219     -0.2457
     63  N        -11.4820  -52.7780   36.5380 N.3   223  ALA223     -0.1231
     64  CA       -12.3750  -52.4860   37.6480 C.3   223  ALA223      0.1694
     65  C        -11.9570  -51.3300   38.5610 C.2   223  ALA223      0.2592
     66  O        -12.8410  -50.6560   39.1420 O.2   223  ALA223     -0.2718
     67  CB       -12.5840  -53.7120   38.4850 C.3   223  ALA223      0.0304
     68  N        -10.6600  -51.0990   38.7890 N.am  224  ASP224     -0.1974
     69  CA       -10.2730  -50.0710   39.7680 C.3   224  ASP224      0.1709
     70  C         -8.8200  -49.6810   39.5500 C.2   224  ASP224      0.2293
     71  O         -7.9280  -50.4660   39.9290 O.2   224  ASP224     -0.2864
     72  CB       -10.4750  -50.5730   41.2380 C.3   224  ASP224      0.1436
     73  CG       -10.2760  -49.4970   42.2640 C.2   224  ASP224      0.3671
     74  OD1       -9.7920  -48.4220   41.9110 O.co2 224  ASP224     -0.2456
     75  OD2      -10.5700  -49.7530   43.4600 O.co2 224  ASP224     -0.2456
     76  N         -4.0280  -57.1220   32.0020 N.3   247  ASN247     -0.1240
     77  CA        -3.5440  -58.2500   32.8120 C.3   247  ASN247      0.1653
     78  C         -4.4250  -58.3070   34.0550 C.2   247  ASN247      0.2266
     79  O         -4.1300  -57.6770   35.0910 O.2   247  ASN247     -0.2867
     80  CB        -2.0440  -58.0380   33.1560 C.3   247  ASN247      0.1155
     81  CG        -1.1830  -58.1310   31.8990 C.2   247  ASN247      0.2627
     82  OD1       -0.4810  -57.1880   31.5580 O.2   247  ASN247     -0.2716
     83  ND2       -1.2530  -59.2720   31.2170 N.am  247  ASN247     -0.0877
     84  N         -8.6320  -60.2570   35.3410 N.3   249  CYS249     -0.1221
     85  CA        -9.6400  -61.2430   35.0160 C.3   249  CYS249      0.1808
     86  C        -10.5600  -60.7990   33.8910 C.2   249  CYS249      0.2601
     87  O        -10.8940  -59.6090   33.7670 O.2   249  CYS249     -0.2717
     88  CB       -10.5140  -61.5100   36.2400 C.3   249  CYS249      0.0970
     89  SG        -9.6330  -62.2200   37.6570 S.3   249  CYS249     -0.0800
     90  N        -10.9980  -61.8040   33.1090 N.am  250  ILE250     -0.1979
     91  CA       -12.2000  -61.9630   32.2710 C.3   250  ILE250      0.1595
     92  C        -12.5820  -60.8030   31.3270 C.2   250  ILE250      0.2287
     93  O        -13.6310  -60.9450   30.6730 O.2   250  ILE250     -0.2864
     94  CB       -13.4520  -62.3430   33.1700 C.3   250  ILE250      0.0276
     95  CG1      -13.8650  -61.2380   34.1550 C.3   250  ILE250      0.0022
     96  CG2      -13.1630  -63.6600   33.8820 C.3   250  ILE250      0.0022
     97  CD1      -15.0660  -61.6140   35.0770 C.3   250  ILE250      0.0001
     98  N        -10.5120  -65.9660   34.7040 N.3   282  ASN282     -0.1225
     99  CA        -9.7140  -65.1980   35.6550 C.3   282  ASN282      0.1785
    100  C         -8.2460  -65.2740   35.2840 C.2   282  ASN282      0.2598
    101  O         -7.7690  -66.2900   34.7850 O.2   282  ASN282     -0.2718
    102  CB        -9.8910  -65.7760   37.0760 C.3   282  ASN282      0.1169
    103  CG       -11.2850  -65.6400   37.5870 C.2   282  ASN282      0.2627
    104  OD1      -12.0870  -64.8830   37.0990 O.2   282  ASN282     -0.2716
    105  ND2      -11.5480  -66.3300   38.6940 N.am  282  ASN282     -0.0877
    106  N         -7.5430  -64.1850   35.5480 N.am  283  SER283     -0.1938
    107  CA        -6.0690  -64.2530   35.4740 C.3   283  SER283      0.2055
    108  C         -5.5550  -64.2620   36.9180 C.2   283  SER283      0.2643
    109  O         -6.3400  -64.0650   37.8430 O.2   283  SER283     -0.2714
    110  CB        -5.4370  -63.1280   34.6520 C.3   283  SER283      0.2130
    111  OG        -5.4570  -61.8970   35.3520 O.3   283  SER283     -0.2179
    112  N         -4.2720  -64.5270   37.1220 N.am  284  TYR284     -0.1959
    113  CA        -3.7130  -64.6800   38.4540 C.3   284  TYR284      0.1771
    114  C         -2.5380  -63.7620   38.6650 C.2   284  TYR284      0.2619
    115  O         -1.7500  -63.5120   37.7520 O.2   284  TYR284     -0.2715
    116  CB        -3.3350  -66.1680   38.6600 C.3   284  TYR284      0.0574
    117  CG        -4.5650  -67.0410   38.8070 C.ar  284  TYR284     -0.0198
    118  CD1       -5.2940  -67.4510   37.6960 C.ar  284  TYR284     -0.0009
    119  CD2       -5.0620  -67.3530   40.0710 C.ar  284  TYR284     -0.0009
    120  CE1       -6.5090  -68.1140   37.8500 C.ar  284  TYR284      0.0417
    121  CE2       -6.2700  -67.9980   40.2350 C.ar  284  TYR284      0.0417
    122  CZ        -7.0020  -68.3590   39.1210 C.ar  284  TYR284      0.1957
    123  OH        -8.1400  -69.1210   39.2930 O.3   284  TYR284     -0.2866
    124  N         -2.3650  -63.3150   39.9070 N.am  285  TRP285     -0.1974
    125  CA        -1.2840  -62.3690   40.2140 C.3   285  TRP285      0.1640
    126  C          0.0880  -62.9400   39.9150 C.2   285  TRP285      0.2290
    127  O          0.9140  -62.1890   39.3680 O.2   285  TRP285     -0.2864
    128  CB        -1.3780  -61.9190   41.6800 C.3   285  TRP285      0.0576
    129  CG        -2.4840  -60.9280   41.9220 C.ar  285  TRP285      0.0006
    130  CD1       -3.7090  -61.1800   42.4690 C.ar  285  TRP285      0.0946
    131  CD2       -2.4540  -59.5220   41.6320 C.ar  285  TRP285      0.0152
    132  NE1       -4.4260  -60.0190   42.5630 N.ar  285  TRP285     -0.2442
    133  CE2       -3.7030  -58.9850   42.0120 C.ar  285  TRP285      0.0810
    134  CE3       -1.4940  -58.6610   41.0430 C.ar  285  TRP285      0.0012
    135  CZ2       -3.9960  -57.6200   41.9120 C.ar  285  TRP285      0.0191
    136  CZ3       -1.7560  -57.2980   40.9720 C.ar  285  TRP285      0.0001
    137  CH2       -3.0160  -56.7940   41.3630 C.ar  285  TRP285      0.0015
    138  N          0.5780  -63.5730   36.0010 N.3   288  ASP288     -0.1239
    139  CA         0.5900  -62.2840   35.2760 C.3   288  ASP288      0.1674
    140  C          1.8930  -61.5390   35.5400 C.2   288  ASP288      0.2266
    141  O          2.3570  -60.8250   34.6700 O.2   288  ASP288     -0.2867
    142  CB        -0.6210  -61.4060   35.6330 C.3   288  ASP288      0.1410
    143  CG        -1.8850  -61.6200   34.8400 C.2   288  ASP288      0.3668
    144  OD1       -1.9230  -62.5550   33.9850 O.co2 288  ASP288     -0.2456
    145  OD2       -2.8490  -60.8660   35.0770 O.co2 288  ASP288     -0.2456
    146  N          0.3370  -70.1030   40.4490 N.3   347  HIS347     -0.1241
    147  CA        -1.0190  -70.0170   40.9410 C.3   347  HIS347      0.1621
    148  C         -2.0460  -70.8140   40.1450 C.2   347  HIS347      0.2264
    149  O         -3.1260  -71.0590   40.6690 O.2   347  HIS347     -0.2867
    150  CB        -1.4470  -68.5380   41.0090 C.3   347  HIS347      0.0745
    151  CG        -0.6640  -67.7600   42.0080 C.ar  347  HIS347      0.0817
    152  ND1       -0.6300  -66.3760   41.9580 N.ar  347  HIS347     -0.2268
    153  CD2        0.0700  -68.1880   43.0790 C.ar  347  HIS347      0.1154
    154  CE1        0.1000  -66.0010   43.0020 C.ar  347  HIS347      0.1986
    155  NE2        0.5560  -67.0500   43.6860 N.ar  347  HIS347     -0.2212
@<TRIPOS>BOND
     1    57    56    2
     2    93    92    2
     3    56    55    1
     4    83    81   am
     5    92    91    1
     6    82    81    2
     7    58    55    1
     8    58    59    1
     9    55    54    1
    10    81    80    1
    11    76    77    1
    12    91    90    1
    13    91    94    1
    14    59    60    1
    15    51    50    2
    16    77    80    1
    17    77    78    1
    18    90    86   am
    19    94    96    1
    20    94    95    1
    21    54    50   am
    22    50    49    1
    23    87    86    2
    24    60    62   ar
    25    60    61   ar
    26    86    85    1
    27   144   143   ar
    28    78    79    2
    29    95    97    1
    30   110   111    1
    31   110   107    1
    32   141   140    2
    33    98    99    1
    34   101   100    2
    35    53    52    1
    36   143   145   ar
    37   143   142    1
    38    85    84    1
    39    85    88    1
    40    49    48    1
    41    49    52    1
    42    22    23    1
    43    48    46   am
    44   139   140    1
    45   139   142    1
    46   139   138    1
    47   100   106   am
    48   100    99    1
    49   107   106    1
    50   107   108    1
    51    99   102    1
    52    23    26    1
    53    23    24    1
    54    45    46    1
    55    45    44    1
    56    26    28    1
    57    26    27    1
    58    46    47    2
    59    88    89    1
    60    63    64    1
    61   108   112   am
    62   108   109    2
    63    44    36   am
    64   102   103    1
    65   104   103    2
    66   112   113    1
    67    24    29   am
    68    24    25    2
    69    37    36    2
    70    29    30    1
    71   103   105   am
    72    64    67    1
    73    64    65    1
    74    36    35    1
    75    32    31    2
    76   118   120   ar
    77   118   117   ar
    78   115   114    2
    79   120   122   ar
    80    31    30    1
    81    31    34   am
    82   113   116    1
    83   113   114    1
    84    65    68   am
    85    65    66    2
    86   116   117    1
    87   114   124   am
    88    30    33    1
    89    68    69    1
    90   117   119   ar
    91    35    34    1
    92    35    38    1
    93   122   123    1
    94   122   121   ar
    95   127   126    2
    96    70    69    1
    97    70    71    2
    98    69    72    1
    99   124   125    1
   100   126   125    1
   101   119   121   ar
   102    38    39    1
   103   148   149    2
   104   148   147    1
   105    18    17    2
   106   125   128    1
   107    20    19    1
   108   146   147    1
   109   147   150    1
   110   136   134   ar
   111   136   137   ar
   112   150   151    1
   113   134   131   ar
   114    17    16    1
   115    72    73    1
   116   137   135   ar
   117    39    41   ar
   118    39    40   ar
   119   131   129   ar
   120   131   133   ar
   121   128   129    1
   122    41    43   ar
   123    19    16    1
   124    19    21    1
   125    74    73   ar
   126   135   133   ar
   127   129   130   ar
   128   152   151   ar
   129   152   154   ar
   130   151   153   ar
   131   133   132   ar
   132    16    15    1
   133    73    75   ar
   134   130   132   ar
   135    40    42   ar
   136   154   155   ar
   137   153   155   ar
   138    43    42   ar
   139     4     3    2
   140    11    13   ar
   141    11     8   ar
   142    13    14   ar
   143     5     6    1
   144     5     2    1
   145     3     2    1
   146     8     6   ar
   147     8    10   ar
   148     6     7   ar
   149    14    12   ar
   150    10    12   ar
   151    10     9   ar
   152     2     1    1
   153     7     9   ar
