@<TRIPOS>MOLECULE
tmp/6i9aA00.pdb
 146 144 0 0 0
SMALL
GASTEIGER

@<TRIPOS>ATOM
      1  N          7.4800  -20.0910   16.2980 N.3   163  TRP163     -0.1241
      2  CA         7.0710  -20.7990   15.0810 C.3   163  TRP163      0.1605
      3  C          8.2200  -21.4290   14.3190 C.2   163  TRP163      0.2264
      4  O          7.9570  -22.3190   13.4980 O.2   163  TRP163     -0.2867
      5  CB         6.3240  -19.8350   14.1440 C.3   163  TRP163      0.0550
      6  CG         4.9520  -19.4370   14.6190 C.ar  163  TRP163      0.0003
      7  CD1        4.5930  -18.2430   15.1800 C.ar  163  TRP163      0.0946
      8  CD2        3.7590  -20.2120   14.4980 C.ar  163  TRP163      0.0152
      9  NE1        3.2490  -18.2500   15.4650 N.ar  163  TRP163     -0.2442
     10  CE2        2.7130  -19.4500   15.0620 C.ar  163  TRP163      0.0810
     11  CE3        3.4850  -21.5130   14.0320 C.ar  163  TRP163      0.0012
     12  CZ2        1.3890  -19.9150   15.1270 C.ar  163  TRP163      0.0191
     13  CZ3        2.1620  -21.9560   14.0440 C.ar  163  TRP163      0.0001
     14  CH2        1.1480  -21.1890   14.6530 C.ar  163  TRP163      0.0015
     15  N          6.7450  -24.8880   13.0020 N.3   167  VAL167     -0.1245
     16  CA         6.3110  -24.9650   11.6000 C.3   167  VAL167      0.1561
     17  C          7.4700  -24.7760   10.6180 C.2   167  VAL167      0.2260
     18  O          7.5200  -25.4840    9.6320 O.2   167  VAL167     -0.2867
     19  CB         5.2370  -23.8870   11.3440 C.3   167  VAL167      0.0252
     20  CG1        5.0430  -23.5980    9.8520 C.3   167  VAL167      0.0019
     21  CG2        3.9000  -24.3270   11.9560 C.3   167  VAL167      0.0019
     22  N         10.8020  -19.3290    4.6000 N.3   214  THR214     -0.1203
     23  CA         9.5560  -19.2980    5.3650 C.3   214  THR214      0.1994
     24  C          9.8600  -18.7310    6.7480 C.2   214  THR214      0.2618
     25  O         10.6500  -19.3190    7.5260 O.2   214  THR214     -0.2717
     26  CB         8.8960  -20.6740    5.4240 C.3   214  THR214      0.1784
     27  OG1        7.7360  -20.5040    6.2860 O.3   214  THR214     -0.2211
     28  CG2        9.7580  -21.8110    5.9850 C.3   214  THR214      0.0376
     29  N          9.2980  -17.5630    7.0350 N.am  215  ALA215     -0.1965
     30  CA         9.3870  -16.7940    8.3040 C.3   215  ALA215      0.1728
     31  C          8.9090  -15.3690    8.0220 C.2   215  ALA215      0.2616
     32  O          7.9670  -15.2280    7.2530 O.2   215  ALA215     -0.2715
     33  CB        10.7840  -16.8180    8.9450 C.3   215  ALA215      0.0334
     34  N          9.4840  -14.3300    8.6380 N.am  216  HIS216     -0.1959
     35  CA         8.9310  -12.9610    8.5330 C.3   216  HIS216      0.1787
     36  C          9.3480  -12.2560    7.2710 C.2   216  HIS216      0.2621
     37  O         10.5290  -12.3110    6.8780 O.2   216  HIS216     -0.2715
     38  CB         9.3500  -12.1210    9.7380 C.3   216  HIS216      0.0785
     39  CG         9.0770  -12.7480   11.0620 C.ar  216  HIS216      0.0821
     40  ND1        9.9490  -12.5680   12.1150 N.ar  216  HIS216     -0.2267
     41  CD2        8.1020  -13.5790   11.4620 C.ar  216  HIS216      0.1154
     42  CE1        9.4610  -13.2560   13.1300 C.ar  216  HIS216      0.1986
     43  NE2        8.3410  -13.8480   12.8060 N.ar  216  HIS216     -0.2212
     44  N          8.4250  -11.5110    6.6960 N.am  217  GLY217     -0.1940
     45  CA         8.6830  -10.6760    5.5350 C.3   217  GLY217      0.2014
     46  C          8.2700   -9.2450    5.7280 C.2   217  GLY217      0.2639
     47  O          7.3390   -8.9490    6.4890 O.2   217  GLY217     -0.2714
     48  N          8.9100   -8.3580    4.9740 N.am  218  SER218     -0.1949
     49  CA         8.4850   -6.9790    4.8280 C.3   218  SER218      0.1924
     50  C          8.2810   -6.7130    3.3390 C.2   218  SER218      0.2314
     51  O          8.5380   -7.5820    2.4960 O.2   218  SER218     -0.2863
     52  CB         9.4790   -5.9850    5.4140 C.3   218  SER218      0.2116
     53  OG        10.5750   -5.8650    4.5170 O.3   218  SER218     -0.2180
     54  N         12.9630  -10.9210    6.1740 N.3   223  ALA223     -0.1231
     55  CA        13.3850  -10.1050    7.3080 C.3   223  ALA223      0.1694
     56  C         14.4440  -10.7120    8.2180 C.2   223  ALA223      0.2592
     57  O         15.2320   -9.9390    8.8020 O.2   223  ALA223     -0.2718
     58  CB        12.1770   -9.7010    8.1370 C.3   223  ALA223      0.0304
     59  N         14.4460  -12.0230    8.4140 N.am  224  ASP224     -0.1974
     60  CA        15.4270  -12.5920    9.3770 C.3   224  ASP224      0.1709
     61  C         15.5450  -14.0970    9.1430 C.2   224  ASP224      0.2293
     62  O         14.6260  -14.8530    9.4990 O.2   224  ASP224     -0.2864
     63  CB        14.9630  -12.3320   10.8240 C.3   224  ASP224      0.1436
     64  CG        15.9940  -12.7120   11.8530 C.2   224  ASP224      0.3671
     65  OD1       16.9740  -13.3590   11.4970 O.co2 224  ASP224     -0.2456
     66  OD2       15.7830  -12.3890   13.0600 O.co2 224  ASP224     -0.2456
     67  N          7.4880  -17.5230    1.5320 N.3   247  ASN247     -0.1240
     68  CA         6.3010  -17.8530    2.3410 C.3   247  ASN247      0.1653
     69  C          6.3750  -17.0040    3.6100 C.2   247  ASN247      0.2266
     70  O          6.9510  -17.4010    4.6420 O.2   247  ASN247     -0.2867
     71  CB         6.2470  -19.3300    2.6440 C.3   247  ASN247      0.1155
     72  CG         6.0400  -20.1830    1.4060 C.2   247  ASN247      0.2627
     73  OD1        6.8760  -21.0100    1.0350 O.2   247  ASN247     -0.2716
     74  ND2        4.8990  -19.9730    0.7290 N.am  247  ASN247     -0.0877
     75  N          5.1110  -12.5400    4.9570 N.3   249  CYS249     -0.1221
     76  CA         4.3050  -11.3590    4.6660 C.3   249  CYS249      0.1808
     77  C          4.8760  -10.5050    3.5560 C.2   249  CYS249      0.2601
     78  O          6.1000  -10.3880    3.4300 O.2   249  CYS249     -0.2717
     79  CB         4.2190  -10.4840    5.9300 C.3   249  CYS249      0.0970
     80  SG         3.3610  -11.2890    7.3300 S.3   249  CYS249     -0.0800
     81  N          3.9690   -9.9120    2.7830 N.am  250  ILE250     -0.1979
     82  CA         3.9900   -8.6670    2.0050 C.3   250  ILE250      0.1595
     83  C          5.1700   -8.4560    1.0290 C.2   250  ILE250      0.2287
     84  O          5.1750   -7.3800    0.4020 O.2   250  ILE250     -0.2864
     85  CB         3.8140   -7.4230    2.9300 C.3   250  ILE250      0.0276
     86  CG1        4.9670   -7.2510    3.9400 C.3   250  ILE250      0.0022
     87  CG2        2.4470   -7.5210    3.6470 C.3   250  ILE250      0.0022
     88  CD1        4.7910   -5.9950    4.8560 C.3   250  ILE250      0.0001
     89  N         -0.1980   -9.7720    4.4320 N.3   282  ASN282     -0.1225
     90  CA         0.4420  -10.6970    5.3670 C.3   282  ASN282      0.1785
     91  C          0.1360  -12.1250    4.9860 C.2   282  ASN282      0.2598
     92  O         -0.9740  -12.4180    4.5030 O.2   282  ASN282     -0.2718
     93  CB        -0.1030  -10.4440    6.7920 C.3   282  ASN282      0.1169
     94  CG         0.2860   -9.0830    7.3240 C.2   282  ASN282      0.2627
     95  OD1        1.1630   -8.4080    6.8000 O.2   282  ASN282     -0.2716
     96  ND2       -0.3500   -8.6670    8.4240 N.am  282  ASN282     -0.0877
     97  N          1.0670  -13.0260    5.2130 N.am  283  SER283     -0.1938
     98  CA         0.7690  -14.4520    5.1260 C.3   283  SER283      0.2055
     99  C          0.6710  -14.9900    6.5460 C.2   283  SER283      0.2643
    100  O          0.9860  -14.2550    7.4960 O.2   283  SER283     -0.2714
    101  CB         1.7620  -15.2350    4.2580 C.3   283  SER283      0.2130
    102  OG         2.9920  -15.4030    4.9460 O.3   283  SER283     -0.2179
    103  N          0.2180  -16.2390    6.7010 N.am  284  TYR284     -0.1959
    104  CA        -0.0260  -16.7700    8.0380 C.3   284  TYR284      0.1771
    105  C          0.6740  -18.0720    8.2290 C.2   284  TYR284      0.2619
    106  O          0.8210  -18.8810    7.3060 O.2   284  TYR284     -0.2715
    107  CB        -1.5520  -16.9550    8.2660 C.3   284  TYR284      0.0574
    108  CG        -2.2260  -15.6250    8.4780 C.ar  284  TYR284     -0.0198
    109  CD1       -2.5300  -14.7830    7.4040 C.ar  284  TYR284     -0.0009
    110  CD2       -2.4920  -15.1640    9.7660 C.ar  284  TYR284     -0.0009
    111  CE1       -3.0340  -13.5070    7.6210 C.ar  284  TYR284      0.0417
    112  CE2       -3.0070  -13.8940    9.9930 C.ar  284  TYR284      0.0417
    113  CZ        -3.3060  -13.0890    8.9230 C.ar  284  TYR284      0.1957
    114  OH        -3.8650  -11.8660    9.2220 O.3   284  TYR284     -0.2866
    115  N          1.1110  -18.3070    9.4800 N.am  285  TRP285     -0.1974
    116  CA         1.8850  -19.5200    9.7470 C.3   285  TRP285      0.1640
    117  C          1.1250  -20.7850    9.4190 C.2   285  TRP285      0.2290
    118  O          1.7200  -21.7310    8.8840 O.2   285  TRP285     -0.2864
    119  CB         2.3290  -19.5160   11.2190 C.3   285  TRP285      0.0576
    120  CG         3.4980  -18.6130   11.4940 C.ar  285  TRP285      0.0006
    121  CD1        3.4570  -17.3630   12.0350 C.ar  285  TRP285      0.0946
    122  CD2        4.8860  -18.8660   11.1710 C.ar  285  TRP285      0.0152
    123  NE1        4.7330  -16.8290   12.1080 N.ar  285  TRP285     -0.2442
    124  CE2        5.6180  -17.7250   11.5850 C.ar  285  TRP285      0.0810
    125  CE3        5.5750  -19.9490   10.5940 C.ar  285  TRP285      0.0012
    126  CZ2        6.9960  -17.6370   11.4540 C.ar  285  TRP285      0.0191
    127  CZ3        6.9580  -19.8670   10.4770 C.ar  285  TRP285      0.0001
    128  CH2        7.6450  -18.7120   10.8910 C.ar  285  TRP285      0.0015
    129  N          0.4070  -21.1110    5.5420 N.3   288  ASP288     -0.1239
    130  CA         1.6550  -21.3210    4.7930 C.3   288  ASP288      0.1674
    131  C          2.2130  -22.7200    5.0330 C.2   288  ASP288      0.2266
    132  O          2.8880  -23.2900    4.1650 O.2   288  ASP288     -0.2867
    133  CB         2.7180  -20.2910    5.1630 C.3   288  ASP288      0.1410
    134  CG         2.6850  -18.9760    4.4140 C.2   288  ASP288      0.3668
    135  OD1        1.7760  -18.7870    3.5410 O.co2 288  ASP288     -0.2456
    136  OD2        3.5950  -18.1690    4.6440 O.co2 288  ASP288     -0.2456
    137  N         -6.0300  -20.0270   10.0060 N.3   347  HIS347     -0.1241
    138  CA        -5.7520  -18.6930   10.5460 C.3   347  HIS347      0.1621
    139  C         -6.3840  -17.5600    9.7700 C.2   347  HIS347      0.2264
    140  O         -6.5190  -16.4380   10.3040 O.2   347  HIS347     -0.2867
    141  CB        -4.2360  -18.4750   10.6070 C.3   347  HIS347      0.0745
    142  CG        -3.5570  -19.3930   11.5910 C.ar  347  HIS347      0.0817
    143  ND1       -2.1870  -19.6330   11.5290 N.ar  347  HIS347     -0.2268
    144  CD2       -4.0840  -20.0410   12.6680 C.ar  347  HIS347      0.1154
    145  CE1       -1.9270  -20.4340   12.5630 C.ar  347  HIS347      0.1986
    146  NE2       -3.0300  -20.7030   13.2810 N.ar  347  HIS347     -0.2212
@<TRIPOS>BOND
     1    84    83    2
     2    74    72   am
     3    83    82    1
     4    73    72    2
     5    72    71    1
     6    67    68    1
     7    82    81    1
     8    82    85    1
     9    68    71    1
    10    68    69    1
    11    51    50    2
    12    81    77   am
    13    85    87    1
    14    85    86    1
    15    50    49    1
    16    78    77    2
    17   135   134   ar
    18    77    76    1
    19    69    70    2
    20    86    88    1
    21   132   131    2
    22   101   102    1
    23   101    98    1
    24   134   136   ar
    25   134   133    1
    26    89    90    1
    27    92    91    2
    28    53    52    1
    29    22    23    1
    30    76    75    1
    31    76    79    1
    32   130   131    1
    33   130   133    1
    34   130   129    1
    35    49    48    1
    36    49    52    1
    37    48    46   am
    38    91    97   am
    39    91    90    1
    40    98    97    1
    41    98    99    1
    42    23    26    1
    43    23    24    1
    44    90    93    1
    45    26    28    1
    46    26    27    1
    47    45    46    1
    48    45    44    1
    49    46    47    2
    50    79    80    1
    51    54    55    1
    52    99   103   am
    53    99   100    2
    54    44    36   am
    55   103   104    1
    56    24    29   am
    57    24    25    2
    58    93    94    1
    59    95    94    2
    60    37    36    2
    61    29    30    1
    62    32    31    2
    63    36    35    1
    64   106   105    2
    65    55    58    1
    66    55    56    1
    67    94    96   am
    68   109   111   ar
    69   109   108   ar
    70   111   113   ar
    71    31    30    1
    72    31    34   am
    73   104   105    1
    74   104   107    1
    75    56    59   am
    76    56    57    2
    77   105   115   am
    78   107   108    1
    79    30    33    1
    80    59    60    1
    81   108   110   ar
    82    35    34    1
    83    35    38    1
    84   118   117    2
    85   113   114    1
    86   113   112   ar
    87    61    60    1
    88    61    62    2
    89    60    63    1
    90   117   116    1
    91   115   116    1
    92    18    17    2
    93    38    39    1
    94   116   119    1
    95   110   112   ar
    96   139   140    2
    97   139   138    1
    98    20    19    1
    99   137   138    1
   100   127   125   ar
   101   127   128   ar
   102   138   141    1
   103   125   122   ar
   104   141   142    1
   105    17    16    1
   106    63    64    1
   107   128   126   ar
   108    39    41   ar
   109    39    40   ar
   110   122   120   ar
   111   122   124   ar
   112   119   120    1
   113    19    16    1
   114    19    21    1
   115   126   124   ar
   116    41    43   ar
   117   120   121   ar
   118    65    64   ar
   119   143   142   ar
   120   143   145   ar
   121   124   123   ar
   122   142   144   ar
   123    16    15    1
   124    64    66   ar
   125   121   123   ar
   126    40    42   ar
   127   145   146   ar
   128   144   146   ar
   129    43    42   ar
   130     4     3    2
   131    11    13   ar
   132    11     8   ar
   133    13    14   ar
   134     5     6    1
   135     5     2    1
   136     3     2    1
   137     8     6   ar
   138     8    10   ar
   139     6     7   ar
   140    14    12   ar
   141    10    12   ar
   142    10     9   ar
   143     2     1    1
   144     7     9   ar
