@<TRIPOS>MOLECULE
tmp/6ia6A00.pdb
 176 167 0 0 0
SMALL
GASTEIGER

@<TRIPOS>ATOM
      1  N        -24.6160  -38.1610    5.6190 N.3     2  VAL2       -0.1245
      2  CA       -24.8410  -37.1320    6.6260 C.3     2  VAL2        0.1561
      3  C        -26.2750  -36.6380    6.5090 C.2     2  VAL2        0.2260
      4  O        -26.7520  -36.3510    5.4040 O.2     2  VAL2       -0.2867
      5  CB       -23.8510  -35.9660    6.4620 C.3     2  VAL2        0.0252
      6  CG1      -24.1520  -34.8720    7.4770 C.3     2  VAL2        0.0019
      7  CG2      -22.4180  -36.4590    6.5960 C.3     2  VAL2        0.0019
      8  N        -24.9650  -38.8790   12.3750 N.3    68  LYS68      -0.1245
      9  CA       -24.1090  -37.9680   11.6180 C.3    68  LYS68       0.1561
     10  C        -24.9960  -36.8690   11.0490 C.2    68  LYS68       0.2260
     11  O        -25.8560  -37.1380   10.2050 O.2    68  LYS68      -0.2867
     12  CB       -23.3550  -38.7020   10.5130 C.3    68  LYS68       0.0271
     13  CG       -22.0990  -39.4110   11.0020 C.3    68  LYS68       0.0035
     14  CD       -21.5420  -40.3610    9.9540 C.3    68  LYS68       0.0206
     15  CE       -20.0630  -40.6250   10.1840 C.3    68  LYS68       0.1093
     16  NZ       -19.5530  -41.7340    9.3310 N.3    68  LYS68      -0.1314
     17  N        -23.6770  -36.8940   16.1960 N.3   118  ARG118     -0.1245
     18  CA       -22.4820  -36.1090   15.9270 C.3   118  ARG118      0.1563
     19  C        -22.8070  -34.9490   14.9950 C.2   118  ARG118      0.2260
     20  O        -23.4990  -35.1260   13.9850 O.2   118  ARG118     -0.2867
     21  CB       -21.3880  -36.9710   15.3030 C.3   118  ARG118      0.0307
     22  CG       -20.9560  -38.1540   16.1450 C.3   118  ARG118      0.0489
     23  CD       -20.3360  -37.7250   17.4670 C.3   118  ARG118      0.2205
     24  NE       -19.8420  -38.8770   18.2190 N.pl3 118  ARG118     -0.0865
     25  CZ       -18.6230  -39.3930   18.0870 C.cat 118  ARG118      0.5346
     26  NH1      -17.7580  -38.8610   17.2340 N.pl3 118  ARG118      0.1354
     27  NH2      -18.2670  -40.4450   18.8110 N.pl3 118  ARG118      0.1354
     28  N        -21.0600  -33.3740   12.6150 N.3   120  VAL120     -0.1245
     29  CA       -19.8850  -33.4340   11.7580 C.3   120  VAL120      0.1561
     30  C        -19.7740  -32.2600   10.7830 C.2   120  VAL120      0.2260
     31  O        -18.7910  -32.1620   10.0470 O.2   120  VAL120     -0.2867
     32  CB       -19.8500  -34.7600   10.9710 C.3   120  VAL120      0.0252
     33  CG1      -19.9330  -35.9470   11.9220 C.3   120  VAL120      0.0019
     34  CG2      -20.9840  -34.8060    9.9510 C.3   120  VAL120      0.0019
     35  N        -18.1850  -25.3160    9.5410 N.3   145  THR145     -0.1218
     36  CA       -17.4150  -26.0200    8.5320 C.3   145  THR145      0.1862
     37  C        -17.7450  -25.6100    7.1020 C.2   145  THR145      0.2287
     38  O        -16.9660  -25.9250    6.1990 O.2   145  THR145     -0.2866
     39  CB       -17.6270  -27.5400    8.6540 C.3   145  THR145      0.1770
     40  OG1      -18.9730  -27.8710    8.2880 O.3   145  THR145     -0.2211
     41  CG2      -17.3710  -28.0050   10.0740 C.3   145  THR145      0.0375
     42  N        -15.4650  -24.3490    3.7960 N.3   184  LYS184     -0.1245
     43  CA       -16.1140  -24.6040    2.5190 C.3   184  LYS184      0.1561
     44  C        -16.8180  -23.3380    2.0500 C.2   184  LYS184      0.2260
     45  O        -17.3610  -22.5780    2.8580 O.2   184  LYS184     -0.2867
     46  CB       -17.1260  -25.7440    2.6350 C.3   184  LYS184      0.0271
     47  CG       -16.5880  -27.1120    2.2480 C.3   184  LYS184      0.0035
     48  CD       -15.9080  -27.8010    3.4130 C.3   184  LYS184      0.0206
     49  CE       -16.9140  -28.4480    4.3520 C.3   184  LYS184      0.1093
     50  NZ       -16.2400  -29.0920    5.5140 N.3   184  LYS184     -0.1314
     51  N        -11.9600  -29.9930    3.2340 N.3   330  ALA330     -0.1231
     52  CA       -13.0460  -30.9620    3.1770 C.3   330  ALA330      0.1694
     53  C        -12.4660  -32.3660    3.1170 C.2   330  ALA330      0.2592
     54  O        -11.3070  -32.5680    2.7460 O.2   330  ALA330     -0.2718
     55  CB       -13.9630  -30.7130    1.9730 C.3   330  ALA330      0.0304
     56  N        -13.2990  -33.3370    3.4910 N.am  331  LEU331     -0.1966
     57  CA       -12.9370  -34.7480    3.4420 C.3   331  LEU331      0.1728
     58  C        -14.1980  -35.5910    3.5810 C.2   331  LEU331      0.2616
     59  O        -14.5830  -35.9620    4.6940 O.2   331  LEU331     -0.2715
     60  CB       -11.9300  -35.0940    4.5400 C.3   331  LEU331      0.0311
     61  CG       -11.5880  -36.5790    4.6980 C.3   331  LEU331      0.0022
     62  CD1      -10.9760  -37.1480    3.4220 C.3   331  LEU331      0.0001
     63  CD2      -10.6550  -36.7870    5.8840 C.3   331  LEU331      0.0001
     64  N        -14.8480  -35.8950    2.4610 N.am  332  HIS332     -0.1959
     65  CA       -16.1020  -36.6360    2.4520 C.3   332  HIS332      0.1787
     66  C        -15.9120  -37.9720    1.7500 C.2   332  HIS332      0.2620
     67  O        -15.3120  -38.0330    0.6720 O.2   332  HIS332     -0.2715
     68  CB       -17.2020  -35.8280    1.7590 C.3   332  HIS332      0.0785
     69  CG       -18.5510  -36.4710    1.8170 C.ar  332  HIS332      0.0821
     70  ND1      -19.2830  -36.5580    2.9810 N.ar  332  HIS332     -0.2267
     71  CD2      -19.3000  -37.0610    0.8560 C.ar  332  HIS332      0.1154
     72  CE1      -20.4270  -37.1720    2.7350 C.ar  332  HIS332      0.1986
     73  NE2      -20.4620  -37.4880    1.4520 N.ar  332  HIS332     -0.2212
     74  N        -16.4290  -39.0380    2.3630 N.am  333  VAL333     -0.1977
     75  CA       -16.3820  -40.3760    1.7830 C.3   333  VAL333      0.1596
     76  C        -17.7280  -41.0550    1.9950 C.2   333  VAL333      0.2287
     77  O        -17.9110  -41.8090    2.9570 O.2   333  VAL333     -0.2864
     78  CB       -15.2470  -41.2170    2.3940 C.3   333  VAL333      0.0276
     79  CG1      -15.2350  -42.6120    1.7890 C.3   333  VAL333      0.0022
     80  CG2      -13.9080  -40.5330    2.1900 C.3   333  VAL333      0.0022
     81  N        -17.0220  -47.2370    3.5760 N.3   335  GLY335     -0.1210
     82  CA       -16.3760  -46.7660    4.7870 C.3   335  GLY335      0.1956
     83  C        -15.1890  -47.6160    5.1970 C.2   335  GLY335      0.2612
     84  O        -14.9950  -47.8910    6.3810 O.2   335  GLY335     -0.2717
     85  N        -14.3840  -48.0270    4.2110 N.am  336  ARG336     -0.1965
     86  CA       -13.2360  -48.9060    4.4420 C.3   336  ARG336      0.1729
     87  C        -11.9940  -48.3220    3.7650 C.2   336  ARG336      0.2617
     88  O        -11.6440  -48.7000    2.6450 O.2   336  ARG336     -0.2715
     89  CB       -13.5380  -50.3270    3.9390 C.3   336  ARG336      0.0348
     90  CG       -12.3800  -51.2990    4.0660 C.3   336  ARG336      0.0492
     91  CD       -12.0230  -51.3920    5.5820 C.3   336  ARG336      0.2205
     92  NE       -10.9830  -52.3570    5.6920 N.pl3 336  ARG336     -0.0865
     93  CZ        -9.8860  -52.3030    6.4540 C.cat 336  ARG336      0.5346
     94  NH1       -9.5910  -51.2310    7.1990 N.pl3 336  ARG336      0.1354
     95  NH2       -9.0100  -53.3400    6.4240 N.pl3 336  ARG336      0.1354
     96  N        -11.3270  -47.3920    4.4540 N.am  337  GLY337     -0.1940
     97  CA        -9.9660  -47.0110    4.1440 C.3   337  GLY337      0.2014
     98  C         -9.8020  -45.7350    3.3390 C.2   337  GLY337      0.2639
     99  O         -8.7810  -45.0530    3.4900 O.2   337  GLY337     -0.2714
    100  N        -10.7670  -45.4000    2.4770 N.am  338  LEU338     -0.1963
    101  CA       -10.5900  -44.2550    1.5890 C.3   338  LEU338      0.1728
    102  C        -10.2740  -42.9860    2.3680 C.2   338  LEU338      0.2617
    103  O         -9.5050  -42.1390    1.8960 O.2   338  LEU338     -0.2715
    104  CB       -11.8440  -44.0490    0.7380 C.3   338  LEU338      0.0311
    105  CG       -12.2110  -45.1580   -0.2480 C.3   338  LEU338      0.0022
    106  CD1      -13.4470  -44.7650   -1.0470 C.3   338  LEU338      0.0001
    107  CD2      -11.0510  -45.4750   -1.1780 C.3   338  LEU338      0.0001
    108  N        -10.8520  -42.8420    3.5540 N.am  339  GLY339     -0.1940
    109  CA       -10.6260  -41.6690    4.3700 C.3   339  GLY339      0.2014
    110  C         -9.1620  -41.4230    4.6580 C.2   339  GLY339      0.2638
    111  O         -8.6120  -40.3930    4.2540 O.2   339  GLY339     -0.2714
    112  N         -8.5100  -42.3660    5.3490 N.am  340  ARG340     -0.1977
    113  CA        -7.1180  -42.1560    5.7270 C.3   340  ARG340      0.1597
    114  C         -6.2030  -42.1570    4.5090 C.2   340  ARG340      0.2287
    115  O         -5.1770  -41.4660    4.5090 O.2   340  ARG340     -0.2864
    116  CB        -6.6540  -43.2100    6.7420 C.3   340  ARG340      0.0334
    117  CG        -7.5610  -44.4240    6.9280 C.3   340  ARG340      0.0492
    118  CD        -7.0560  -45.3360    8.0400 C.3   340  ARG340      0.2205
    119  NE        -7.9310  -46.4890    8.2450 N.pl3 340  ARG340     -0.0865
    120  CZ        -8.9860  -46.5010    9.0560 C.cat 340  ARG340      0.5346
    121  NH1       -9.7190  -47.6010    9.1720 N.pl3 340  ARG340      0.1354
    122  NH2       -9.3130  -45.4190    9.7510 N.pl3 340  ARG340      0.1354
    123  N        -12.4290  -29.0300   11.3350 N.3   363  SER363     -0.1217
    124  CA       -13.4110  -30.0990   11.3660 C.3   363  SER363      0.1889
    125  C        -14.6250  -29.6990   12.1960 C.2   363  SER363      0.2288
    126  O        -14.5840  -28.7620   12.9970 O.2   363  SER363     -0.2866
    127  CB       -12.7930  -31.3750   11.9410 C.3   363  SER363      0.2089
    128  OG       -13.7920  -32.3310   12.2540 O.3   363  SER363     -0.2183
    129  N        -18.3650  -32.9760   15.9860 N.3   366  GLY366     -0.1210
    130  CA       -18.6990  -34.3890   15.9640 C.3   366  GLY366      0.1956
    131  C        -17.7490  -35.2500   15.1580 C.2   366  GLY366      0.2611
    132  O        -17.8640  -36.4790   15.2090 O.2   366  GLY366     -0.2717
    133  N        -16.8260  -34.6400   14.4160 N.am  367  ALA367     -0.1979
    134  CA       -15.8400  -35.3760   13.6380 C.3   367  ALA367      0.1597
    135  C        -14.4300  -35.2450   14.1930 C.2   367  ALA367      0.2287
    136  O        -13.5150  -35.8950   13.6770 O.2   367  ALA367     -0.2864
    137  CB       -15.8540  -34.9100   12.1790 C.3   367  ALA367      0.0319
    138  N        -13.1140  -36.4540   16.8480 N.3   369  GLU369     -0.1231
    139  CA       -12.6130  -37.7460   17.3080 C.3   369  GLU369      0.1699
    140  C        -12.0150  -38.5590   16.1680 C.2   369  GLU369      0.2592
    141  O        -11.0480  -39.3000   16.3770 O.2   369  GLU369     -0.2718
    142  CB       -13.7340  -38.5320   17.9880 C.3   369  GLU369      0.0402
    143  CG       -14.0230  -38.0730   19.4080 C.3   369  GLU369      0.1161
    144  CD       -12.8270  -38.2420   20.3230 C.2   369  GLU369      0.3649
    145  OE1      -12.1030  -39.2510   20.1760 O.co2 369  GLU369     -0.2457
    146  OE2      -12.6020  -37.3600   21.1770 O.co2 369  GLU369     -0.2457
    147  N        -12.5710  -38.4390   14.9620 N.am  370  TYR370     -0.1962
    148  CA       -11.9930  -39.1260   13.8120 C.3   370  TYR370      0.1771
    149  C        -10.5370  -38.7220   13.6100 C.2   370  TYR370      0.2619
    150  O         -9.6530  -39.5770   13.4890 O.2   370  TYR370     -0.2715
    151  CB       -12.8110  -38.8220   12.5580 C.3   370  TYR370      0.0574
    152  CG       -12.1840  -39.3440   11.2880 C.ar  370  TYR370     -0.0198
    153  CD1      -12.2770  -40.6860   10.9480 C.ar  370  TYR370     -0.0009
    154  CD2      -11.5000  -38.4960   10.4270 C.ar  370  TYR370     -0.0009
    155  CE1      -11.7070  -41.1690    9.7890 C.ar  370  TYR370      0.0417
    156  CE2      -10.9260  -38.9700    9.2650 C.ar  370  TYR370      0.0417
    157  CZ       -11.0320  -40.3080    8.9510 C.ar  370  TYR370      0.1957
    158  OH       -10.4630  -40.7890    7.7950 O.3   370  TYR370     -0.2866
    159  N        -10.2690  -37.4150   13.5690 N.am  371  TYR371     -0.1974
    160  CA        -8.9140  -36.9460   13.3040 C.3   371  TYR371      0.1639
    161  C         -7.9860  -37.1950   14.4840 C.2   371  TYR371      0.2290
    162  O         -6.7700  -37.3150   14.2950 O.2   371  TYR371     -0.2864
    163  CB        -8.9410  -35.4610   12.9450 C.3   371  TYR371      0.0560
    164  CG        -9.7370  -35.1680   11.6940 C.ar  371  TYR371     -0.0198
    165  CD1       -9.1850  -35.3690   10.4360 C.ar  371  TYR371     -0.0009
    166  CD2      -11.0400  -34.6980   11.7700 C.ar  371  TYR371     -0.0009
    167  CE1       -9.9080  -35.1070    9.2890 C.ar  371  TYR371      0.0417
    168  CE2      -11.7710  -34.4340   10.6290 C.ar  371  TYR371      0.0417
    169  CZ       -11.2000  -34.6400    9.3900 C.ar  371  TYR371      0.1957
    170  OH       -11.9210  -34.3790    8.2460 O.3   371  TYR371     -0.2866
    171  N         -7.8730  -39.9610   16.0860 N.3   373  SER373     -0.1217
    172  CA        -7.3980  -41.3160   15.8380 C.3   373  SER373      0.1889
    173  C         -6.3730  -41.3920   14.7150 C.2   373  SER373      0.2288
    174  O         -5.9110  -42.4950   14.4010 O.2   373  SER373     -0.2866
    175  CB        -8.5770  -42.2320   15.5030 C.3   373  SER373      0.2089
    176  OG        -9.0800  -41.9570   14.2060 O.3   373  SER373     -0.2183
@<TRIPOS>BOND
     1   107   105    1
     2   106   105    1
     3   105   104    1
     4    67    66    2
     5   104   101    1
     6    71    73   ar
     7    71    69   ar
     8    73    72   ar
     9   101   102    1
    10   101   100    1
    11    66    74   am
    12    66    65    1
    13    68    69    1
    14    68    65    1
    15    75    76    1
    16    75    74    1
    17    75    78    1
    18    79    78    1
    19    69    70   ar
    20   103   102    2
    21    55    52    1
    22    76    77    2
    23    44    43    1
    24    44    45    2
    25    80    78    1
    26    47    46    1
    27    47    48    1
    28   102   108   am
    29    65    64    1
    30    64    58   am
    31   100    98   am
    32    43    46    1
    33    43    42    1
    34    88    87    2
    35    72    70   ar
    36    54    53    2
    37    53    52    1
    38    53    56   am
    39    52    51    1
    40    98    99    2
    41    98    97    1
    42    48    49    1
    43    62    61    1
    44    57    56    1
    45    57    58    1
    46    57    60    1
    47   108   109    1
    48    81    82    1
    49    58    59    2
    50    87    86    1
    51    87    96   am
    52    89    90    1
    53    89    86    1
    54    90    91    1
    55    97    96    1
    56    85    86    1
    57    85    83   am
    58   111   110    2
    59    49    50    1
    60   109   110    1
    61   114   115    2
    62   114   113    1
    63    60    61    1
    64   110   112   am
    65    61    63    1
    66    82    83    1
    67    83    84    2
    68   112   113    1
    69     4     3    2
    70    91    92    1
    71     1     2    1
    72    92    93    2
    73   113   116    1
    74    38    37    2
    75    95    93    1
    76    93    94    1
    77     5     7    1
    78     5     2    1
    79     5     6    1
    80     3     2    1
    81   116   117    1
    82   117   118    1
    83    37    36    1
    84   158   157    1
    85   118   119    1
    86   119   120    2
    87   170   169    1
    88    40    39    1
    89    36    39    1
    90    36    35    1
    91    39    41    1
    92   157   156   ar
    93   157   155   ar
    94   120   121    1
    95   120   122    1
    96   156   154   ar
    97   167   169   ar
    98   167   165   ar
    99    16    15    1
   100   169   168   ar
   101   155   153   ar
   102    34    32    1
   103    14    15    1
   104    14    13    1
   105    31    30    2
   106    11    10    2
   107   154   152   ar
   108   165   164   ar
   109    12    13    1
   110    12     9    1
   111   168   166   ar
   112    30    29    1
   113   153   152   ar
   114    32    29    1
   115    32    33    1
   116    10     9    1
   117   152   151    1
   118   123   124    1
   119   124   127    1
   120   124   125    1
   121     9     8    1
   122   164   166   ar
   123   164   163    1
   124    29    28    1
   125   127   128    1
   126   137   134    1
   127   125   126    2
   128   151   148    1
   129   163   160    1
   130   160   159    1
   131   160   161    1
   132   150   149    2
   133   159   149   am
   134   149   148    1
   135   134   135    1
   136   134   133    1
   137   136   135    2
   138   148   147    1
   139    20    19    2
   140   176   175    1
   141   162   161    2
   142   174   173    2
   143   133   131   am
   144   173   172    1
   145   147   140   am
   146    19    18    1
   147   131   132    2
   148   131   130    1
   149    21    18    1
   150    21    22    1
   151   175   172    1
   152   172   171    1
   153    18    17    1
   154   130   129    1
   155    22    23    1
   156   140   141    2
   157   140   139    1
   158   138   139    1
   159    26    25    1
   160   139   142    1
   161    23    24    1
   162   142   143    1
   163    25    24    2
   164    25    27    1
   165   143   144    1
   166   145   144   ar
   167   144   146   ar
