@<TRIPOS>MOLECULE
tmp/6iarA00.pdb
 207 198 0 0 0
SMALL
GASTEIGER

@<TRIPOS>ATOM
      1  N          3.9200  -32.7490   30.8430 N.3    34  MET34      -0.1245
      2  CA         4.2280  -32.9730   32.2680 C.3    34  MET34       0.1570
      3  C          5.3160  -32.0350   32.8030 C.2    34  MET34       0.2261
      4  O          5.2560  -31.6160   33.9610 O.2    34  MET34      -0.2867
      5  CB         4.5780  -34.4480   32.5270 C.3    34  MET34       0.0387
      6  CG         4.6870  -34.8750   34.0090 C.3    34  MET34       0.0595
      7  SD         3.2070  -34.6960   35.0890 S.3    34  MET34      -0.1393
      8  CE         1.9720  -35.1670   33.8960 C.3    34  MET34       0.0692
      9  N          3.5440  -28.7000   33.3520 N.3    37  LEU37      -0.1231
     10  CA         2.6550  -28.7130   34.5000 C.3    37  LEU37       0.1693
     11  C          3.4770  -28.8300   35.7980 C.2    37  LEU37       0.2592
     12  O          3.1040  -28.2570   36.8060 O.2    37  LEU37      -0.2718
     13  CB         1.6270  -29.8160   34.4080 C.3    37  LEU37       0.0284
     14  CG         0.5920  -29.7450   33.2370 C.3    37  LEU37       0.0019
     15  CD1       -0.2380  -31.0040   33.2370 C.3    37  LEU37       0.0001
     16  CD2       -0.3050  -28.5200   33.3850 C.3    37  LEU37       0.0001
     17  N          4.5730  -29.5640   35.7760 N.am   38  THR38      -0.1953
     18  CA         5.4480  -29.6400   36.9740 C.3    38  THR38       0.1897
     19  C          6.0930  -28.2840   37.3270 C.2    38  THR38       0.2313
     20  O          6.1040  -27.8710   38.4930 O.2    38  THR38      -0.2863
     21  CB         6.5240  -30.7030   36.8010 C.3    38  THR38       0.1794
     22  OG1        5.9030  -31.9940   36.5710 O.3    38  THR38      -0.2208
     23  CG2        7.4020  -30.7200   38.0300 C.3    38  THR38       0.0378
     24  N          4.9990  -25.3210   36.5420 N.3    40  LEU40      -0.1231
     25  CA         3.8950  -24.4360   36.9860 C.3    40  LEU40       0.1693
     26  C          3.5620  -24.7080   38.4440 C.2    40  LEU40       0.2592
     27  O          3.5150  -23.8070   39.2700 O.2    40  LEU40      -0.2718
     28  CB         2.7080  -24.5490   36.0460 C.3    40  LEU40       0.0284
     29  CG         1.3900  -23.8180   36.3440 C.3    40  LEU40       0.0019
     30  CD1        1.6420  -22.3170   36.2970 C.3    40  LEU40       0.0001
     31  CD2        0.2440  -24.1570   35.3670 C.3    40  LEU40       0.0001
     32  N          3.3690  -25.9940   38.7530 N.am   41  ALA41      -0.1966
     33  CA         3.1460  -26.3890   40.1340 C.3    41  ALA41       0.1728
     34  C          4.2590  -25.9740   41.1290 C.2    41  ALA41       0.2616
     35  O          3.9380  -25.4540   42.2060 O.2    41  ALA41      -0.2715
     36  CB         2.9300  -27.8710   40.1980 C.3    41  ALA41       0.0334
     37  N          5.5270  -26.1670   40.7600 N.am   42  ASP42      -0.1971
     38  CA         6.6950  -25.7220   41.5960 C.3    42  ASP42       0.1709
     39  C          6.5750  -24.2210   41.9180 C.2    42  ASP42       0.2293
     40  O          6.7730  -23.8150   43.0380 O.2    42  ASP42      -0.2864
     41  CB         7.9980  -25.8670   40.8380 C.3    42  ASP42       0.1436
     42  CG         8.4310  -27.2710   40.6930 C.2    42  ASP42       0.3671
     43  OD1        7.8300  -28.1400   41.3540 O.co2  42  ASP42      -0.2456
     44  OD2        9.3920  -27.4910   39.9170 O.co2  42  ASP42      -0.2456
     45  N          3.8250  -22.1560   41.7480 N.3    44  GLU44      -0.1245
     46  CA         2.5800  -21.9170   42.5330 C.3    44  GLU44       0.1567
     47  C          2.7850  -22.2110   44.0150 C.2    44  GLU44       0.2260
     48  O          2.1630  -21.5880   44.8360 O.2    44  GLU44      -0.2867
     49  CB         1.3920  -22.6980   42.0020 C.3    44  GLU44       0.0388
     50  CG         0.8570  -22.0930   40.6880 C.3    44  GLU44       0.1160
     51  CD        -0.4370  -22.7230   40.2460 C.2    44  GLU44       0.3649
     52  OE1       -1.5360  -22.1950   40.5880 O.co2  44  GLU44      -0.2457
     53  OE2       -0.3090  -23.7750   39.5730 O.co2  44  GLU44      -0.2457
     54  N         -1.6160  -29.6150   49.7380 N.3    74  TRP74      -0.1227
     55  CA        -1.1120  -28.7250   48.6570 C.3    74  TRP74       0.1737
     56  C         -1.7130  -29.1410   47.2850 C.2    74  TRP74       0.2595
     57  O         -2.1090  -28.2550   46.5710 O.2    74  TRP74      -0.2718
     58  CB         0.3970  -28.7170   48.5720 C.3    74  TRP74       0.0564
     59  CG         0.9550  -29.9380   48.1400 C.ar   74  TRP74       0.0003
     60  CD1        1.3120  -30.9570   48.9350 C.ar   74  TRP74       0.0946
     61  CD2        1.3080  -30.3270   46.8030 C.ar   74  TRP74       0.0152
     62  NE1        1.8230  -31.9700   48.2080 N.ar   74  TRP74      -0.2442
     63  CE2        1.7800  -31.6280   46.8720 C.ar   74  TRP74       0.0810
     64  CE3        1.1730  -29.7390   45.5430 C.ar   74  TRP74       0.0012
     65  CZ2        2.2120  -32.3390   45.7530 C.ar   74  TRP74       0.0191
     66  CZ3        1.6100  -30.4340   44.4460 C.ar   74  TRP74       0.0001
     67  CH2        2.1080  -31.7300   44.5390 C.ar   74  TRP74       0.0015
     68  N         -1.9430  -30.4300   47.0390 N.am   75  LEU75      -0.1980
     69  CA        -2.5020  -30.7920   45.6910 C.3    75  LEU75       0.1596
     70  C         -3.9880  -30.4950   45.5870 C.2    75  LEU75       0.2287
     71  O         -4.4640  -30.0650   44.5480 O.2    75  LEU75      -0.2864
     72  CB        -2.1940  -32.2030   45.3760 C.3    75  LEU75       0.0297
     73  CG        -2.6110  -32.5930   43.8770 C.3    75  LEU75       0.0022
     74  CD1       -1.9460  -31.6480   42.8290 C.3    75  LEU75       0.0001
     75  CD2       -2.0520  -33.9740   43.6180 C.3    75  LEU75       0.0001
     76  N         -4.1030  -26.7020   44.8120 N.3    78  LEU78      -0.1231
     77  CA        -3.8600  -26.4790   43.4090 C.3    78  LEU78       0.1693
     78  C         -5.0960  -26.8440   42.5490 C.2    78  LEU78       0.2591
     79  O         -5.5290  -26.0720   41.6660 O.2    78  LEU78      -0.2718
     80  CB        -2.6540  -27.2780   42.9150 C.3    78  LEU78       0.0284
     81  CG        -1.2990  -26.9010   43.3970 C.3    78  LEU78       0.0019
     82  CD1       -0.2970  -27.7670   42.6560 C.3    78  LEU78       0.0001
     83  CD2       -0.9590  -25.4460   43.1100 C.3    78  LEU78       0.0001
     84  N         -5.7110  -27.9690   42.8670 N.am   79  MET79      -0.1979
     85  CA        -6.8580  -28.4710   42.1230 C.3    79  MET79       0.1605
     86  C         -8.0960  -27.6150   42.2730 C.2    79  MET79       0.2287
     87  O         -8.7710  -27.3700   41.2660 O.2    79  MET79      -0.2864
     88  CB        -7.1450  -29.9440   42.4580 C.3    79  MET79       0.0413
     89  CG        -6.1330  -30.9140   41.8920 C.3    79  MET79       0.0598
     90  SD        -6.5050  -32.6150   42.3480 S.3    79  MET79      -0.1393
     91  CE        -5.4680  -33.4850   41.2230 C.3    79  MET79       0.0692
     92  N         -7.5700  -24.6080   40.0980 N.3    82  LEU82      -0.1245
     93  CA        -7.7740  -24.9720   38.6770 C.3    82  LEU82       0.1561
     94  C         -9.2390  -25.0420   38.3260 C.2    82  LEU82       0.2260
     95  O         -9.6840  -24.5090   37.2930 O.2    82  LEU82      -0.2867
     96  CB        -7.0550  -26.3090   38.3830 C.3    82  LEU82       0.0270
     97  CG        -7.2170  -26.9020   36.9620 C.3    82  LEU82       0.0019
     98  CD1       -6.6470  -25.9280   35.9610 C.3    82  LEU82       0.0001
     99  CD2       -6.5090  -28.2660   36.9140 C.3    82  LEU82       0.0001
    100  N        -10.7080  -21.4840   38.2260 N.3    85  ARG85      -0.1245
    101  CA       -10.2340  -20.7960   37.0010 C.3    85  ARG85       0.1563
    102  C        -10.9240  -21.3170   35.7540 C.2    85  ARG85       0.2260
    103  O        -11.1580  -20.5340   34.8190 O.2    85  ARG85      -0.2867
    104  CB        -8.7150  -20.9690   36.7930 C.3    85  ARG85       0.0307
    105  CG        -7.8260  -20.2840   37.8020 C.3    85  ARG85       0.0489
    106  CD        -6.4000  -20.1650   37.2780 C.3    85  ARG85       0.2205
    107  NE        -5.7020  -21.4380   37.1010 N.pl3  85  ARG85      -0.0865
    108  CZ        -5.1550  -22.1570   38.0980 C.cat  85  ARG85       0.5346
    109  NH1       -4.4770  -23.2440   37.8110 N.pl3  85  ARG85       0.1354
    110  NH2       -5.2930  -21.8140   39.3600 N.pl3  85  ARG85       0.1354
    111  N         -5.0940  -24.2720   33.2240 N.3    95  PHE95      -0.1241
    112  CA        -3.9210  -24.3920   34.0590 C.3    95  PHE95       0.1605
    113  C         -3.2600  -23.0310   34.2160 C.2    95  PHE95       0.2264
    114  O         -2.8010  -22.6770   35.2880 O.2    95  PHE95      -0.2867
    115  CB        -2.9260  -25.4340   33.4570 C.3    95  PHE95       0.0534
    116  CG        -3.4010  -26.8460   33.5810 C.ar   95  PHE95      -0.0203
    117  CD1       -3.1100  -27.5710   34.7470 C.ar   95  PHE95      -0.0042
    118  CD2       -4.0760  -27.4770   32.5830 C.ar   95  PHE95      -0.0042
    119  CE1       -3.5810  -28.8660   34.9380 C.ar   95  PHE95      -0.0003
    120  CE2       -4.4970  -28.7890   32.7320 C.ar   95  PHE95      -0.0003
    121  CZ        -4.2990  -29.4810   33.9230 C.ar   95  PHE95      -0.0000
    122  N         -3.5830  -39.8790   32.7720 N.3   112  MET112     -0.1245
    123  CA        -3.9020  -38.4970   32.9720 C.3   112  MET112      0.1570
    124  C         -5.3290  -38.1390   32.5360 C.2   112  MET112      0.2261
    125  O         -5.9260  -37.2570   33.0900 O.2   112  MET112     -0.2867
    126  CB        -2.8570  -37.6390   32.2290 C.3   112  MET112      0.0387
    127  CG        -2.9600  -36.1370   32.4790 C.3   112  MET112      0.0595
    128  SD        -2.6440  -35.6800   34.2020 S.3   112  MET112     -0.1393
    129  CE        -0.8760  -35.6100   34.1040 C.3   112  MET112      0.0692
    130  N         -7.8880  -38.2040   35.2990 N.3   115  ILE115     -0.1231
    131  CA        -7.8170  -37.0870   36.2500 C.3   115  ILE115      0.1692
    132  C         -8.4320  -35.8160   35.6250 C.2   115  ILE115      0.2592
    133  O         -9.1950  -35.0960   36.2600 O.2   115  ILE115     -0.2718
    134  CB        -6.3750  -36.9200   36.7490 C.3   115  ILE115      0.0266
    135  CG1       -6.0350  -38.1670   37.5880 C.3   115  ILE115      0.0019
    136  CG2       -6.2080  -35.6650   37.6200 C.3   115  ILE115      0.0020
    137  CD1       -4.5820  -38.3120   37.9790 C.3   115  ILE115      0.0001
    138  N         -8.0580  -35.5440   34.3880 N.am  116  PHE116     -0.1976
    139  CA        -8.6080  -34.4110   33.6140 C.3   116  PHE116      0.1639
    140  C        -10.1460  -34.4690   33.6640 C.2   116  PHE116      0.2290
    141  O        -10.8750  -33.4840   33.9320 O.2   116  PHE116     -0.2864
    142  CB        -8.0850  -34.4250   32.1460 C.3   116  PHE116      0.0560
    143  CG        -6.7640  -33.6810   31.9100 C.ar  116  PHE116     -0.0200
    144  CD1       -5.7720  -33.6020   32.8940 C.ar  116  PHE116     -0.0042
    145  CD2       -6.5290  -33.0720   30.7120 C.ar  116  PHE116     -0.0042
    146  CE1       -4.5660  -32.9420   32.6710 C.ar  116  PHE116     -0.0003
    147  CE2       -5.3200  -32.4130   30.4560 C.ar  116  PHE116     -0.0003
    148  CZ        -4.3410  -32.3550   31.4360 C.ar  116  PHE116     -0.0000
    149  N        -11.6100  -33.4770   37.0650 N.3   119  LEU119     -0.1245
    150  CA       -11.4760  -32.0240   37.2680 C.3   119  LEU119      0.1561
    151  C        -12.5000  -31.2280   36.4260 C.2   119  LEU119      0.2260
    152  O        -13.1730  -30.3470   36.9160 O.2   119  LEU119     -0.2867
    153  CB       -10.0370  -31.5820   36.9150 C.3   119  LEU119      0.0270
    154  CG        -8.8960  -32.0640   37.8340 C.3   119  LEU119      0.0019
    155  CD1       -7.5490  -31.9100   37.1490 C.3   119  LEU119      0.0001
    156  CD2       -8.9770  -31.2220   39.0940 C.3   119  LEU119      0.0001
    157  N         -4.1850  -38.1390   42.0070 N.3   211  GLY211     -0.1225
    158  CA        -3.0120  -37.4650   41.4510 C.3   211  GLY211      0.1811
    159  C         -1.7300  -37.7920   42.1690 C.2   211  GLY211      0.2280
    160  O         -0.6760  -38.0130   41.4850 O.2   211  GLY211     -0.2866
    161  N         -0.3240  -40.9250   40.9180 N.3   214  HIS214     -0.1226
    162  CA         0.4550  -40.6460   39.6630 C.3   214  HIS214      0.1752
    163  C          1.8680  -40.0930   39.9390 C.2   214  HIS214      0.2595
    164  O          2.8910  -40.6160   39.4790 O.2   214  HIS214     -0.2718
    165  CB        -0.3450  -39.6780   38.8130 C.3   214  HIS214      0.0759
    166  CG         0.1010  -39.5970   37.3970 C.ar  214  HIS214      0.0818
    167  ND1       -0.6430  -40.1150   36.3560 N.ar  214  HIS214     -0.2268
    168  CD2        1.2080  -39.0470   36.8420 C.ar  214  HIS214      0.1154
    169  CE1       -0.0030  -39.9020   35.2190 C.ar  214  HIS214      0.1986
    170  NE2        1.1230  -39.2600   35.4860 N.ar  214  HIS214     -0.2212
    171  N          1.9290  -39.0400   40.7150 N.am  215  LEU215     -0.1980
    172  CA         3.2020  -38.4550   41.1010 C.3   215  LEU215      0.1596
    173  C          4.1910  -39.4540   41.7840 C.2   215  LEU215      0.2287
    174  O          5.3240  -39.6080   41.3010 O.2   215  LEU215     -0.2864
    175  CB         2.9610  -37.2150   41.9410 C.3   215  LEU215      0.0297
    176  CG         2.1810  -36.0940   41.2280 C.3   215  LEU215      0.0022
    177  CD1        2.2340  -34.8830   42.1290 C.3   215  LEU215      0.0001
    178  CD2        2.7600  -35.7990   39.8360 C.3   215  LEU215      0.0001
    179  N         12.6890  -34.8770   42.3230 N.3   222  ASN222     -0.1225
    180  CA        12.3010  -33.5030   41.9210 C.3   222  ASN222      0.1785
    181  C         10.8020  -33.3250   41.6910 C.2   222  ASN222      0.2597
    182  O         10.3590  -32.3400   41.0850 O.2   222  ASN222     -0.2718
    183  CB        13.0620  -33.0970   40.6590 C.3   222  ASN222      0.1169
    184  CG        14.5570  -33.1130   40.8660 C.2   222  ASN222      0.2627
    185  OD1       15.0300  -33.3210   41.9860 O.2   222  ASN222     -0.2716
    186  ND2       15.3140  -32.8990   39.7910 N.am  222  ASN222     -0.0877
    187  N         10.0330  -34.2950   42.1740 N.am  223  VAL223     -0.1966
    188  CA         8.5890  -34.2630   42.0820 C.3   223  VAL223      0.1727
    189  C          8.0540  -34.5970   43.4930 C.2   223  VAL223      0.2616
    190  O          8.6110  -35.4600   44.1820 O.2   223  VAL223     -0.2715
    191  CB         8.0790  -35.2160   40.9370 C.3   223  VAL223      0.0290
    192  CG1        6.5710  -35.4790   40.9910 C.3   223  VAL223      0.0023
    193  CG2        8.4460  -34.6610   39.5520 C.3   223  VAL223      0.0023
    194  N          6.9750  -33.9040   43.8790 N.am  224  VAL224     -0.1964
    195  CA         6.3750  -33.8740   45.2280 C.3   224  VAL224      0.1712
    196  C          7.2830  -33.1280   46.2290 C.2   224  VAL224      0.2458
    197  O          8.4150  -33.5600   46.4850 O.2   224  VAL224     -0.2730
    198  CB         6.0110  -35.2710   45.8170 C.3   224  VAL224      0.0289
    199  CG1        5.2170  -35.1090   47.1260 C.3   224  VAL224      0.0023
    200  CG2        5.2360  -36.1110   44.8140 C.3   224  VAL224      0.0023
    201  N          6.7620  -32.0460   46.8380 N.am  225  PRO225     -0.2727
    202  CA         7.5790  -31.3080   47.8020 C.3   225  PRO225      0.1402
    203  C          7.8360  -32.0760   49.0740 C.2   225  PRO225      0.2269
    204  O          6.9060  -32.4940   49.7230 O.2   225  PRO225     -0.2865
    205  CB         6.7500  -30.0400   48.0730 C.3   225  PRO225      0.0296
    206  CG         5.3330  -30.4210   47.7630 C.3   225  PRO225      0.0237
    207  CD         5.3730  -31.5450   46.7730 C.3   225  PRO225      0.0939
@<TRIPOS>BOND
     1   147   145   ar
     2   147   148   ar
     3   145   143   ar
     4     1     2    1
     5   148   146   ar
     6   143   142    1
     7   143   144   ar
     8   142   139    1
     9   126   127    1
    10   126   123    1
    11     2     5    1
    12     2     3    1
    13   127   128    1
    14     5     6    1
    15   124   123    1
    16   124   125    2
    17   118   120   ar
    18   118   116   ar
    19   146   144   ar
    20   120   121   ar
    21   122   123    1
    22     3     4    2
    23   111   112    1
    24    15    14    1
    25    14    16    1
    26    14    13    1
    27     9    10    1
    28   115   116    1
    29   115   112    1
    30   116   117   ar
    31   139   140    1
    32   139   138    1
    33   140   141    2
    34     8     7    1
    35   121   119   ar
    36     6     7    1
    37   112   113    1
    38   129   128    1
    39   113   114    2
    40   138   132   am
    41    13    10    1
    42    10    11    1
    43   117   119   ar
    44   103   102    2
    45   169   170   ar
    46   169   167   ar
    47   130   131    1
    48    31    29    1
    49   170   168   ar
    50   132   131    1
    51   132   133    2
    52   102   101    1
    53    17    11   am
    54    17    18    1
    55    11    12    2
    56    98    97    1
    57    28    29    1
    58    28    25    1
    59   131   134    1
    60    30    29    1
    61   167   166   ar
    62   151   152    2
    63   151   150    1
    64    24    25    1
    65    22    21    1
    66   134   135    1
    67   134   136    1
    68   104   101    1
    69   104   105    1
    70    21    18    1
    71    21    23    1
    72   168   166   ar
    73    99    97    1
    74   153   150    1
    75   153   154    1
    76    97    96    1
    77    18    19    1
    78    25    26    1
    79   101   100    1
    80   149   150    1
    81   107   106    1
    82   107   108    2
    83   155   154    1
    84   106   105    1
    85    95    94    2
    86    19    20    2
    87   166   165    1
    88   135   137    1
    89   109   108    1
    90   154   156    1
    91   108   110    1
    92    94    93    1
    93    96    93    1
    94    26    32   am
    95    26    27    2
    96    93    92    1
    97    32    33    1
    98   165   162    1
    99   164   163    2
   100   193   191    1
   101    53    51   ar
   102   162   163    1
   103   162   161    1
   104   186   184   am
   105   178   176    1
   106    44    42   ar
   107   163   171   am
   108    33    36    1
   109    33    34    1
   110    51    52   ar
   111    51    50    1
   112   183   184    1
   113   183   180    1
   114    50    49    1
   115    42    41    1
   116    42    43   ar
   117   171   172    1
   118    37    34   am
   119    37    38    1
   120    41    38    1
   121   184   185    2
   122   191   192    1
   123   191   188    1
   124   182   181    2
   125   172   173    1
   126   172   175    1
   127    34    35    2
   128    91    90    1
   129   176   175    1
   130   176   177    1
   131    87    86    2
   132   174   173    2
   133   158   157    1
   134   158   159    1
   135   160   159    2
   136    38    39    1
   137    79    78    2
   138   181   180    1
   139   181   187   am
   140    45    46    1
   141    89    90    1
   142    89    88    1
   143    39    40    2
   144   180   179    1
   145    49    46    1
   146   188   187    1
   147   188   189    1
   148    85    86    1
   149    85    88    1
   150    85    84    1
   151    46    47    1
   152    78    84   am
   153    78    77    1
   154    82    81    1
   155    74    73    1
   156    80    81    1
   157    80    77    1
   158    83    81    1
   159    77    76    1
   160   189   194   am
   161   189   190    2
   162    75    73    1
   163    73    72    1
   164   194   195    1
   165    47    48    2
   166    66    67   ar
   167    66    64   ar
   168    67    65   ar
   169    71    70    2
   170   200   198    1
   171   195   198    1
   172   195   196    1
   173    72    69    1
   174    64    61   ar
   175    70    69    1
   176    69    68    1
   177    65    63   ar
   178   198   199    1
   179   196   197    2
   180   196   201   am
   181    57    56    2
   182   207   201    1
   183   207   206    1
   184    61    63   ar
   185    61    59   ar
   186   201   202    1
   187    63    62   ar
   188    68    56   am
   189    56    55    1
   190   206   205    1
   191   202   205    1
   192   202   203    1
   193    59    58    1
   194    59    60   ar
   195    62    60   ar
   196    58    55    1
   197    55    54    1
   198   203   204    2
