@<TRIPOS>MOLECULE
tmp/6ib0A00.pdb
 161 150 0 0 0
SMALL
GASTEIGER

@<TRIPOS>ATOM
      1  N        -28.8260   10.7800   -0.1440 N.3    26  MET26      -0.1230
      2  CA       -27.4620   11.2420   -0.3970 C.3    26  MET26       0.1702
      3  C        -27.4710   12.2580   -1.5380 C.2    26  MET26       0.2593
      4  O        -27.0700   11.9840   -2.6690 O.2    26  MET26      -0.2718
      5  CB       -26.5540   10.0590   -0.7120 C.3    26  MET26       0.0401
      6  CG       -26.7840    8.8350    0.1630 C.3    26  MET26       0.0596
      7  SD       -25.8240    7.3980   -0.3560 S.3    26  MET26      -0.1393
      8  CE       -24.1520    7.9520   -0.0380 C.3    26  MET26       0.0692
      9  N        -27.9400   13.4550   -1.2110 N.am   27  GLY27      -0.1942
     10  CA       -28.0560   14.5120   -2.1920 C.3    27  GLY27       0.2014
     11  C        -29.2010   14.2840   -3.1640 C.2    27  GLY27       0.2640
     12  O        -29.6830   13.1720   -3.3660 O.2    27  GLY27      -0.2714
     13  N        -29.6400   15.3760   -3.7800 N.am   28  SER28      -0.1935
     14  CA       -30.7290   15.3090   -4.7470 C.3    28  SER28       0.2055
     15  C        -30.2390   14.5690   -5.9860 C.2    28  SER28       0.2644
     16  O        -29.4310   15.1000   -6.7560 O.2    28  SER28      -0.2714
     17  CB       -31.2200   16.7070   -5.0990 C.3    28  SER28       0.2130
     18  OG       -32.1340   16.6610   -6.1750 O.3    28  SER28      -0.2179
     19  N        -30.7370   13.3520   -6.1900 N.am   29  GLY29      -0.1939
     20  CA       -30.2890   12.5610   -7.3190 C.3    29  GLY29       0.2014
     21  C        -30.7500   13.1510   -8.6400 C.2    29  GLY29       0.2639
     22  O        -31.8600   13.6700   -8.7610 O.2    29  GLY29      -0.2714
     23  N        -29.8710   13.0810   -9.6410 N.am   30  THR30      -0.1950
     24  CA       -30.1900   13.5040  -10.9970 C.3    30  THR30       0.1897
     25  C        -30.5370   12.3310  -11.9020 C.2    30  THR30       0.2313
     26  O        -31.0250   12.5460  -13.0190 O.2    30  THR30      -0.2863
     27  CB       -29.0170   14.2860  -11.6000 C.3    30  THR30       0.1794
     28  OG1      -27.9110   13.4010  -11.8090 O.3    30  THR30      -0.2208
     29  CG2      -28.5960   15.3980  -10.6580 C.3    30  THR30       0.0378
     30  N        -31.5760    8.6970   -4.2700 N.3    34  VAL34      -0.1245
     31  CA       -30.6350    7.7300   -3.7130 C.3    34  VAL34       0.1561
     32  C        -30.6640    7.8430   -2.1950 C.2    34  VAL34       0.2260
     33  O        -30.4270    8.9230   -1.6400 O.2    34  VAL34      -0.2867
     34  CB       -29.2100    7.9420   -4.2470 C.3    34  VAL34       0.0252
     35  CG1      -28.2130    7.1570   -3.4080 C.3    34  VAL34       0.0019
     36  CG2      -29.1260    7.5270   -5.7060 C.3    34  VAL34       0.0019
     37  N        -26.0450    1.9050   -0.6460 N.3    47  ALA47      -0.1245
     38  CA       -26.8350    2.8950   -1.3650 C.3    47  ALA47       0.1562
     39  C        -27.9820    2.1810   -2.0640 C.2    47  ALA47       0.2260
     40  O        -27.8200    1.0590   -2.5510 O.2    47  ALA47      -0.2867
     41  CB       -25.9880    3.6610   -2.3810 C.3    47  ALA47       0.0290
     42  N        -31.1610    3.1190   -4.7620 N.3    49  LYS49      -0.1245
     43  CA       -31.8890    4.0310   -5.6320 C.3    49  LYS49       0.1561
     44  C        -33.3470    3.6040   -5.7320 C.2    49  LYS49       0.2260
     45  O        -33.6540    2.4100   -5.7840 O.2    49  LYS49      -0.2867
     46  CB       -31.2540    4.0650   -7.0240 C.3    49  LYS49       0.0271
     47  CG       -31.9980    4.9150   -8.0390 C.3    49  LYS49       0.0035
     48  CD       -31.3640    4.7830   -9.4120 C.3    49  LYS49       0.0206
     49  CE       -29.8900    5.1560   -9.3670 C.3    49  LYS49       0.1093
     50  NZ       -29.3510    5.4430  -10.7230 N.3    49  LYS49      -0.1314
     51  N        -29.4460    3.3700  -17.1070 N.3    66  ASP66      -0.1239
     52  CA       -28.2580    3.1780  -16.2800 C.3    66  ASP66       0.1674
     53  C        -28.2570    1.7950  -15.6480 C.2    66  ASP66       0.2266
     54  O        -27.2050    1.1510  -15.5420 O.2    66  ASP66      -0.2867
     55  CB       -28.1800    4.2630  -15.2040 C.3    66  ASP66       0.1410
     56  CG       -27.1460    3.9520  -14.1290 C.2    66  ASP66       0.3668
     57  OD1      -27.4060    3.0650  -13.2900 O.co2  66  ASP66      -0.2456
     58  OD2      -26.0710    4.5890  -14.1230 O.co2  66  ASP66      -0.2456
     59  N        -19.3290    1.5060  -10.5880 N.3    80  VAL80      -0.1245
     60  CA       -20.1090    1.3060   -9.3710 C.3    80  VAL80       0.1561
     61  C        -20.9050    0.0190   -9.5040 C.2    80  VAL80       0.2260
     62  O        -21.7320   -0.1240  -10.4120 O.2    80  VAL80      -0.2867
     63  CB       -21.0370    2.5010   -9.0930 C.3    80  VAL80       0.0252
     64  CG1      -21.4340    2.5290   -7.6260 C.3    80  VAL80       0.0019
     65  CG2      -20.3620    3.8010   -9.4980 C.3    80  VAL80       0.0019
     66  N        -27.0390   -0.4650   -4.6460 N.3    96  MET96      -0.1230
     67  CA       -25.7110   -0.1560   -5.1550 C.3    96  MET96       0.1702
     68  C        -24.6760   -0.2020   -4.0380 C.2    96  MET96       0.2592
     69  O        -24.9840    0.0180   -2.8620 O.2    96  MET96      -0.2718
     70  CB       -25.6730    1.2310   -5.8150 C.3    96  MET96       0.0401
     71  CG       -26.5750    1.3870   -7.0310 C.3    96  MET96       0.0596
     72  SD       -26.0390    0.3840   -8.4300 S.3    96  MET96      -0.1393
     73  CE       -24.2990    0.8080   -8.5190 C.3    96  MET96       0.0692
     74  N        -23.4390   -0.4890   -4.4270 N.am   97  GLU97      -0.1966
     75  CA       -22.3100   -0.3670   -3.5200 C.3    97  GLU97       0.1733
     76  C        -22.1840    1.0730   -3.0400 C.2    97  GLU97       0.2616
     77  O        -22.2610    2.0140   -3.8350 O.2    97  GLU97      -0.2715
     78  CB       -21.0400   -0.8350   -4.2330 C.3    97  GLU97       0.0429
     79  CG       -19.7690   -0.0520   -3.9830 C.3    97  GLU97       0.1163
     80  CD       -18.5460   -0.7850   -4.5210 C.2    97  GLU97       0.3649
     81  OE1      -18.5790   -1.2330   -5.6880 O.co2  97  GLU97      -0.2457
     82  OE2      -17.5580   -0.9310   -3.7720 O.co2  97  GLU97      -0.2457
     83  N        -22.0120    1.2450   -1.7310 N.am   98  LEU98      -0.1963
     84  CA       -22.0150    2.5740   -1.1280 C.3    98  LEU98       0.1728
     85  C        -20.6750    3.2610   -1.3640 C.2    98  LEU98       0.2616
     86  O        -19.6270    2.7580   -0.9440 O.2    98  LEU98      -0.2715
     87  CB       -22.3170    2.4840    0.3670 C.3    98  LEU98       0.0311
     88  CG       -22.1790    3.7930    1.1560 C.3    98  LEU98       0.0022
     89  CD1      -23.2560    4.7920    0.7560 C.3    98  LEU98       0.0001
     90  CD2      -22.2010    3.5500    2.6630 C.3    98  LEU98       0.0001
     91  N        -20.7090    4.4070   -2.0340 N.am   99  MET99      -0.1963
     92  CA       -19.5190    5.1840   -2.3340 C.3    99  MET99       0.1736
     93  C        -19.5040    6.4590   -1.5010 C.2    99  MET99       0.2617
     94  O        -20.5160    6.8730   -0.9270 O.2    99  MET99      -0.2715
     95  CB       -19.4490    5.5130   -3.8310 C.3    99  MET99       0.0427
     96  CG       -19.3090    4.2900   -4.7280 C.3    99  MET99       0.0599
     97  SD       -17.6410    3.6080   -4.7030 S.3    99  MET99      -0.1393
     98  CE       -16.7080    4.9810   -5.3740 C.3    99  MET99       0.0692
     99  N        -18.3290    7.0790   -1.4370 N.am  100  GLY100     -0.1940
    100  CA       -18.1440    8.2630   -0.6210 C.3   100  GLY100      0.2014
    101  C        -18.7830    9.5170   -1.1800 C.2   100  GLY100      0.2640
    102  O        -19.6550   10.1060   -0.5350 O.2   100  GLY100     -0.2714
    103  N        -18.3690    9.9400   -2.3710 N.am  101  THR101     -0.1936
    104  CA       -18.8590   11.1850   -2.9520 C.3   101  THR101      0.2028
    105  C        -18.2940   11.3220   -4.3600 C.2   101  THR101      0.2642
    106  O        -17.4360   10.5450   -4.7840 O.2   101  THR101     -0.2714
    107  CB       -18.4670   12.3890   -2.0950 C.3   101  THR101      0.1808
    108  OG1      -18.9460   13.5880   -2.7140 O.3   101  THR101     -0.2208
    109  CG2      -16.9490   12.4690   -1.9500 C.3   101  THR101      0.0379
    110  N        -18.7820   12.3240   -5.0790 N.am  102  CYS102     -0.1967
    111  CA       -18.2470   12.6270   -6.3950 C.3   102  CYS102      0.1712
    112  C        -16.9990   13.4990   -6.2780 C.2   102  CYS102      0.2296
    113  O        -16.6970   14.0710   -5.2300 O.2   102  CYS102     -0.2864
    114  CB       -19.3050   13.2910   -7.2720 C.3   102  CYS102      0.0983
    115  SG       -19.9200   14.8570   -6.6260 S.3   102  CYS102     -0.0798
    116  N        -16.6740   16.1920   -8.0860 N.3   104  GLU104     -0.1231
    117  CA       -17.1180   17.5820   -8.1360 C.3   104  GLU104      0.1699
    118  C        -17.3650   18.1290   -6.7370 C.2   104  GLU104      0.2592
    119  O        -16.9680   19.2590   -6.4280 O.2   104  GLU104     -0.2718
    120  CB       -18.3790   17.7090   -8.9880 C.3   104  GLU104      0.0402
    121  CG       -18.8320   19.1490   -9.2050 C.3   104  GLU104      0.1161
    122  CD       -20.3250   19.3270   -9.0190 C.2   104  GLU104      0.3649
    123  OE1      -20.8380   18.9290   -7.9530 O.co2 104  GLU104     -0.2457
    124  OE2      -20.9860   19.8610   -9.9350 O.co2 104  GLU104     -0.2457
    125  N        -18.0300   17.3500   -5.8810 N.am  105  LYS105     -0.1980
    126  CA       -18.1930   17.7580   -4.4910 C.3   105  LYS105      0.1596
    127  C        -16.8820   17.6470   -3.7240 C.2   105  LYS105      0.2287
    128  O        -16.6580   18.4010   -2.7700 O.2   105  LYS105     -0.2864
    129  CB       -19.2870   16.9260   -3.8210 C.3   105  LYS105      0.0298
    130  CG       -20.6920   17.3610   -4.2100 C.3   105  LYS105      0.0038
    131  CD       -21.7540   16.4290   -3.6590 C.3   105  LYS105      0.0206
    132  CE       -23.1480   16.9600   -3.9630 C.3   105  LYS105      0.1093
    133  NZ       -24.2120   15.9580   -3.6790 N.3   105  LYS105     -0.1314
    134  N        -18.7310   15.1400  -11.5570 N.3   147  SER147     -0.1217
    135  CA       -19.8490   14.6620  -10.7520 C.3   147  SER147      0.1889
    136  C        -20.1810   13.1990  -11.0140 C.2   147  SER147      0.2288
    137  O        -21.0060   12.6300  -10.2920 O.2   147  SER147     -0.2866
    138  CB       -21.0870   15.5260  -11.0000 C.3   147  SER147      0.2089
    139  OG       -21.3120   15.7140  -12.3870 O.3   147  SER147     -0.2183
    140  N        -17.0090    8.7640   -8.7140 N.3   150  LEU150     -0.1245
    141  CA       -17.2530    8.5340   -7.2980 C.3   150  LEU150      0.1561
    142  C        -16.0110    7.9630   -6.6240 C.2   150  LEU150      0.2260
    143  O        -15.3150    7.1170   -7.1930 O.2   150  LEU150     -0.2867
    144  CB       -18.4380    7.5880   -7.1010 C.3   150  LEU150      0.0270
    145  CG       -19.7760    8.0380   -7.6940 C.3   150  LEU150      0.0019
    146  CD1      -20.9170    7.1820   -7.1630 C.3   150  LEU150      0.0001
    147  CD2      -20.0290    9.5120   -7.4110 C.3   150  LEU150      0.0001
    148  N        -19.9940    6.3650  -12.9340 N.3   160  CYS160     -0.1221
    149  CA       -21.3980    6.1170  -12.6330 C.3   160  CYS160      0.1808
    150  C        -22.2860    6.9000  -13.5920 C.2   160  CYS160      0.2601
    151  O        -21.8220    7.7330  -14.3770 O.2   160  CYS160     -0.2717
    152  CB       -21.7230    6.4900  -11.1790 C.3   160  CYS160      0.0970
    153  SG       -21.8450    8.2700  -10.8650 S.3   160  CYS160     -0.0800
    154  N        -23.5860    6.6100  -13.5150 N.am  161  ASP161     -0.1973
    155  CA       -24.6440    7.3520  -14.2040 C.3   161  ASP161      0.1709
    156  C        -24.5340    7.2080  -15.7250 C.2   161  ASP161      0.2293
    157  O        -24.1280    8.1180  -16.4490 O.2   161  ASP161     -0.2864
    158  CB       -24.6370    8.8300  -13.7970 C.3   161  ASP161      0.1436
    159  CG       -25.8930    9.5590  -14.2480 C.2   161  ASP161      0.3671
    160  OD1      -26.7450    8.9290  -14.9090 O.co2 161  ASP161     -0.2456
    161  OD2      -26.0210   10.7670  -13.9550 O.co2 161  ASP161     -0.2456
@<TRIPOS>BOND
     1    51    52    1
     2   157   156    2
     3    52    53    1
     4    52    55    1
     5   156   155    1
     6    53    54    2
     7    55    56    1
     8   160   159   ar
     9   151   150    2
    10   159   161   ar
    11   159   158    1
    12   155   158    1
    13   155   154    1
    14    56    58   ar
    15    56    57   ar
    16   150   154   am
    17   150   149    1
    18    26    25    2
    19   148   149    1
    20   149   152    1
    21   139   138    1
    22    25    24    1
    23    28    27    1
    24    27    24    1
    25    27    29    1
    26   134   135    1
    27   152   153    1
    28   136   135    1
    29   136   137    2
    30   138   135    1
    31    24    23    1
    32    50    49    1
    33    59    60    1
    34    62    61    2
    35   124   122   ar
    36    23    21   am
    37    61    60    1
    38    65    63    1
    39    48    49    1
    40    48    47    1
    41    60    63    1
    42   121   122    1
    43   121   120    1
    44    63    64    1
    45   122   123   ar
    46   120   117    1
    47    22    21    2
    48   140   141    1
    49    21    20    1
    50    73    72    1
    51    72    71    1
    52   117   116    1
    53   117   118    1
    54    47    46    1
    55   145   147    1
    56   145   146    1
    57   145   144    1
    58    20    19    1
    59   141   144    1
    60   141   142    1
    61   114   115    1
    62   114   111    1
    63   143   142    2
    64    71    70    1
    65    46    43    1
    66    16    15    2
    67   118   119    2
    68   118   125   am
    69   111   112    1
    70   111   110    1
    71   112   113    2
    72    19    15   am
    73    18    17    1
    74    15    14    1
    75   125   126    1
    76    70    67    1
    77    45    44    2
    78    44    43    1
    79    36    34    1
    80    81    80   ar
    81    43    42    1
    82    98    97    1
    83    67    66    1
    84    67    68    1
    85    17    14    1
    86   110   105   am
    87   106   105    2
    88    14    13    1
    89    96    97    1
    90    96    95    1
    91    80    79    1
    92    80    82   ar
    93   126   129    1
    94   126   127    1
    95    74    68   am
    96    74    75    1
    97   105   104    1
    98    30    31    1
    99    34    31    1
   100    34    35    1
   101    78    79    1
   102    78    75    1
   103   130   129    1
   104   130   131    1
   105    68    69    2
   106   132   133    1
   107   132   131    1
   108    77    76    2
   109    95    92    1
   110    13    11   am
   111   127   128    2
   112    31    32    1
   113    75    76    1
   114    12    11    2
   115    11    10    1
   116    76    83   am
   117   104   103    1
   118   104   107    1
   119   108   107    1
   120     4     3    2
   121    40    39    2
   122    41    38    1
   123   103   101   am
   124    92    91    1
   125    92    93    1
   126    32    33    2
   127    10     9    1
   128   107   109    1
   129    39    38    1
   130    91    85   am
   131    83    84    1
   132     3     9   am
   133     3     2    1
   134    93    99   am
   135    93    94    2
   136    99   100    1
   137    38    37    1
   138    85    84    1
   139    85    86    2
   140   101   100    1
   141   101   102    2
   142    84    87    1
   143     5     2    1
   144     5     6    1
   145     2     1    1
   146     7     8    1
   147     7     6    1
   148    87    88    1
   149    89    88    1
   150    88    90    1
