@<TRIPOS>MOLECULE
tmp/6ib2A00.pdb
 197 184 0 0 0
SMALL
GASTEIGER

@<TRIPOS>ATOM
      1  N        -29.7920   11.7270    0.1900 N.3    25  MET25      -0.1230
      2  CA       -28.4390   12.1530   -0.1440 C.3    25  MET25       0.1702
      3  C        -28.4970   13.0630   -1.3630 C.2    25  MET25       0.2592
      4  O        -28.8830   12.6230   -2.4510 O.2    25  MET25      -0.2718
      5  CB       -27.5330   10.9520   -0.4120 C.3    25  MET25       0.0401
      6  CG       -27.4510    9.9660    0.7390 C.3    25  MET25       0.0596
      7  SD       -26.1940    8.7030    0.4760 S.3    25  MET25      -0.1393
      8  CE       -26.7110    8.0350   -1.1020 C.3    25  MET25       0.0692
      9  N        -28.1160   14.3240   -1.1780 N.am   26  GLY26      -0.1957
     10  CA       -28.1130   15.2920   -2.2590 C.3    26  GLY26       0.1869
     11  C        -29.4820   15.5430   -2.8600 C.2    26  GLY26       0.2309
     12  O        -29.8830   16.6890   -3.0580 O.2    26  GLY26      -0.2863
     13  N        -31.8720    9.7950   -4.2970 N.3    28  VAL28      -0.1245
     14  CA       -31.1040    8.6400   -3.8440 C.3    28  VAL28       0.1561
     15  C        -31.1250    8.6260   -2.3220 C.2    28  VAL28       0.2260
     16  O        -30.6820    9.5870   -1.6810 O.2    28  VAL28      -0.2867
     17  CB       -29.6610    8.6700   -4.3720 C.3    28  VAL28       0.0252
     18  CG1      -28.9230    7.4080   -3.9580 C.3    28  VAL28       0.0019
     19  CG2      -29.6540    8.8270   -5.8840 C.3    28  VAL28       0.0019
     20  N        -26.8480    2.6900   -0.8120 N.3    41  ALA41      -0.1245
     21  CA       -27.5450    3.7620   -1.5070 C.3    41  ALA41       0.1562
     22  C        -28.7070    3.1660   -2.2890 C.2    41  ALA41       0.2260
     23  O        -28.5380    2.1640   -2.9910 O.2    41  ALA41      -0.2867
     24  CB       -26.6020    4.5160   -2.4450 C.3    41  ALA41       0.0290
     25  N        -31.8840    4.1690   -4.8950 N.3    43  LYS43      -0.1245
     26  CA       -32.5940    5.0870   -5.7750 C.3    43  LYS43       0.1561
     27  C        -34.0320    4.6100   -5.9340 C.2    43  LYS43       0.2260
     28  O        -34.2720    3.4310   -6.2160 O.2    43  LYS43      -0.2867
     29  CB       -31.9090    5.1820   -7.1400 C.3    43  LYS43       0.0271
     30  CG       -32.7790    5.7920   -8.2290 C.3    43  LYS43       0.0035
     31  CD       -32.0070    5.9810   -9.5240 C.3    43  LYS43       0.0206
     32  CE       -31.1470    7.2320   -9.4790 C.3    43  LYS43       0.1093
     33  NZ       -31.9770    8.4680   -9.4280 N.3    43  LYS43      -0.1314
     34  N        -35.1780    6.9590  -18.7710 N.3    56  ARG56      -0.1231
     35  CA       -33.7210    6.9310  -18.7140 C.3    56  ARG56       0.1694
     36  C        -33.2070    6.1430  -17.5150 C.2    56  ARG56       0.2591
     37  O        -32.1220    5.5560  -17.5880 O.2    56  ARG56      -0.2718
     38  CB       -33.1680    8.3560  -18.6800 C.3    56  ARG56       0.0321
     39  CG       -31.6440    8.3860  -18.8400 C.3    56  ARG56       0.0489
     40  CD       -31.0120    9.7100  -18.5340 C.3    56  ARG56       0.2205
     41  NE       -31.3570   10.2170  -17.2180 N.pl3  56  ARG56      -0.0865
     42  CZ       -32.2540   11.1740  -16.9970 C.cat  56  ARG56       0.5346
     43  NH1      -32.8630   11.8180  -17.9970 N.pl3  56  ARG56       0.1354
     44  NH2      -32.6490   11.4690  -15.7550 N.pl3  56  ARG56       0.1354
     45  N        -33.9610    6.1210  -16.4130 N.am   57  ILE57      -0.1980
     46  CA       -33.5340    5.3660  -15.2390 C.3    57  ILE57       0.1595
     47  C        -33.5200    3.8730  -15.5390 C.2    57  ILE57       0.2287
     48  O        -32.5810    3.1590  -15.1650 O.2    57  ILE57      -0.2864
     49  CB       -34.4330    5.7000  -14.0340 C.3    57  ILE57       0.0276
     50  CG1      -34.1480    7.1190  -13.5360 C.3    57  ILE57       0.0022
     51  CG2      -34.2340    4.6910  -12.9130 C.3    57  ILE57       0.0022
     52  CD1      -34.9710    7.5200  -12.3330 C.3    57  ILE57       0.0001
     53  N        -30.3960    3.2310  -17.9500 N.3    60  ASP60      -0.1225
     54  CA       -29.0820    3.1760  -17.3180 C.3    60  ASP60       0.1805
     55  C        -28.9600    1.9660  -16.4000 C.2    60  ASP60       0.2597
     56  O        -27.8900    1.3510  -16.3170 O.2    60  ASP60      -0.2718
     57  CB       -28.8150    4.4670  -16.5450 C.3    60  ASP60       0.1424
     58  CG       -28.8250    5.6920  -17.4370 C.2    60  ASP60       0.3668
     59  OD1      -28.9950    5.5350  -18.6650 O.co2  60  ASP60      -0.2456
     60  OD2      -28.6640    6.8130  -16.9110 O.co2  60  ASP60      -0.2456
     61  N        -30.0430    1.6130  -15.7000 N.am   61  LEU61      -0.1979
     62  CA       -30.0280    0.4150  -14.8660 C.3    61  LEU61       0.1596
     63  C        -29.7050   -0.8230  -15.6920 C.2    61  LEU61       0.2287
     64  O        -29.0110   -1.7310  -15.2190 O.2    61  LEU61      -0.2864
     65  CB       -31.3720    0.2530  -14.1550 C.3    61  LEU61       0.0297
     66  CG       -31.6000   -1.0680  -13.4160 C.3    61  LEU61       0.0022
     67  CD1      -30.5450   -1.2760  -12.3410 C.3    61  LEU61       0.0001
     68  CD2      -32.9970   -1.1160  -12.8180 C.3    61  LEU61       0.0001
     69  N        -26.0790   -0.6110  -15.9330 N.3    64  VAL64      -0.1245
     70  CA       -25.4720   -0.8550  -14.6250 C.3    64  VAL64       0.1561
     71  C        -25.4670   -2.3460  -14.3090 C.2    64  VAL64       0.2260
     72  O        -24.4630   -2.8980  -13.8450 O.2    64  VAL64      -0.2867
     73  CB       -26.2020   -0.0500  -13.5330 C.3    64  VAL64       0.0252
     74  CG1      -25.7110   -0.4590  -12.1530 C.3    64  VAL64       0.0019
     75  CG2      -26.0000    1.4400  -13.7450 C.3    64  VAL64       0.0019
     76  N        -20.2030    2.2810  -10.5620 N.3    74  VAL74      -0.1245
     77  CA       -20.9770    1.9890   -9.3620 C.3    74  VAL74       0.1561
     78  C        -21.8160    0.7400   -9.5890 C.2    74  VAL74       0.2260
     79  O        -22.5330    0.6210  -10.5910 O.2    74  VAL74      -0.2867
     80  CB       -21.8440    3.1960   -8.9750 C.3    74  VAL74       0.0252
     81  CG1      -20.9830    4.2800   -8.3510 C.3    74  VAL74       0.0019
     82  CG2      -22.5780    3.7400  -10.1930 C.3    74  VAL74       0.0019
     83  N        -33.8080    0.7030   -6.3850 N.3    88  ILE88      -0.1245
     84  CA       -32.5700    0.1830   -6.9510 C.3    88  ILE88       0.1561
     85  C        -31.4790    0.3470   -5.9030 C.2    88  ILE88       0.2260
     86  O        -31.0410    1.4680   -5.6160 O.2    88  ILE88      -0.2867
     87  CB       -32.1950    0.8950   -8.2570 C.3    88  ILE88       0.0252
     88  CG1      -33.4520    1.2340   -9.0600 C.3    88  ILE88       0.0019
     89  CG2      -31.2790    0.0180   -9.0810 C.3    88  ILE88       0.0019
     90  CD1      -33.1720    2.0180  -10.3250 C.3    88  ILE88       0.0001
     91  N        -27.8620    0.4060   -4.6020 N.3    90  MET90      -0.1230
     92  CA       -26.5890    0.7140   -5.2270 C.3    90  MET90       0.1702
     93  C        -25.4760    0.7240   -4.1880 C.2    90  MET90       0.2592
     94  O        -25.7060    0.9320   -2.9930 O.2    90  MET90      -0.2718
     95  CB       -26.6360    2.0680   -5.9420 C.3    90  MET90       0.0401
     96  CG       -25.8040    2.1230   -7.2080 C.3    90  MET90       0.0596
     97  SD       -26.4950    1.0810   -8.5040 S.3    90  MET90      -0.1393
     98  CE       -28.1850    1.6630   -8.5170 C.3    90  MET90       0.0692
     99  N        -24.2590    0.4890   -4.6700 N.am   91  GLU91      -0.1966
    100  CA       -23.0750    0.5780   -3.8280 C.3    91  GLU91       0.1733
    101  C        -22.9110    1.9960   -3.2930 C.2    91  GLU91       0.2616
    102  O        -22.8740    2.9620   -4.0600 O.2    91  GLU91      -0.2715
    103  CB       -21.8430    0.1570   -4.6290 C.3    91  GLU91       0.0429
    104  CG       -20.5280    0.7080   -4.1200 C.3    91  GLU91       0.1163
    105  CD       -19.3700    0.3510   -5.0280 C.2    91  GLU91       0.3649
    106  OE1      -18.2870    0.0100   -4.5070 O.co2  91  GLU91      -0.2457
    107  OE2      -19.5460    0.4010   -6.2640 O.co2  91  GLU91      -0.2457
    108  N        -22.8200    2.1170   -1.9710 N.am   92  LEU92      -0.1963
    109  CA       -22.7430    3.4230   -1.3270 C.3    92  LEU92       0.1728
    110  C        -21.3190    3.9590   -1.4070 C.2    92  LEU92       0.2616
    111  O        -20.3860    3.3430   -0.8790 O.2    92  LEU92      -0.2715
    112  CB       -23.1970    3.3310    0.1270 C.3    92  LEU92       0.0311
    113  CG       -23.2030    4.6570    0.8890 C.3    92  LEU92       0.0022
    114  CD1      -24.3120    5.5630    0.3790 C.3    92  LEU92       0.0001
    115  CD2      -23.3350    4.4250    2.3840 C.3    92  LEU92       0.0001
    116  N        -21.1540    5.1040   -2.0600 N.am   93  MET93      -0.1963
    117  CA       -19.8690    5.7760   -2.1560 C.3    93  MET93       0.1736
    118  C        -19.7920    6.8890   -1.1130 C.2    93  MET93       0.2617
    119  O        -20.7440    7.1550   -0.3740 O.2    93  MET93      -0.2715
    120  CB       -19.6550    6.3220   -3.5700 C.3    93  MET93       0.0427
    121  CG       -19.7240    5.2690   -4.6670 C.3    93  MET93       0.0599
    122  SD       -18.3560    4.0950   -4.6180 S.3    93  MET93      -0.1393
    123  CE       -16.9740    5.1650   -5.0090 C.3    93  MET93       0.0692
    124  N        -18.6380    7.5480   -1.0530 N.am   94  GLY94      -0.1940
    125  CA       -18.4480    8.6410   -0.1190 C.3    94  GLY94       0.2014
    126  C        -19.0550    9.9400   -0.6050 C.2    94  GLY94       0.2640
    127  O        -20.0360   10.4260   -0.0350 O.2    94  GLY94      -0.2714
    128  N        -18.4790   10.5110   -1.6600 N.am   95  THR95      -0.1936
    129  CA       -18.9800   11.7540   -2.2330 C.3    95  THR95       0.2028
    130  C        -18.4370   11.8870   -3.6490 C.2    95  THR95       0.2642
    131  O        -17.5990   11.0970   -4.0910 O.2    95  THR95      -0.2714
    132  CB       -18.5870   12.9650   -1.3800 C.3    95  THR95       0.1808
    133  OG1      -19.2680   14.1290   -1.8630 O.3    95  THR95      -0.2208
    134  CG2      -17.0870   13.1990   -1.4490 C.3    95  THR95       0.0379
    135  N        -18.9260   12.9000   -4.3560 N.am   96  CYS96      -0.1967
    136  CA       -18.5060   13.1380   -5.7270 C.3    96  CYS96       0.1712
    137  C        -17.3030   14.0790   -5.7630 C.2    96  CYS96       0.2296
    138  O        -16.9340   14.7030   -4.7650 O.2    96  CYS96      -0.2864
    139  CB       -19.6590   13.7070   -6.5540 C.3    96  CYS96       0.0983
    140  SG       -19.9650   15.4690   -6.3080 S.3    96  CYS96      -0.0798
    141  N        -17.0190   16.8900   -7.3200 N.3    98  GLU98      -0.1231
    142  CA       -17.3820   18.2980   -7.1950 C.3    98  GLU98       0.1699
    143  C        -17.4650   18.7170   -5.7320 C.2    98  GLU98       0.2592
    144  O        -17.0470   19.8240   -5.3730 O.2    98  GLU98      -0.2718
    145  CB       -18.7030   18.5690   -7.9130 C.3    98  GLU98       0.0402
    146  CG       -19.1700   20.0130   -7.8230 C.3    98  GLU98       0.1161
    147  CD       -20.3050   20.3220   -8.7790 C.2    98  GLU98       0.3649
    148  OE1      -20.3680   19.6910   -9.8550 O.co2  98  GLU98      -0.2457
    149  OE2      -21.1360   21.1960   -8.4520 O.co2  98  GLU98      -0.2457
    150  N        -17.9980   17.8450   -4.8710 N.am   99  LYS99      -0.1980
    151  CA       -18.0190   18.1450   -3.4430 C.3    99  LYS99       0.1596
    152  C        -16.6140   18.1120   -2.8550 C.2    99  LYS99       0.2287
    153  O        -16.2960   18.8930   -1.9510 O.2    99  LYS99      -0.2864
    154  CB       -18.9270   17.1600   -2.7070 C.3    99  LYS99       0.0298
    155  CG       -20.3540   17.0990   -3.2290 C.3    99  LYS99       0.0038
    156  CD       -21.0780   18.4230   -3.0600 C.3    99  LYS99       0.0206
    157  CE       -22.5130   18.3250   -3.5560 C.3    99  LYS99       0.1093
    158  NZ       -23.2560   19.6030   -3.3780 N.3    99  LYS99      -0.1314
    159  N        -19.2470   15.9460  -11.1130 N.3   141  SER141     -0.1217
    160  CA       -20.3990   15.4540  -10.3670 C.3   141  SER141      0.1889
    161  C        -20.6790   13.9810  -10.6390 C.2   141  SER141      0.2288
    162  O        -21.3680   13.3370   -9.8410 O.2   141  SER141     -0.2866
    163  CB       -21.6370   16.2910  -10.6950 C.3   141  SER141      0.2089
    164  OG       -21.9490   16.2270  -12.0760 O.3   141  SER141     -0.2183
    165  N        -17.3600    9.5150   -8.5790 N.3   144  LEU144     -0.1245
    166  CA       -17.6000    9.2090   -7.1770 C.3   144  LEU144      0.1561
    167  C        -16.3590    8.5970   -6.5440 C.2   144  LEU144      0.2260
    168  O        -15.6190    7.8510   -7.1930 O.2   144  LEU144     -0.2867
    169  CB       -18.7860    8.2540   -7.0180 C.3   144  LEU144      0.0270
    170  CG       -20.1510    8.7770   -7.4680 C.3   144  LEU144      0.0019
    171  CD1      -21.2370    7.7590   -7.1620 C.3   144  LEU144      0.0001
    172  CD2      -20.4640   10.1110   -6.8080 C.3   144  LEU144      0.0001
    173  N        -20.4380    7.4560  -12.0450 N.3   154  CYS154     -0.1221
    174  CA       -21.7750    7.4130  -11.4370 C.3   154  CYS154      0.1808
    175  C        -22.8710    7.1840  -12.4740 C.2   154  CYS154      0.2601
    176  O        -23.4220    6.0840  -12.5780 O.2   154  CYS154     -0.2717
    177  CB       -22.0270    8.7030  -10.6540 C.3   154  CYS154      0.0970
    178  SG       -23.7280    8.9230  -10.0850 S.3   154  CYS154     -0.0800
    179  N        -23.2070    8.2220  -13.2330 N.am  155  ASP155     -0.1959
    180  CA       -24.3610    8.2060  -14.1170 C.3   155  ASP155      0.1840
    181  C        -23.9140    8.1620  -15.5730 C.2   155  ASP155      0.2622
    182  O        -22.7560    8.4350  -15.9000 O.2   155  ASP155     -0.2715
    183  CB       -25.2470    9.4330  -13.8710 C.3   155  ASP155      0.1450
    184  CG       -26.6920    9.1960  -14.2580 C.2   155  ASP155      0.3671
    185  OD1      -26.9340    8.4890  -15.2580 O.co2 155  ASP155     -0.2456
    186  OD2      -27.5870    9.7120  -13.5570 O.co2 155  ASP155     -0.2456
    187  N        -24.8540    7.8150  -16.4470 N.am  156  PHE156     -0.1974
    188  CA       -24.5710    7.7100  -17.8740 C.3   156  PHE156      0.1639
    189  C        -25.5280    8.5690  -18.6940 C.2   156  PHE156      0.2290
    190  O        -26.0300    9.5860  -18.2170 O.2   156  PHE156     -0.2864
    191  CB       -24.6520    6.2530  -18.3300 C.3   156  PHE156      0.0560
    192  CG       -23.9700    5.2910  -17.4020 C.ar  156  PHE156     -0.0200
    193  CD1      -24.7080    4.3830  -16.6640 C.ar  156  PHE156     -0.0042
    194  CD2      -22.5930    5.3050  -17.2560 C.ar  156  PHE156     -0.0042
    195  CE1      -24.0850    3.4990  -15.8070 C.ar  156  PHE156     -0.0003
    196  CE2      -21.9640    4.4220  -16.3980 C.ar  156  PHE156     -0.0003
    197  CZ       -22.7130    3.5190  -15.6720 C.ar  156  PHE156     -0.0000
@<TRIPOS>BOND
     1    39    38    1
     2    39    40    1
     3    34    35    1
     4    35    38    1
     5    35    36    1
     6   189   190    2
     7   189   188    1
     8    59    58   ar
     9    40    41    1
    10   191   188    1
    11   191   192    1
    12    43    42    1
    13    53    54    1
    14   188   187    1
    15    37    36    2
    16    36    45   am
    17    58    60   ar
    18    58    57    1
    19   192   194   ar
    20   192   193   ar
    21    54    57    1
    22    54    55    1
    23   194   196   ar
    24    41    42    2
    25    42    44    1
    26   193   195   ar
    27   187   181   am
    28    45    46    1
    29    55    56    2
    30    55    61   am
    31   196   197   ar
    32    69    70    1
    33   182   181    2
    34   195   197   ar
    35    61    62    1
    36    63    64    2
    37    63    62    1
    38   181   180    1
    39    47    46    1
    40    47    48    2
    41   185   184   ar
    42    46    49    1
    43    62    65    1
    44    70    71    1
    45    70    73    1
    46    71    72    2
    47   184   183    1
    48   184   186   ar
    49    65    66    1
    50   180   183    1
    51   180   179    1
    52    49    50    1
    53    49    51    1
    54    75    73    1
    55    50    52    1
    56    73    74    1
    57    66    68    1
    58    66    67    1
    59   179   175   am
    60   176   175    2
    61   175   174    1
    62   164   163    1
    63   173   174    1
    64   174   177    1
    65   159   160    1
    66   163   160    1
    67   177   178    1
    68   161   160    1
    69   161   162    2
    70    79    78    2
    71    76    77    1
    72    90    88    1
    73    82    80    1
    74   148   147   ar
    75    78    77    1
    76    31    32    1
    77    31    30    1
    78    32    33    1
    79    77    80    1
    80    89    87    1
    81    88    87    1
    82    80    81    1
    83   147   149   ar
    84   147   146    1
    85   165   166    1
    86    98    97    1
    87    97    96    1
    88    87    84    1
    89    30    29    1
    90   145   146    1
    91   145   142    1
    92   170   171    1
    93   170   169    1
    94   170   172    1
    95   141   142    1
    96    96    95    1
    97   142   143    1
    98   168   167    2
    99   166   169    1
   100   166   167    1
   101    29    26    1
   102    84    83    1
   103    84    85    1
   104   139   140    1
   105   139   136    1
   106   107   105   ar
   107    28    27    2
   108    95    92    1
   109    27    26    1
   110    85    86    2
   111    19    17    1
   112    26    25    1
   113   137   136    1
   114   137   138    2
   115   143   144    2
   116   143   150   am
   117   136   135    1
   118    92    91    1
   119    92    93    1
   120   105   106   ar
   121   105   104    1
   122   123   122    1
   123   150   151    1
   124    99    93   am
   125    99   100    1
   126   121   122    1
   127   121   120    1
   128   103   104    1
   129   103   100    1
   130    17    18    1
   131    17    14    1
   132   135   130   am
   133    13    14    1
   134    93    94    2
   135   131   130    2
   136   102   101    2
   137    14    15    1
   138   100   101    1
   139   130   129    1
   140   120   117    1
   141   157   158    1
   142   157   156    1
   143   151   152    1
   144   151   154    1
   145   101   108   am
   146   155   156    1
   147   155   154    1
   148    12    11    2
   149    23    22    2
   150    11    10    1
   151   152   153    2
   152     4     3    2
   153    24    21    1
   154    15    16    2
   155    22    21    1
   156    10     9    1
   157   129   128    1
   158   129   132    1
   159   117   116    1
   160   117   118    1
   161   116   110   am
   162   108   109    1
   163   133   132    1
   164   128   126   am
   165    21    20    1
   166   134   132    1
   167   110   109    1
   168   110   111    2
   169     3     9   am
   170     3     2    1
   171   109   112    1
   172   118   124   am
   173   118   119    2
   174     8     7    1
   175   124   125    1
   176   126   125    1
   177   126   127    2
   178     5     2    1
   179     5     6    1
   180     2     1    1
   181   112   113    1
   182   114   113    1
   183     7     6    1
   184   113   115    1
