@<TRIPOS>MOLECULE
tmp/6iblA00.pdb
 215 210 0 0 0
SMALL
GASTEIGER

@<TRIPOS>ATOM
      1  N        -44.0140   29.6850    0.6020 N.3   168  LEU168     -0.1245
      2  CA       -45.2110   29.0380   -0.0040 C.3   168  LEU168      0.1561
      3  C        -45.2400   27.5250    0.3080 C.2   168  LEU168      0.2260
      4  O        -46.3530   26.9910    0.5210 O.2   168  LEU168     -0.2867
      5  CB       -45.2210   29.3160   -1.5140 C.3   168  LEU168      0.0270
      6  CG       -46.4040   28.7490   -2.3040 C.3   168  LEU168      0.0019
      7  CD1      -47.7210   29.3520   -1.8420 C.3   168  LEU168      0.0001
      8  CD2      -46.2100   28.9630   -3.7910 C.3   168  LEU168      0.0001
      9  N        -43.5520   37.7580   -8.6390 N.3   184  TRP184     -0.1227
     10  CA       -42.6400   36.6680   -8.2000 C.3   184  TRP184      0.1737
     11  C        -42.5460   35.5770   -9.2730 C.2   184  TRP184      0.2596
     12  O        -41.4210   35.1300   -9.5340 O.2   184  TRP184     -0.2718
     13  CB       -43.1060   36.0790   -6.8670 C.3   184  TRP184      0.0564
     14  CG       -42.3190   34.8890   -6.4510 C.ar  184  TRP184      0.0003
     15  CD1      -41.0230   34.8920   -6.0470 C.ar  184  TRP184      0.0946
     16  CD2      -42.7570   33.5210   -6.4450 C.ar  184  TRP184      0.0152
     17  NE1      -40.6290   33.6190   -5.7700 N.ar  184  TRP184     -0.2442
     18  CE2      -41.6630   32.7530   -5.9960 C.ar  184  TRP184      0.0810
     19  CE3      -43.9530   32.8660   -6.7670 C.ar  184  TRP184      0.0012
     20  CZ2      -41.7250   31.3640   -5.8570 C.ar  184  TRP184      0.0191
     21  CZ3      -44.0210   31.4940   -6.6260 C.ar  184  TRP184      0.0001
     22  CH2      -42.9180   30.7520   -6.1790 C.ar  184  TRP184      0.0015
     23  N        -43.6840   35.1500   -9.8340 N.am  185  THR185     -0.1953
     24  CA       -43.7720   34.1500  -10.9390 C.3   185  THR185      0.1897
     25  C        -42.9980   34.6600  -12.1680 C.2   185  THR185      0.2313
     26  O        -42.2280   33.8720  -12.7400 O.2   185  THR185     -0.2863
     27  CB       -45.2330   33.8020  -11.2640 C.3   185  THR185      0.1794
     28  OG1      -45.8140   33.2860  -10.0660 O.3   185  THR185     -0.2208
     29  CG2      -45.3990   32.7670  -12.3540 C.3   185  THR185      0.0378
     30  N        -39.2080   34.5960  -11.3430 N.3   188  ASP188     -0.1225
     31  CA       -38.7840   33.1750  -11.4320 C.3   188  ASP188      0.1805
     32  C        -38.4500   32.8460  -12.8870 C.2   188  ASP188      0.2597
     33  O        -37.2870   32.4990  -13.1420 O.2   188  ASP188     -0.2718
     34  CB       -39.8650   32.2230  -10.9200 C.3   188  ASP188      0.1424
     35  CG       -39.4460   30.7710  -10.8200 C.2   188  ASP188      0.3668
     36  OD1      -38.5890   30.3350  -11.6110 O.co2 188  ASP188     -0.2456
     37  OD2      -40.0180   30.0780   -9.9610 O.co2 188  ASP188     -0.2456
     38  N        -39.4270   32.9730  -13.7890 N.am  189  VAL189     -0.1980
     39  CA       -39.2890   32.5940  -15.2300 C.3   189  VAL189      0.1595
     40  C        -38.2130   33.4710  -15.8860 C.2   189  VAL189      0.2287
     41  O        -37.4210   32.8960  -16.6330 O.2   189  VAL189     -0.2864
     42  CB       -40.6290   32.6440  -15.9890 C.3   189  VAL189      0.0276
     43  CG1      -40.4560   32.3900  -17.4820 C.3   189  VAL189      0.0022
     44  CG2      -41.6320   31.6600  -15.3900 C.3   189  VAL189      0.0022
     45  N        -34.6230   32.1920  -14.3740 N.3   192  VAL192     -0.1245
     46  CA       -34.3780   30.8000  -14.8600 C.3   192  VAL192      0.1561
     47  C        -34.1190   30.8330  -16.3740 C.2   192  VAL192      0.2260
     48  O        -33.1610   30.1590  -16.7920 O.2   192  VAL192     -0.2867
     49  CB       -35.5000   29.8190  -14.4630 C.3   192  VAL192      0.0252
     50  CG1      -35.4430   28.5030  -15.2300 C.3   192  VAL192      0.0019
     51  CG2      -35.4630   29.5500  -12.9650 C.3   192  VAL192      0.0019
     52  N        -51.3410   30.7850   -5.1120 N.3   266  CYS266     -0.1221
     53  CA       -50.2810   31.1620   -6.0810 C.3   266  CYS266      0.1808
     54  C        -49.7410   29.8950   -6.7500 C.2   266  CYS266      0.2601
     55  O        -48.5110   29.7870   -6.9270 O.2   266  CYS266     -0.2717
     56  CB       -49.1790   31.9550   -5.3890 C.3   266  CYS266      0.0970
     57  SG       -47.9940   32.7180   -6.5250 S.3   266  CYS266     -0.0800
     58  N        -50.6450   28.9860   -7.1330 N.am  267  ASP267     -0.1959
     59  CA       -50.3310   27.8160   -7.9940 C.3   267  ASP267      0.1840
     60  C        -49.9360   28.3490   -9.3810 C.2   267  ASP267      0.2622
     61  O        -50.4990   29.3840   -9.8370 O.2   267  ASP267     -0.2715
     62  CB       -51.4750   26.7920   -8.0610 C.3   267  ASP267      0.1450
     63  CG       -51.7770   26.0840   -6.7460 C.2   267  ASP267      0.3671
     64  OD1      -51.6410   26.7380   -5.6840 O.co2 267  ASP267     -0.2456
     65  OD2      -52.1390   24.8770   -6.7900 O.co2 267  ASP267     -0.2456
     66  N        -48.9350   27.6990   -9.9720 N.am  268  PHE268     -0.1960
     67  CA       -48.4470   27.8950  -11.3560 C.3   268  PHE268      0.1771
     68  C        -49.2980   27.0200  -12.2830 C.2   268  PHE268      0.2619
     69  O        -49.0120   25.8070  -12.4260 O.2   268  PHE268     -0.2715
     70  CB       -46.9450   27.6000  -11.4050 C.3   268  PHE268      0.0574
     71  CG       -46.2740   28.0510  -12.6710 C.ar  268  PHE268     -0.0200
     72  CD1      -46.1530   29.4060  -12.9540 C.ar  268  PHE268     -0.0042
     73  CD2      -45.7940   27.1250  -13.5880 C.ar  268  PHE268     -0.0042
     74  CE1      -45.5660   29.8340  -14.1330 C.ar  268  PHE268     -0.0003
     75  CE2      -45.1980   27.5550  -14.7630 C.ar  268  PHE268     -0.0003
     76  CZ       -45.0830   28.9080  -15.0320 C.ar  268  PHE268     -0.0000
     77  N        -50.3660   27.6230  -12.8150 N.am  269  VAL269     -0.1963
     78  CA       -51.3110   27.0230  -13.8020 C.3   269  VAL269      0.1727
     79  C        -51.1990   27.8550  -15.0800 C.2   269  VAL269      0.2616
     80  O        -51.4130   29.0780  -15.0220 O.2   269  VAL269     -0.2715
     81  CB       -52.7630   26.9910  -13.2870 C.3   269  VAL269      0.0290
     82  CG1      -53.6810   26.2570  -14.2690 C.3   269  VAL269      0.0023
     83  CG2      -52.8540   26.4100  -11.8790 C.3   269  VAL269      0.0023
     84  N        -50.8450   27.2000  -16.1800 N.am  270  THR270     -0.1951
     85  CA       -50.5630   27.8190  -17.4960 C.3   270  THR270      0.1897
     86  C        -51.4980   27.1760  -18.5190 C.2   270  THR270      0.2313
     87  O        -51.8210   25.9860  -18.3390 O.2   270  THR270     -0.2863
     88  CB       -49.0880   27.6150  -17.8600 C.3   270  THR270      0.1794
     89  OG1      -48.7780   26.2290  -17.7230 O.3   270  THR270     -0.2208
     90  CG2      -48.1400   28.3840  -16.9730 C.3   270  THR270      0.0378
     91  N        -48.4910   28.6670  -23.4900 N.3   274  TYR274     -0.1227
     92  CA       -47.4500   29.2680  -22.6110 C.3   274  TYR274      0.1736
     93  C        -46.5190   28.1700  -22.0840 C.2   274  TYR274      0.2595
     94  O        -45.3110   28.3660  -22.1260 O.2   274  TYR274     -0.2718
     95  CB       -48.0360   30.0610  -21.4350 C.3   274  TYR274      0.0548
     96  CG       -46.9700   30.7650  -20.6380 C.ar  274  TYR274     -0.0200
     97  CD1      -46.4160   31.9510  -21.0840 C.ar  274  TYR274     -0.0009
     98  CD2      -46.4300   30.1930  -19.4950 C.ar  274  TYR274     -0.0009
     99  CE1      -45.3930   32.5730  -20.3870 C.ar  274  TYR274      0.0417
    100  CE2      -45.4050   30.7980  -18.7830 C.ar  274  TYR274      0.0417
    101  CZ       -44.8870   31.9960  -19.2320 C.ar  274  TYR274      0.1957
    102  OH       -43.8610   32.5740  -18.5460 O.3   274  TYR274     -0.2866
    103  N        -47.0770   27.0660  -21.5900 N.am  275  ALA275     -0.1980
    104  CA       -46.3270   25.9130  -21.0310 C.3   275  ALA275      0.1597
    105  C        -45.3380   25.3540  -22.0600 C.2   275  ALA275      0.2287
    106  O        -44.2100   24.9870  -21.6520 O.2   275  ALA275     -0.2864
    107  CB       -47.2790   24.8330  -20.5900 C.3   275  ALA275      0.0319
    108  N        -42.8230   28.7870  -23.3540 N.3   278  SER278     -0.1202
    109  CA       -41.8900   29.1220  -22.2480 C.3   278  SER278      0.2020
    110  C        -40.8650   27.9920  -22.0450 C.2   278  SER278      0.2619
    111  O        -39.6990   28.3230  -21.8440 O.2   278  SER278     -0.2717
    112  CB       -42.6330   29.4530  -20.9750 C.3   278  SER278      0.2103
    113  OG       -43.2150   28.2960  -20.3930 O.3   278  SER278     -0.2182
    114  N        -41.2700   26.7170  -22.1250 N.am  279  SER279     -0.1951
    115  CA       -40.3780   25.5340  -21.9340 C.3   279  SER279      0.1924
    116  C        -39.3410   25.4330  -23.0680 C.2   279  SER279      0.2314
    117  O        -38.1490   25.1590  -22.7660 O.2   279  SER279     -0.2863
    118  CB       -41.1650   24.2510  -21.8040 C.3   279  SER279      0.2116
    119  OG       -41.9680   24.2670  -20.6300 O.3   279  SER279     -0.2180
    120  N        -37.0250   28.7330  -22.7680 N.3   282  SER282     -0.1217
    121  CA       -36.2320   28.7170  -21.5090 C.3   282  SER282      0.1889
    122  C        -35.2480   27.5490  -21.4550 C.2   282  SER282      0.2288
    123  O        -34.1970   27.7630  -20.8520 O.2   282  SER282     -0.2866
    124  CB       -37.0930   28.7300  -20.2830 C.3   282  SER282      0.2089
    125  OG       -37.9270   29.8750  -20.2880 O.3   282  SER282     -0.2183
    126  N        -32.4600   20.3340  -14.5070 N.3   342  TRP342     -0.1298
    127  CA       -33.5560   21.0560  -15.2220 C.3   342  TRP342      0.1291
    128  C        -34.3520   20.1730  -16.1910 C.3   342  TRP342      0.2013
    129  O        -35.4840   20.5850  -16.4570 O.3   342  TRP342     -0.2188
    130  CB       -33.0250   22.2960  -15.9560 C.3   342  TRP342      0.0497
    131  CG       -32.9900   23.5530  -15.1440 C.ar  342  TRP342     -0.0001
    132  CD1      -31.9120   24.3620  -14.9370 C.ar  342  TRP342      0.0946
    133  CD2      -34.0840   24.1650  -14.4460 C.ar  342  TRP342      0.0152
    134  NE1      -32.2560   25.4270  -14.1520 N.ar  342  TRP342     -0.2442
    135  CE2      -33.5820   25.3340  -13.8310 C.ar  342  TRP342      0.0810
    136  CE3      -35.4310   23.8360  -14.2580 C.ar  342  TRP342      0.0012
    137  CZ2      -34.3830   26.1770  -13.0570 C.ar  342  TRP342      0.0191
    138  CZ3      -36.2260   24.6760  -13.5040 C.ar  342  TRP342      0.0001
    139  CH2      -35.7050   25.8240  -12.9020 C.ar  342  TRP342      0.0015
    140  N        -37.8880   18.6570  -14.4270 N.3   345  PHE345     -0.1227
    141  CA       -38.8980   19.7410  -14.2800 C.3   345  PHE345      0.1736
    142  C        -39.5370   20.0800  -15.6330 C.2   345  PHE345      0.2595
    143  O        -40.7820   20.1320  -15.6790 O.2   345  PHE345     -0.2718
    144  CB       -38.3050   21.0150  -13.6720 C.3   345  PHE345      0.0547
    145  CG       -39.2920   22.1550  -13.6330 C.ar  345  PHE345     -0.0202
    146  CD1      -40.2720   22.2000  -12.6540 C.ar  345  PHE345     -0.0042
    147  CD2      -39.3030   23.1290  -14.6240 C.ar  345  PHE345     -0.0042
    148  CE1      -41.2210   23.2120  -12.6570 C.ar  345  PHE345     -0.0003
    149  CE2      -40.2500   24.1400  -14.6260 C.ar  345  PHE345     -0.0003
    150  CZ       -41.2100   24.1800  -13.6440 C.ar  345  PHE345     -0.0000
    151  N        -38.7300   20.3590  -16.6640 N.am  346  PHE346     -0.1976
    152  CA       -39.2180   20.7960  -18.0020 C.3   346  PHE346      0.1639
    153  C        -39.8090   19.6200  -18.7840 C.2   346  PHE346      0.2290
    154  O        -40.6520   19.8820  -19.6620 O.2   346  PHE346     -0.2864
    155  CB       -38.1270   21.5080  -18.8020 C.3   346  PHE346      0.0560
    156  CG       -37.9660   22.9490  -18.4030 C.ar  346  PHE346     -0.0200
    157  CD1      -38.8980   23.8950  -18.8100 C.ar  346  PHE346     -0.0042
    158  CD2      -36.9090   23.3610  -17.6000 C.ar  346  PHE346     -0.0042
    159  CE1      -38.7710   25.2220  -18.4290 C.ar  346  PHE346     -0.0003
    160  CE2      -36.7820   24.6880  -17.2250 C.ar  346  PHE346     -0.0003
    161  CZ       -37.7160   25.6130  -17.6330 C.ar  346  PHE346     -0.0000
    162  N        -43.1930   19.2830  -17.1060 N.3   349  ASN349     -0.1240
    163  CA       -43.9540   20.5110  -17.4770 C.3   349  ASN349      0.1653
    164  C        -44.6190   20.3240  -18.8490 C.2   349  ASN349      0.2266
    165  O        -45.7610   20.7820  -19.0010 O.2   349  ASN349     -0.2867
    166  CB       -43.0650   21.7630  -17.4500 C.3   349  ASN349      0.1155
    167  CG       -43.8470   23.0600  -17.4600 C.2   349  ASN349      0.2627
    168  OD1      -44.6250   23.3180  -16.5440 O.2   349  ASN349     -0.2716
    169  ND2      -43.6450   23.8740  -18.4880 N.am  349  ASN349     -0.0877
    170  N        -48.4070   16.7810   -7.8200 N.3   361  ASP361     -0.1239
    171  CA       -48.0500   18.1970   -7.5280 C.3   361  ASP361      0.1674
    172  C        -46.7050   18.2600   -6.7790 C.2   361  ASP361      0.2266
    173  O        -45.8990   19.1320   -7.1320 O.2   361  ASP361     -0.2867
    174  CB       -49.1800   18.9100   -6.7690 C.3   361  ASP361      0.1410
    175  CG       -49.1390   20.4320   -6.8570 C.2   361  ASP361      0.3668
    176  OD1      -48.1470   21.0270   -6.3720 O.co2 361  ASP361     -0.2456
    177  OD2      -50.0990   21.0190   -7.4180 O.co2 361  ASP361     -0.2456
    178  N        -43.6990   17.6370   -9.3250 N.3   364  PHE364     -0.1227
    179  CA       -43.5830   18.9040  -10.1020 C.3   364  PHE364      0.1736
    180  C        -42.7960   19.9400   -9.2930 C.2   364  PHE364      0.2595
    181  O        -41.7630   20.4030   -9.8150 O.2   364  PHE364     -0.2718
    182  CB       -44.9600   19.4630  -10.4730 C.3   364  PHE364      0.0547
    183  CG       -44.9680   20.7050  -11.3330 C.ar  364  PHE364     -0.0202
    184  CD1      -45.0640   20.6040  -12.7150 C.ar  364  PHE364     -0.0042
    185  CD2      -44.9110   21.9760  -10.7650 C.ar  364  PHE364     -0.0042
    186  CE1      -45.1130   21.7430  -13.5110 C.ar  364  PHE364     -0.0003
    187  CE2      -44.9410   23.1160  -11.5620 C.ar  364  PHE364     -0.0003
    188  CZ       -45.0430   22.9990  -12.9370 C.ar  364  PHE364     -0.0000
    189  N        -43.2500   20.2570   -8.0730 N.am  365  VAL365     -0.1980
    190  CA       -42.6280   21.2940   -7.1950 C.3   365  VAL365      0.1595
    191  C        -41.2010   20.8460   -6.8400 C.2   365  VAL365      0.2287
    192  O        -40.2890   21.6730   -6.9920 O.2   365  VAL365     -0.2864
    193  CB       -43.4780   21.6090   -5.9450 C.3   365  VAL365      0.0276
    194  CG1      -42.7560   22.5410   -4.9750 C.3   365  VAL365      0.0022
    195  CG2      -44.8240   22.2160   -6.3240 C.3   365  VAL365      0.0022
    196  N        -38.8510   21.4250   -9.6970 N.3   368  ASN368     -0.1240
    197  CA       -38.6130   22.8950   -9.7790 C.3   368  ASN368      0.1653
    198  C        -37.5430   23.3020   -8.7640 C.2   368  ASN368      0.2266
    199  O        -36.7560   24.1850   -9.0930 O.2   368  ASN368     -0.2867
    200  CB       -39.8780   23.7290   -9.5490 C.3   368  ASN368      0.1155
    201  CG       -39.8380   25.0910  -10.2130 C.2   368  ASN368      0.2627
    202  OD1      -40.8660   25.6030  -10.6470 O.2   368  ASN368     -0.2716
    203  ND2      -38.6730   25.7040  -10.3020 N.am  368  ASN368     -0.0877
    204  N        -33.7080   24.9620   -9.3080 N.3   372  TYR372     -0.1241
    205  CA       -33.1380   26.0760   -8.4990 C.3   372  TYR372      0.1605
    206  C        -31.7320   25.7080   -8.0020 C.2   372  TYR372      0.2264
    207  O        -30.9050   26.6320   -7.9190 O.2   372  TYR372     -0.2867
    208  CB       -34.0320   26.4650   -7.3140 C.3   372  TYR372      0.0534
    209  CG       -35.4280   26.9560   -7.6350 C.ar  372  TYR372     -0.0201
    210  CD1      -35.7090   27.7060   -8.7760 C.ar  372  TYR372     -0.0009
    211  CD2      -36.4730   26.7270   -6.7450 C.ar  372  TYR372     -0.0009
    212  CE1      -36.9910   28.1750   -9.0410 C.ar  372  TYR372      0.0417
    213  CE2      -37.7580   27.1830   -6.9980 C.ar  372  TYR372      0.0417
    214  CZ       -38.0160   27.9190   -8.1440 C.ar  372  TYR372      0.1957
    215  OH       -39.2750   28.3630   -8.4060 O.3   372  TYR372     -0.2866
@<TRIPOS>BOND
     1    91    92    1
     2   108   109    1
     3   116   117    2
     4   116   115    1
     5   120   121    1
     6    92    93    1
     7    92    95    1
     8   109   110    1
     9   109   112    1
    10    94    93    2
    11   114   110   am
    12   114   115    1
    13    93   103   am
    14   105   106    2
    15   105   104    1
    16   110   111    2
    17   115   118    1
    18   118   119    1
    19   103   104    1
    20   121   122    1
    21   121   124    1
    22   122   123    2
    23    95    96    1
    24    97    96   ar
    25    97    99   ar
    26   104   107    1
    27   112   113    1
    28    96    98   ar
    29    99   101   ar
    30   125   124    1
    31   154   153    2
    32    98   100   ar
    33   101   100   ar
    34   101   102    1
    35   165   164    2
    36   164   163    1
    37   157   159   ar
    38   157   156   ar
    39   155   156    1
    40   155   152    1
    41   153   152    1
    42    86    87    2
    43    86    85    1
    44   169   167   am
    45   159   161   ar
    46   156   158   ar
    47   152   151    1
    48    88    89    1
    49    88    85    1
    50    88    90    1
    51   161   160   ar
    52   158   160   ar
    53    85    84    1
    54    43    42    1
    55   163   166    1
    56   163   162    1
    57   167   166    1
    58   167   168    2
    59    48    47    2
    60   151   142   am
    61    41    40    2
    62   129   128    1
    63    47    46    1
    64   128   127    1
    65    84    79   am
    66    42    44    1
    67    42    39    1
    68   130   127    1
    69   130   131    1
    70    40    39    1
    71   143   142    2
    72   142   141    1
    73    50    49    1
    74    39    38    1
    75   127   126    1
    76   131   132   ar
    77   131   133   ar
    78    79    80    2
    79    79    78    1
    80    76    75   ar
    81    76    74   ar
    82   132   134   ar
    83    46    49    1
    84    46    45    1
    85    75    73   ar
    86   149   147   ar
    87   149   150   ar
    88   147   145   ar
    89    49    51    1
    90   133   136   ar
    91   133   135   ar
    92   140   141    1
    93   141   144    1
    94    82    81    1
    95   136   138   ar
    96   134   135   ar
    97    74    72   ar
    98   135   137   ar
    99    78    81    1
   100    78    77    1
   101    38    32   am
   102   144   145    1
   103   150   148   ar
   104   145   146   ar
   105    73    71   ar
   106   186   188   ar
   107   186   184   ar
   108   138   139   ar
   109    81    83    1
   110    33    32    2
   111   137   139   ar
   112    72    71   ar
   113   188   187   ar
   114    32    31    1
   115    77    68   am
   116    26    25    2
   117   184   183   ar
   118    71    70    1
   119   148   146   ar
   120    69    68    2
   121    29    27    1
   122    68    67    1
   123    25    24    1
   124    36    35   ar
   125   187   185   ar
   126    31    30    1
   127    31    34    1
   128    70    67    1
   129    67    66    1
   130   183   185   ar
   131   183   182    1
   132    27    24    1
   133    27    28    1
   134    24    23    1
   135    34    35    1
   136    35    37   ar
   137   202   201    2
   138   182   179    1
   139   203   201   am
   140   201   200    1
   141   179   178    1
   142   179   180    1
   143    66    60   am
   144    61    60    2
   145    23    11   am
   146   181   180    2
   147   197   196    1
   148   197   200    1
   149   197   198    1
   150    12    11    2
   151    60    59    1
   152   204   205    1
   153   180   189   am
   154    11    10    1
   155   199   198    2
   156   212   210   ar
   157   212   214   ar
   158   210   209   ar
   159     9    10    1
   160   205   206    1
   161   205   208    1
   162   215   214    1
   163    10    13    1
   164   214   213   ar
   165   189   190    1
   166    62    59    1
   167    62    63    1
   168   206   207    2
   169    59    58    1
   170   170   171    1
   171   209   208    1
   172   209   211   ar
   173   171   172    1
   174   171   174    1
   175   177   175   ar
   176   190   191    1
   177   190   193    1
   178    58    54   am
   179   173   172    2
   180   213   211   ar
   181   192   191    2
   182    55    54    2
   183    13    14    1
   184   175   174    1
   185   175   176   ar
   186    65    63   ar
   187    19    21   ar
   188    19    16   ar
   189    54    53    1
   190    63    64   ar
   191    21    22   ar
   192    57    56    1
   193    14    16   ar
   194    14    15   ar
   195    16    18   ar
   196   195   193    1
   197    22    20   ar
   198    53    56    1
   199    53    52    1
   200    15    17   ar
   201    18    20   ar
   202    18    17   ar
   203   193   194    1
   204     8     6    1
   205     6     7    1
   206     6     5    1
   207     5     2    1
   208     2     3    1
   209     2     1    1
   210     3     4    2
