@<TRIPOS>MOLECULE
tmp/6iblA01.pdb
 108 103 0 0 0
SMALL
GASTEIGER

@<TRIPOS>ATOM
      1  N        -29.8000   40.8410  -25.3420 N.3   231  THR231     -0.1218
      2  CA       -30.7990   40.0250  -26.0930 C.3   231  THR231      0.1862
      3  C        -31.3670   38.9160  -25.2020 C.2   231  THR231      0.2287
      4  O        -32.6180   38.7500  -25.2030 O.2   231  THR231     -0.2866
      5  CB       -30.2320   39.3920  -27.3660 C.3   231  THR231      0.1770
      6  OG1      -29.6840   40.4400  -28.1590 O.3   231  THR231     -0.2211
      7  CG2      -31.2770   38.6420  -28.1590 C.3   231  THR231      0.0375
      8  N        -33.6290   40.4970  -22.7000 N.3   234  ALA234     -0.1231
      9  CA       -34.8230   40.9680  -23.4420 C.3   234  ALA234      0.1694
     10  C        -35.7630   39.7930  -23.7000 C.2   234  ALA234      0.2591
     11  O        -36.9430   39.9480  -23.3990 O.2   234  ALA234     -0.2718
     12  CB       -34.4380   41.6410  -24.7360 C.3   234  ALA234      0.0304
     13  N        -35.2420   38.6660  -24.2020 N.am  235  ILE235     -0.1980
     14  CA       -36.0420   37.4340  -24.4980 C.3   235  ILE235      0.1595
     15  C        -36.6470   36.9150  -23.1890 C.2   235  ILE235      0.2287
     16  O        -37.8590   36.6470  -23.1810 O.2   235  ILE235     -0.2864
     17  CB       -35.2000   36.3520  -25.2030 C.3   235  ILE235      0.0276
     18  CG1      -34.8050   36.7780  -26.6200 C.3   235  ILE235      0.0022
     19  CG2      -35.9330   35.0160  -25.2160 C.3   235  ILE235      0.0022
     20  CD1      -33.6410   35.9920  -27.2000 C.3   235  ILE235      0.0001
     21  N        -39.5360   39.1080  -22.1260 N.3   238  LEU238     -0.1231
     22  CA       -40.6950   38.9710  -23.0440 C.3   238  LEU238      0.1693
     23  C        -41.3600   37.5870  -22.9260 C.2   238  LEU238      0.2591
     24  O        -42.4840   37.4650  -23.4230 O.2   238  LEU238     -0.2718
     25  CB       -40.2420   39.2750  -24.4770 C.3   238  LEU238      0.0284
     26  CG       -39.8280   40.7280  -24.7340 C.3   238  LEU238      0.0019
     27  CD1      -39.1330   40.8610  -26.0790 C.3   238  LEU238      0.0001
     28  CD2      -41.0230   41.6670  -24.6520 C.3   238  LEU238      0.0001
     29  N        -40.7130   36.5800  -22.3320 N.am  239  VAL239     -0.1980
     30  CA       -41.3070   35.2340  -22.0600 C.3   239  VAL239      0.1595
     31  C        -41.8800   35.2060  -20.6370 C.2   239  VAL239      0.2287
     32  O        -42.7760   34.3930  -20.4020 O.2   239  VAL239     -0.2864
     33  CB       -40.2770   34.1080  -22.2800 C.3   239  VAL239      0.0276
     34  CG1      -40.8380   32.7320  -21.9460 C.3   239  VAL239      0.0022
     35  CG2      -39.7510   34.1040  -23.7090 C.3   239  VAL239      0.0022
     36  N        -43.9650   40.0060  -19.7330 N.3   242  LEU242     -0.1231
     37  CA       -44.9870   40.3670  -20.7570 C.3   242  LEU242      0.1678
     38  C        -46.1610   39.3890  -20.7050 C.2   242  LEU242      0.2434
     39  O        -47.2780   39.8490  -20.5290 O.2   242  LEU242     -0.2733
     40  CB       -44.3590   40.4630  -22.1530 C.3   242  LEU242      0.0284
     41  CG       -45.3330   40.7100  -23.3040 C.3   242  LEU242      0.0019
     42  CD1      -45.9330   42.1030  -23.1980 C.3   242  LEU242      0.0001
     43  CD2      -44.6440   40.5310  -24.6440 C.3   242  LEU242      0.0001
     44  N        -45.9990   38.0480  -20.8200 N.am  243  PRO243     -0.2729
     45  CA       -47.1500   37.1420  -20.7860 C.3   243  PRO243      0.1401
     46  C        -47.8390   37.0220  -19.4210 C.2   243  PRO243      0.2269
     47  O        -49.0480   36.9580  -19.4120 O.2   243  PRO243     -0.2865
     48  CB       -46.5480   35.7800  -21.1470 C.3   243  PRO243      0.0296
     49  CG       -45.2860   36.1480  -21.8740 C.3   243  PRO243      0.0237
     50  CD       -44.7580   37.2920  -21.0420 C.3   243  PRO243      0.0939
     51  N        -51.6600   36.5170  -20.2470 N.3   248  TRP248     -0.1241
     52  CA       -51.6790   35.6860  -21.4860 C.3   248  TRP248      0.1605
     53  C        -51.4700   34.2080  -21.1410 C.2   248  TRP248      0.2264
     54  O        -51.9740   33.3430  -21.8830 O.2   248  TRP248     -0.2867
     55  CB       -50.6170   36.1390  -22.4820 C.3   248  TRP248      0.0550
     56  CG       -50.7340   37.5600  -22.9180 C.ar  248  TRP248      0.0003
     57  CD1      -51.7230   38.4460  -22.6170 C.ar  248  TRP248      0.0946
     58  CD2      -49.8310   38.2510  -23.7940 C.ar  248  TRP248      0.0152
     59  NE1      -51.4820   39.6460  -23.2140 N.ar  248  TRP248     -0.2442
     60  CE2      -50.3350   39.5600  -23.9510 C.ar  248  TRP248      0.0810
     61  CE3      -48.6480   37.8940  -24.4580 C.ar  248  TRP248      0.0012
     62  CZ2      -49.7030   40.5050  -24.7590 C.ar  248  TRP248      0.0191
     63  CZ3      -48.0210   38.8290  -25.2520 C.ar  248  TRP248      0.0001
     64  CH2      -48.5570   40.1100  -25.4130 C.ar  248  TRP248      0.0015
     65  N        -51.8820   27.9090  -19.5670 N.3   271  ASN271     -0.1240
     66  CA       -52.4620   27.3120  -20.8060 C.3   271  ASN271      0.1653
     67  C        -51.4140   26.3980  -21.4610 C.2   271  ASN271      0.2266
     68  O        -50.2320   26.3990  -21.0440 O.2   271  ASN271     -0.2867
     69  CB       -53.0280   28.3510  -21.7890 C.3   271  ASN271      0.1155
     70  CG       -52.0750   29.4710  -22.1380 C.2   271  ASN271      0.2627
     71  OD1      -50.9300   29.2220  -22.4900 O.2   271  ASN271     -0.2716
     72  ND2      -52.5390   30.7050  -22.0510 N.am  271  ASN271     -0.0877
     73  N        -50.2450   26.6420  -24.5860 N.3   273  ALA273     -0.1231
     74  CA       -49.3680   27.4650  -25.4520 C.3   273  ALA273      0.1694
     75  C        -48.2080   28.0330  -24.6330 C.2   273  ALA273      0.2592
     76  O        -47.0530   27.8400  -25.0670 O.2   273  ALA273     -0.2718
     77  CB       -50.1540   28.5600  -26.1260 C.3   273  ALA273      0.0304
     78  N        -48.4910   28.6670  -23.4900 N.am  274  TYR274     -0.1976
     79  CA       -47.4500   29.2680  -22.6110 C.3   274  TYR274      0.1639
     80  C        -46.5190   28.1700  -22.0840 C.2   274  TYR274      0.2290
     81  O        -45.3110   28.3660  -22.1260 O.2   274  TYR274     -0.2864
     82  CB       -48.0360   30.0610  -21.4350 C.3   274  TYR274      0.0560
     83  CG       -46.9700   30.7650  -20.6380 C.ar  274  TYR274     -0.0198
     84  CD1      -46.4160   31.9510  -21.0840 C.ar  274  TYR274     -0.0009
     85  CD2      -46.4300   30.1930  -19.4950 C.ar  274  TYR274     -0.0009
     86  CE1      -45.3930   32.5730  -20.3870 C.ar  274  TYR274      0.0417
     87  CE2      -45.4050   30.7980  -18.7830 C.ar  274  TYR274      0.0417
     88  CZ       -44.8870   31.9960  -19.2320 C.ar  274  TYR274      0.1957
     89  OH       -43.8610   32.5740  -18.5460 O.3   274  TYR274     -0.2866
     90  N        -44.3260   27.0640  -25.1490 N.3   277  ALA277     -0.1231
     91  CA       -43.5150   28.2090  -25.6390 C.3   277  ALA277      0.1694
     92  C        -42.4430   28.6170  -24.6170 C.2   277  ALA277      0.2592
     93  O        -41.2630   28.7610  -25.0120 O.2   277  ALA277     -0.2718
     94  CB       -44.4010   29.3770  -25.9770 C.3   277  ALA277      0.0304
     95  N        -42.8230   28.7870  -23.3540 N.am  278  SER278     -0.1952
     96  CA       -41.8900   29.1220  -22.2480 C.3   278  SER278      0.1924
     97  C        -40.8650   27.9920  -22.0450 C.2   278  SER278      0.2314
     98  O        -39.6990   28.3230  -21.8440 O.2   278  SER278     -0.2863
     99  CB       -42.6330   29.4530  -20.9750 C.3   278  SER278      0.2116
    100  OG       -43.2150   28.2960  -20.3930 O.3   278  SER278     -0.2180
    101  N        -38.3180   27.9910  -25.1990 N.3   281  ILE281     -0.1245
    102  CA       -37.4500   29.2110  -25.1740 C.3   281  ILE281      0.1561
    103  C        -36.5310   29.1670  -23.9330 C.2   281  ILE281      0.2260
    104  O        -35.3310   29.5140  -24.0820 O.2   281  ILE281     -0.2867
    105  CB       -38.2810   30.5130  -25.2790 C.3   281  ILE281      0.0252
    106  CG1      -39.0740   30.5630  -26.5900 C.3   281  ILE281      0.0019
    107  CG2      -37.3870   31.7360  -25.1270 C.3   281  ILE281      0.0019
    108  CD1      -40.1400   31.6300  -26.6350 C.3   281  ILE281      0.0001
@<TRIPOS>BOND
     1     6     5    1
     2     7     5    1
     3     5     2    1
     4    20    18    1
     5   108   106    1
     6    18    17    1
     7   106   105    1
     8    77    74    1
     9     2     1    1
    10     2     3    1
    11    27    26    1
    12    94    91    1
    13    91    90    1
    14    91    92    1
    15    74    75    1
    16    74    73    1
    17    64    63   ar
    18    64    62   ar
    19   105   102    1
    20   105   107    1
    21    63    61   ar
    22    19    17    1
    23    17    14    1
    24     4     3    2
    25   101   102    1
    26   102   103    1
    27    76    75    2
    28    93    92    2
    29    62    60   ar
    30    12     9    1
    31    26    28    1
    32    26    25    1
    33    43    41    1
    34    75    78   am
    35    92    95   am
    36    14    13    1
    37    14    15    1
    38    25    22    1
    39    61    58   ar
    40    13    10   am
    41   104   103    2
    42    60    58   ar
    43    60    59   ar
    44    58    56   ar
    45    35    33    1
    46    10     9    1
    47    10    11    2
    48    78    79    1
    49     9     8    1
    50    24    23    2
    51    95    96    1
    52    41    42    1
    53    41    40    1
    54    59    57   ar
    55    15    16    2
    56    22    23    1
    57    22    21    1
    58    23    29   am
    59    56    57   ar
    60    56    55    1
    61    79    80    1
    62    79    82    1
    63    71    70    2
    64    55    52    1
    65    29    30    1
    66    33    30    1
    67    33    34    1
    68    96    97    1
    69    96    99    1
    70    40    37    1
    71    70    72   am
    72    70    69    1
    73    81    80    2
    74    30    31    1
    75    97    98    2
    76    54    53    2
    77    49    48    1
    78    49    50    1
    79    69    66    1
    80    52    53    1
    81    52    51    1
    82    67    68    2
    83    67    66    1
    84    82    83    1
    85    48    45    1
    86    84    83   ar
    87    84    86   ar
    88    50    44    1
    89    99   100    1
    90    44    45    1
    91    44    38   am
    92    66    65    1
    93    45    46    1
    94    37    38    1
    95    37    36    1
    96    38    39    2
    97    83    85   ar
    98    31    32    2
    99    86    88   ar
   100    85    87   ar
   101    46    47    2
   102    88    87   ar
   103    88    89    1
