@<TRIPOS>MOLECULE
tmp/6iblA04.pdb
 98 90 0 0 0
SMALL
GASTEIGER

@<TRIPOS>ATOM
      1  N        -30.8170   23.7950  -24.5770 N.3   287  LEU287     -0.1245
      2  CA       -30.3020   22.4030  -24.4240 C.3   287  LEU287      0.1561
      3  C        -29.8140   21.8610  -25.7730 C.2   287  LEU287      0.2260
      4  O        -28.7310   21.2480  -25.7740 O.2   287  LEU287     -0.2867
      5  CB       -31.3800   21.4800  -23.8490 C.3   287  LEU287      0.0270
      6  CG       -31.0420   19.9850  -23.8020 C.3   287  LEU287      0.0019
      7  CD1      -29.8750   19.7140  -22.8620 C.3   287  LEU287      0.0001
      8  CD2      -32.2600   19.1730  -23.3810 C.3   287  LEU287      0.0001
      9  N        -25.9550   20.8600  -26.6890 N.3   291  ILE291     -0.1245
     10  CA       -25.6320   19.4710  -27.1480 C.3   291  ILE291      0.1561
     11  C        -24.8520   19.5830  -28.4620 C.2   291  ILE291      0.2260
     12  O        -23.7510   19.0250  -28.5270 O.2   291  ILE291     -0.2867
     13  CB       -26.8910   18.5860  -27.2970 C.3   291  ILE291      0.0252
     14  CG1      -27.5100   18.2370  -25.9370 C.3   291  ILE291      0.0019
     15  CG2      -26.5970   17.3230  -28.1020 C.3   291  ILE291      0.0019
     16  CD1      -28.9810   17.8530  -25.9940 C.3   291  ILE291      0.0001
     17  N         -5.7490    8.3950  -25.1820 N.3   320  MET320     -0.1245
     18  CA        -6.2360    9.4870  -24.2910 C.3   320  MET320      0.1570
     19  C         -5.2670    9.6930  -23.1130 C.2   320  MET320      0.2261
     20  O         -5.1760    8.8090  -22.2270 O.2   320  MET320     -0.2867
     21  CB        -7.6450    9.2070  -23.7490 C.3   320  MET320      0.0387
     22  CG        -8.7640    9.6730  -24.6710 C.3   320  MET320      0.0595
     23  SD       -10.3560    9.7010  -23.8110 S.3   320  MET320     -0.1393
     24  CE       -10.6810    7.9440  -23.6400 C.3   320  MET320      0.0692
     25  N         -8.8710   13.2630  -20.9070 N.3   325  HIS325     -0.1241
     26  CA        -9.7780   12.6710  -19.8790 C.3   325  HIS325      0.1621
     27  C        -10.3660   13.7530  -18.9590 C.2   325  HIS325      0.2264
     28  O        -11.5350   13.5700  -18.5600 O.2   325  HIS325     -0.2867
     29  CB        -9.0840   11.5780  -19.0380 C.3   325  HIS325      0.0745
     30  CG        -9.0170   10.2340  -19.6810 C.ar  325  HIS325      0.0817
     31  ND1       -7.8490    9.4930  -19.7140 N.ar  325  HIS325     -0.2268
     32  CD2       -9.9600    9.4890  -20.2960 C.ar  325  HIS325      0.1154
     33  CE1       -8.0710    8.3520  -20.3340 C.ar  325  HIS325      0.1986
     34  NE2       -9.3590    8.3280  -20.7050 N.ar  325  HIS325     -0.2212
     35  N        -12.9980   15.7240  -21.1330 N.3   328  LEU328     -0.1231
     36  CA       -14.1860   14.8590  -21.3200 C.3   328  LEU328      0.1693
     37  C        -15.0030   14.8160  -20.0210 C.2   328  LEU328      0.2595
     38  O        -16.2260   14.7140  -20.1230 O.2   328  LEU328     -0.2718
     39  CB       -13.7070   13.4790  -21.7830 C.3   328  LEU328      0.0284
     40  CG       -14.6620   12.6850  -22.6660 C.3   328  LEU328      0.0019
     41  CD1      -15.1310   13.4730  -23.8900 C.3   328  LEU328      0.0001
     42  CD2      -13.9750   11.4020  -23.1090 C.3   328  LEU328      0.0001
     43  N        -14.3650   14.9130  -18.8500 N.am  329  LYS329     -0.1934
     44  CA       -15.0420   15.0280  -17.5270 C.3   329  LYS329      0.1812
     45  C        -15.7670   16.3800  -17.4470 C.2   329  LYS329      0.2332
     46  O        -16.9540   16.3700  -17.0860 O.2   329  LYS329     -0.2860
     47  CB       -14.0440   14.8390  -16.3740 C.2   329  LYS329     -0.0016
     48  CG       -14.6510   14.8130  -14.9730 C.2   329  LYS329     -0.0270
     49  CD       -13.6390   14.7180  -13.8300 C.3   329  LYS329      0.0462
     50  CE       -12.7220   15.9230  -13.6610 C.3   329  LYS329      0.1140
     51  NZ       -13.4460   17.1710  -13.3040 N.3   329  LYS329     -0.1310
     52  N        -16.8450   18.3660  -19.8520 N.3   331  LEU331     -0.1231
     53  CA       -18.0000   18.2170  -20.7770 C.3   331  LEU331      0.1693
     54  C        -19.1350   17.4280  -20.0980 C.2   331  LEU331      0.2592
     55  O        -20.3160   17.8090  -20.2690 O.2   331  LEU331     -0.2718
     56  CB       -17.5340   17.4970  -22.0450 C.3   331  LEU331      0.0284
     57  CG       -18.0490   18.0930  -23.3420 C.3   331  LEU331      0.0019
     58  CD1      -17.2620   19.3560  -23.6440 C.3   331  LEU331      0.0001
     59  CD2      -17.9430   17.0890  -24.4840 C.3   331  LEU331      0.0001
     60  N        -18.7860   16.3480  -19.3870 N.am  332  GLY332     -0.1957
     61  CA       -19.7140   15.5080  -18.6040 C.3   332  GLY332      0.1869
     62  C        -20.4130   16.3030  -17.5140 C.2   332  GLY332      0.2309
     63  O        -21.6380   16.1870  -17.4150 O.2   332  GLY332     -0.2863
     64  N        -22.9460   19.2260  -19.2370 N.3   335  MET335     -0.1230
     65  CA       -24.1970   18.6090  -19.7520 C.3   335  MET335      0.1702
     66  C        -24.8760   17.7690  -18.6580 C.2   335  MET335      0.2592
     67  O        -26.1240   17.8050  -18.5990 O.2   335  MET335     -0.2718
     68  CB       -23.9370   17.7420  -20.9890 C.3   335  MET335      0.0401
     69  CG       -23.3610   18.5080  -22.1780 C.3   335  MET335      0.0596
     70  SD       -24.2740   20.0050  -22.6770 S.3   335  MET335     -0.1393
     71  CE       -25.9330   19.3490  -22.8440 C.3   335  MET335      0.0692
     72  N        -24.1110   17.0800  -17.7980 N.am  336  GLY336     -0.1957
     73  CA       -24.6530   16.2080  -16.7330 C.3   336  GLY336      0.1869
     74  C        -25.4720   16.9840  -15.7150 C.2   336  GLY336      0.2309
     75  O        -26.6850   16.6900  -15.5800 O.2   336  GLY336     -0.2863
     76  N        -28.4960   19.0540  -17.0950 N.3   339  THR339     -0.1203
     77  CA       -29.5980   18.1500  -17.5280 C.3   339  THR339      0.1994
     78  C        -30.2760   17.5310  -16.2950 C.2   339  THR339      0.2617
     79  O        -31.5290   17.6160  -16.2120 O.2   339  THR339     -0.2717
     80  CB       -29.1040   17.1150  -18.5440 C.3   339  THR339      0.1784
     81  OG1      -28.6100   17.8860  -19.6380 O.3   339  THR339     -0.2211
     82  CG2      -30.1750   16.1580  -19.0310 C.3   339  THR339      0.0376
     83  N        -29.4900   16.9460  -15.3770 N.am  340  LEU340     -0.1979
     84  CA       -29.9900   16.3730  -14.0920 C.3   340  LEU340      0.1596
     85  C        -30.8870   17.4050  -13.4010 C.2   340  LEU340      0.2287
     86  O        -31.9820   17.0240  -12.9760 O.2   340  LEU340     -0.2864
     87  CB       -28.8160   15.9810  -13.1840 C.3   340  LEU340      0.0297
     88  CG       -29.1570   15.7400  -11.7080 C.3   340  LEU340      0.0022
     89  CD1      -30.1290   14.5760  -11.5680 C.3   340  LEU340      0.0001
     90  CD2      -27.9000   15.5180  -10.8740 C.3   340  LEU340      0.0001
     91  N        -33.8230   19.0560  -16.7190 N.3   343  LEU343     -0.1245
     92  CA       -34.6080   18.1760  -17.6390 C.3   343  LEU343      0.1561
     93  C        -35.8370   17.6010  -16.9320 C.2   343  LEU343      0.2260
     94  O        -36.9130   17.6560  -17.5190 O.2   343  LEU343     -0.2867
     95  CB       -33.7530   17.0580  -18.2480 C.3   343  LEU343      0.0270
     96  CG       -34.4600   16.1100  -19.2290 C.3   343  LEU343      0.0019
     97  CD1      -35.1460   16.8470  -20.3660 C.3   343  LEU343      0.0001
     98  CD2      -33.4770   15.1060  -19.8060 C.3   343  LEU343      0.0001
@<TRIPOS>BOND
     1    12    11    2
     2    11    10    1
     3    15    13    1
     4    13    10    1
     5    13    14    1
     6    10     9    1
     7    16    14    1
     8     4     3    2
     9     3     2    1
    10    17    18    1
    11    22    23    1
    12    22    21    1
    13     1     2    1
    14    59    57    1
    15     2     5    1
    16    18    21    1
    17    18    19    1
    18    41    40    1
    19     5     6    1
    20    23    24    1
    21     6     8    1
    22     6     7    1
    23    58    57    1
    24    57    56    1
    25    19    20    2
    26    42    40    1
    27    71    70    1
    28    70    69    1
    29    40    39    1
    30    69    68    1
    31    56    53    1
    32    39    36    1
    33    36    35    1
    34    36    37    1
    35    68    65    1
    36    25    26    1
    37    53    54    1
    38    53    52    1
    39    34    33   ar
    40    34    32   ar
    41    97    96    1
    42    33    31   ar
    43    32    30   ar
    44    55    54    2
    45    38    37    2
    46    54    60   am
    47    37    43   am
    48    26    29    1
    49    26    27    1
    50    98    96    1
    51    65    64    1
    52    65    66    1
    53    31    30   ar
    54    30    29    1
    55    81    80    1
    56    60    61    1
    57    96    95    1
    58    82    80    1
    59    27    28    2
    60    43    44    1
    61    66    67    2
    62    66    72   am
    63    61    62    1
    64    80    77    1
    65    95    92    1
    66    72    73    1
    67    92    93    1
    68    92    91    1
    69    77    76    1
    70    77    78    1
    71    44    45    1
    72    44    47    1
    73    94    93    2
    74    62    63    2
    75    45    46    2
    76    73    74    1
    77    47    48    2
    78    78    79    2
    79    78    83   am
    80    74    75    2
    81    83    84    1
    82    48    49    1
    83    84    85    1
    84    84    87    1
    85    49    50    1
    86    50    51    1
    87    85    86    2
    88    87    88    1
    89    88    89    1
    90    88    90    1
