@<TRIPOS>MOLECULE
tmp/6iblA03.pdb
 112 104 0 0 0
SMALL
GASTEIGER

@<TRIPOS>ATOM
      1  N        -17.6240   38.0700  -18.9440 N.3   145  LEU145     -0.1245
      2  CA       -18.8110   38.9330  -19.2110 C.3   145  LEU145      0.1561
      3  C        -20.0850   38.0670  -19.1840 C.2   145  LEU145      0.2260
      4  O        -20.9870   38.3750  -18.3730 O.2   145  LEU145     -0.2867
      5  CB       -18.6170   39.6420  -20.5600 C.3   145  LEU145      0.0270
      6  CG       -19.0310   41.1050  -20.6730 C.3   145  LEU145      0.0019
      7  CD1      -18.3530   41.9660  -19.6090 C.3   145  LEU145      0.0001
      8  CD2      -18.6860   41.5930  -22.0770 C.3   145  LEU145      0.0001
      9  N        -20.6820   36.7410  -15.8120 N.3   148  THR148     -0.1203
     10  CA       -21.2660   37.8020  -14.9470 C.3   148  THR148      0.1994
     11  C        -22.7800   37.8860  -15.1560 C.2   148  THR148      0.2618
     12  O        -23.4720   38.0710  -14.1440 O.2   148  THR148     -0.2717
     13  CB       -20.6160   39.1730  -15.1570 C.3   148  THR148      0.1784
     14  OG1      -19.1910   39.0390  -15.2110 O.3   148  THR148     -0.2211
     15  CG2      -21.0020   40.1370  -14.0560 C.3   148  THR148      0.0376
     16  N        -23.2590   37.7830  -16.4020 N.am  149  SER149     -0.1951
     17  CA       -24.7020   37.6900  -16.7680 C.3   149  SER149      0.1924
     18  C        -25.3300   36.5250  -15.9910 C.2   149  SER149      0.2314
     19  O        -26.3170   36.7610  -15.2670 O.2   149  SER149     -0.2863
     20  CB       -24.8970   37.5590  -18.2900 C.3   149  SER149      0.2116
     21  OG       -26.2450   37.2500  -18.6550 O.3   149  SER149     -0.2180
     22  N        -25.4580   36.9990  -12.0510 N.3   152  CYS152     -0.1235
     23  CA       -26.5610   37.9200  -11.6610 C.3   152  CYS152      0.1677
     24  C        -27.9090   37.1840  -11.6930 C.2   152  CYS152      0.2270
     25  O        -28.6830   37.3350  -10.7340 O.2   152  CYS152     -0.2867
     26  CB       -26.6140   39.1460  -12.5640 C.3   152  CYS152      0.0956
     27  SG       -25.0650   40.0810  -12.5970 S.3   152  CYS152     -0.0801
     28  N        -30.1340   36.5390   -8.1950 N.3   156  VAL156     -0.1245
     29  CA       -31.5470   37.0070   -8.0540 C.3   156  VAL156      0.1561
     30  C        -32.4280   35.7850   -7.7740 C.2   156  VAL156      0.2260
     31  O        -33.4320   35.9740   -7.0970 O.2   156  VAL156     -0.2867
     32  CB       -32.0310   37.8120   -9.2820 C.3   156  VAL156      0.0252
     33  CG1      -33.5080   38.1850   -9.2090 C.3   156  VAL156      0.0019
     34  CG2      -31.2040   39.0770   -9.4870 C.3   156  VAL156      0.0019
     35  N        -34.3140   36.4270   -4.1240 N.3   160  LEU160     -0.1245
     36  CA       -35.7670   36.7390   -4.2340 C.3   160  LEU160      0.1561
     37  C        -36.5740   35.4770   -4.5770 C.2   160  LEU160      0.2260
     38  O        -37.5350   35.2060   -3.8500 O.2   160  LEU160     -0.2867
     39  CB       -35.9550   37.8680   -5.2530 C.3   160  LEU160      0.0270
     40  CG       -35.3330   39.2120   -4.8520 C.3   160  LEU160      0.0019
     41  CD1      -35.3100   40.1820   -6.0140 C.3   160  LEU160      0.0001
     42  CD2      -36.0690   39.8460   -3.6830 C.3   160  LEU160      0.0001
     43  N        -40.5430   36.9280  -12.1100 N.3   187  LEU187     -0.1245
     44  CA       -39.1130   37.0270  -11.6930 C.3   187  LEU187      0.1561
     45  C        -38.4660   35.6350  -11.7410 C.2   187  LEU187      0.2260
     46  O        -37.2860   35.5530  -12.1290 O.2   187  LEU187     -0.2867
     47  CB       -39.0110   37.6450  -10.2920 C.3   187  LEU187      0.0270
     48  CG       -37.6270   38.1920   -9.9220 C.3   187  LEU187      0.0019
     49  CD1      -37.4550   39.6220  -10.4110 C.3   187  LEU187      0.0001
     50  CD2      -37.3680   38.1000   -8.4230 C.3   187  LEU187      0.0001
     51  N        -38.1570   34.7780  -15.5860 N.3   190  LEU190     -0.1231
     52  CA       -37.1110   35.7070  -16.1070 C.3   190  LEU190      0.1693
     53  C        -35.7250   35.1430  -15.7950 C.2   190  LEU190      0.2592
     54  O        -34.9420   34.9590  -16.7360 O.2   190  LEU190     -0.2718
     55  CB       -37.2260   37.0940  -15.4680 C.3   190  LEU190      0.0284
     56  CG       -36.1080   38.0800  -15.8490 C.3   190  LEU190      0.0019
     57  CD1      -36.4040   38.7320  -17.1880 C.3   190  LEU190      0.0001
     58  CD2      -35.8790   39.1390  -14.7800 C.3   190  LEU190      0.0001
     59  N        -35.4280   34.9390  -14.5130 N.am  191  CYS191     -0.1970
     60  CA       -34.0700   34.5800  -14.0210 C.3   191  CYS191      0.1712
     61  C        -33.6900   33.1490  -14.4240 C.2   191  CYS191      0.2296
     62  O        -32.5200   32.9610  -14.8190 O.2   191  CYS191     -0.2864
     63  CB       -33.9450   34.7980  -12.5220 C.3   191  CYS191      0.0983
     64  SG       -33.8620   36.5630  -12.1200 S.3   191  CYS191     -0.0798
     65  N        -22.0400   42.3820  -25.2160 N.3   226  LYS226     -0.1245
     66  CA       -23.0840   43.2380  -24.5640 C.3   226  LYS226      0.1561
     67  C        -24.4290   43.0360  -25.2670 C.2   226  LYS226      0.2260
     68  O        -25.4420   42.8590  -24.5530 O.2   226  LYS226     -0.2867
     69  CB       -22.7990   44.7540  -24.6010 C.3   226  LYS226      0.0271
     70  CG       -21.5430   45.2800  -23.9050 C.3   226  LYS226      0.0035
     71  CD       -21.4740   45.0640  -22.4100 C.3   226  LYS226      0.0206
     72  CE       -20.0580   44.9610  -21.8650 C.3   226  LYS226      0.1093
     73  NZ       -19.4150   46.2780  -21.6780 N.3   226  LYS226     -0.1314
     74  N        -25.8020   39.5200  -24.4660 N.3   229  ILE229     -0.1231
     75  CA       -26.2760   39.5440  -23.0470 C.3   229  ILE229      0.1692
     76  C        -27.6380   40.2490  -22.9960 C.2   229  ILE229      0.2592
     77  O        -28.6070   39.6260  -22.5110 O.2   229  ILE229     -0.2718
     78  CB       -25.2380   40.1830  -22.1040 C.3   229  ILE229      0.0266
     79  CG1      -23.9930   39.3000  -21.9650 C.3   229  ILE229      0.0019
     80  CG2      -25.8480   40.4550  -20.7390 C.3   229  ILE229      0.0020
     81  CD1      -22.7470   40.0170  -21.4640 C.3   229  ILE229      0.0001
     82  N        -27.7160   41.4720  -23.5190 N.am  230  CYS230     -0.1970
     83  CA       -28.9550   42.3030  -23.5370 C.3   230  CYS230      0.1712
     84  C        -30.0950   41.5560  -24.2430 C.2   230  CYS230      0.2296
     85  O        -31.2400   41.6100  -23.7010 O.2   230  CYS230     -0.2864
     86  CB       -28.7170   43.6700  -24.1690 C.3   230  CYS230      0.0983
     87  SG       -27.7900   44.7910  -23.0850 S.3   230  CYS230     -0.0798
     88  N        -31.5090   38.7730  -21.9160 N.3   233  TRP233     -0.1241
     89  CA       -32.3690   39.4080  -20.8790 C.3   233  TRP233      0.1605
     90  C        -33.6800   39.9110  -21.4980 C.2   233  TRP233      0.2264
     91  O        -34.7350   39.7190  -20.8530 O.2   233  TRP233     -0.2867
     92  CB       -31.6010   40.4980  -20.1210 C.3   233  TRP233      0.0550
     93  CG       -30.6250   39.9340  -19.1330 C.ar  233  TRP233      0.0003
     94  CD1      -29.2760   39.8230  -19.2880 C.ar  233  TRP233      0.0946
     95  CD2      -30.9250   39.3450  -17.8570 C.ar  233  TRP233      0.0152
     96  NE1      -28.7130   39.2440  -18.1850 N.ar  233  TRP233     -0.2442
     97  CE2      -29.7010   38.9300  -17.2940 C.ar  233  TRP233      0.0810
     98  CE3      -32.1010   39.1500  -17.1280 C.ar  233  TRP233      0.0012
     99  CZ2      -29.6190   38.3380  -16.0340 C.ar  233  TRP233      0.0191
    100  CZ3      -32.0220   38.5630  -15.8810 C.ar  233  TRP233      0.0001
    101  CH2      -30.7940   38.1640  -15.3420 C.ar  233  TRP233      0.0015
    102  N        -42.2900   38.3800  -17.9540 N.3   241  PHE241     -0.1241
    103  CA       -43.1020   39.5320  -17.4760 C.3   241  PHE241      0.1605
    104  C        -44.2580   39.7770  -18.4480 C.2   241  PHE241      0.2264
    105  O        -45.4170   39.6550  -18.0020 O.2   241  PHE241     -0.2867
    106  CB       -42.2340   40.7640  -17.2100 C.3   241  PHE241      0.0534
    107  CG       -41.5660   40.7200  -15.8560 C.ar  241  PHE241     -0.0203
    108  CD1      -42.1900   41.2560  -14.7380 C.ar  241  PHE241     -0.0042
    109  CD2      -40.3570   40.0680  -15.6720 C.ar  241  PHE241     -0.0042
    110  CE1      -41.6000   41.1860  -13.4840 C.ar  241  PHE241     -0.0003
    111  CE2      -39.7630   40.0060  -14.4180 C.ar  241  PHE241     -0.0003
    112  CZ       -40.3870   40.5580  -13.3270 C.ar  241  PHE241     -0.0000
@<TRIPOS>BOND
     1    67    66    1
     2    67    68    2
     3    65    66    1
     4    69    66    1
     5    69    70    1
     6    74    75    1
     7    84    85    2
     8    84    83    1
     9    86    83    1
    10    86    87    1
    11    70    71    1
    12    83    82    1
    13    82    76   am
    14    75    76    1
    15    75    78    1
    16    76    77    2
    17    71    72    1
    18    78    79    1
    19    78    80    1
    20     8     6    1
    21    79    81    1
    22    88    89    1
    23    72    73    1
    24    90    89    1
    25    90    91    2
    26    89    92    1
    27     6     5    1
    28     6     7    1
    29     5     2    1
    30    92    93    1
    31    94    93   ar
    32    94    96   ar
    33     2     3    1
    34     2     1    1
    35     3     4    2
    36    93    95   ar
    37    21    20    1
    38   104   105    2
    39   104   103    1
    40    20    17    1
    41    96    97   ar
    42   102   103    1
    43    95    97   ar
    44    95    98   ar
    45   103   106    1
    46    97    99   ar
    47   106   107    1
    48    57    56    1
    49    98   100   ar
    50    17    16    1
    51    17    18    1
    52    54    53    2
    53    16    11   am
    54    52    53    1
    55    52    51    1
    56    52    55    1
    57    99   101   ar
    58    18    19    2
    59   100   101   ar
    60   107   109   ar
    61   107   108   ar
    62    56    55    1
    63    56    58    1
    64     9    10    1
    65    53    59   am
    66   109   111   ar
    67    14    13    1
    68    13    10    1
    69    13    15    1
    70    11    10    1
    71    11    12    2
    72    62    61    2
    73   108   110   ar
    74    59    60    1
    75    61    60    1
    76   111   112   ar
    77    60    63    1
    78   110   112   ar
    79    27    26    1
    80    26    23    1
    81    63    64    1
    82    46    45    2
    83    43    44    1
    84    22    23    1
    85    45    44    1
    86    24    23    1
    87    24    25    2
    88    44    47    1
    89    49    48    1
    90    47    48    1
    91    48    50    1
    92    34    32    1
    93    32    33    1
    94    32    29    1
    95    28    29    1
    96    29    30    1
    97    30    31    2
    98    41    40    1
    99    39    40    1
   100    39    36    1
   101    40    42    1
   102    37    36    1
   103    37    38    2
   104    36    35    1
