@<TRIPOS>MOLECULE
tmp/6iblA02.pdb
 121 111 0 0 0
SMALL
GASTEIGER

@<TRIPOS>ATOM
      1  N        -30.3390   30.2890  -20.7650 N.3   197  GLU197     -0.1245
      2  CA       -29.9730   30.8770  -22.0840 C.3   197  GLU197      0.1567
      3  C        -28.5080   31.3310  -22.0460 C.2   197  GLU197      0.2260
      4  O        -27.8090   31.0830  -23.0380 O.2   197  GLU197     -0.2867
      5  CB       -30.9260   31.9890  -22.5170 C.3   197  GLU197      0.0388
      6  CG       -32.2290   31.4610  -23.1040 C.3   197  GLU197      0.1160
      7  CD       -33.1690   32.4840  -23.7210 C.2   197  GLU197      0.3649
      8  OE1      -32.8050   33.6750  -23.7980 O.co2 197  GLU197     -0.2457
      9  OE2      -34.2690   32.0840  -24.1250 O.co2 197  GLU197     -0.2457
     10  N        -26.1110   28.3770  -22.5230 N.3   200  CYS200     -0.1221
     11  CA       -26.0900   28.1690  -24.0010 C.3   200  CYS200      0.1808
     12  C        -25.1160   29.1560  -24.6760 C.2   200  CYS200      0.2601
     13  O        -24.3180   28.7180  -25.5020 O.2   200  CYS200     -0.2717
     14  CB       -27.5260   28.2230  -24.5300 C.3   200  CYS200      0.0970
     15  SG       -27.6920   28.6880  -26.2670 S.3   200  CYS200     -0.0800
     16  N        -25.1460   30.4380  -24.3140 N.am  201  VAL201     -0.1979
     17  CA       -24.2510   31.4810  -24.9030 C.3   201  VAL201      0.1595
     18  C        -22.7970   31.1920  -24.5020 C.2   201  VAL201      0.2287
     19  O        -21.9200   31.3340  -25.3860 O.2   201  VAL201     -0.2864
     20  CB       -24.7050   32.9020  -24.5210 C.3   201  VAL201      0.0276
     21  CG1      -23.6900   33.9780  -24.8910 C.3   201  VAL201      0.0022
     22  CG2      -26.0540   33.2040  -25.1620 C.3   201  VAL201      0.0022
     23  N        -21.3810   28.4350  -26.6800 N.3   204  ILE204     -0.1245
     24  CA       -21.0370   28.9950  -28.0210 C.3   204  ILE204      0.1561
     25  C        -19.7360   29.7940  -27.9090 C.2   204  ILE204      0.2260
     26  O        -18.8940   29.5860  -28.7650 O.2   204  ILE204     -0.2867
     27  CB       -22.1730   29.8430  -28.6220 C.3   204  ILE204      0.0252
     28  CG1      -23.4420   29.0100  -28.8570 C.3   204  ILE204      0.0019
     29  CG2      -21.7090   30.5220  -29.9130 C.3   204  ILE204      0.0019
     30  CD1      -24.6990   29.8200  -29.0900 C.3   204  ILE204      0.0001
     31  N        -16.4830   40.7370  -30.1210 N.3   221  THR221     -0.1218
     32  CA       -16.0140   42.0020  -29.4880 C.3   221  THR221      0.1862
     33  C        -16.7040   42.1660  -28.1230 C.2   221  THR221      0.2287
     34  O        -17.5790   41.3290  -27.8100 O.2   221  THR221     -0.2866
     35  CB       -16.2750   43.1570  -30.4620 C.3   221  THR221      0.1770
     36  OG1      -17.6770   43.2290  -30.7300 O.3   221  THR221     -0.2211
     37  CG2      -15.5470   42.9740  -31.7740 C.3   221  THR221      0.0375
     38  N        -18.5750   44.8850  -27.4790 N.3   223  ALA223     -0.1231
     39  CA       -19.8540   45.4310  -27.9960 C.3   223  ALA223      0.1694
     40  C        -20.7990   44.2900  -28.3820 C.2   223  ALA223      0.2591
     41  O        -21.9760   44.3530  -27.9930 O.2   223  ALA223     -0.2718
     42  CB       -19.6040   46.3520  -29.1690 C.3   223  ALA223      0.0304
     43  N        -20.3060   43.2760  -29.0950 N.am  224  ARG224     -0.1980
     44  CA       -21.1450   42.1380  -29.5500 C.3   224  ARG224      0.1597
     45  C        -21.5900   41.3070  -28.3420 C.2   224  ARG224      0.2287
     46  O        -22.7880   40.9730  -28.2850 O.2   224  ARG224     -0.2864
     47  CB       -20.4130   41.2920  -30.5860 C.3   224  ARG224      0.0334
     48  CG       -21.3000   40.2620  -31.2760 C.3   224  ARG224      0.0492
     49  CD       -20.6380   39.5410  -32.4370 C.3   224  ARG224      0.2205
     50  NE       -20.6300   40.2800  -33.7040 N.pl3 224  ARG224     -0.0865
     51  CZ       -19.7200   41.1810  -34.1180 C.cat 224  ARG224      0.5346
     52  NH1      -18.6680   41.5370  -33.3830 N.pl3 224  ARG224      0.1354
     53  NH2      -19.8620   41.7220  -35.3160 N.pl3 224  ARG224      0.1354
     54  N        -24.4440   43.0610  -26.6030 N.3   227  VAL227     -0.1231
     55  CA       -25.6970   42.9320  -27.4030 C.3   227  VAL227      0.1692
     56  C        -26.2930   41.5460  -27.1400 C.2   227  VAL227      0.2591
     57  O        -27.5160   41.4950  -26.8720 O.2   227  VAL227     -0.2718
     58  CB       -25.4710   43.2090  -28.9020 C.3   227  VAL227      0.0266
     59  CG1      -26.6910   42.8650  -29.7530 C.3   227  VAL227      0.0020
     60  CG2      -25.0760   44.6610  -29.1410 C.3   227  VAL227      0.0020
     61  N        -25.4620   40.4910  -27.1530 N.am  228  ILE228     -0.1980
     62  CA       -25.8900   39.0770  -26.8940 C.3   228  ILE228      0.1595
     63  C        -26.5100   39.0070  -25.4850 C.2   228  ILE228      0.2287
     64  O        -27.6570   38.4960  -25.3710 O.2   228  ILE228     -0.2864
     65  CB       -24.7390   38.0590  -27.0920 C.3   228  ILE228      0.0276
     66  CG1      -24.2620   38.0130  -28.5460 C.3   228  ILE228      0.0022
     67  CG2      -25.1460   36.6610  -26.6490 C.3   228  ILE228      0.0022
     68  CD1      -22.9480   37.2900  -28.7470 C.3   228  ILE228      0.0001
     69  N        -29.8000   40.8410  -25.3420 N.3   231  THR231     -0.1203
     70  CA       -30.7990   40.0250  -26.0930 C.3   231  THR231      0.1994
     71  C        -31.3670   38.9160  -25.2020 C.2   231  THR231      0.2617
     72  O        -32.6180   38.7500  -25.2030 O.2   231  THR231     -0.2717
     73  CB       -30.2320   39.3920  -27.3660 C.3   231  THR231      0.1784
     74  OG1      -29.6840   40.4400  -28.1590 O.3   231  THR231     -0.2211
     75  CG2      -31.2770   38.6420  -28.1590 C.3   231  THR231      0.0376
     76  N        -30.4980   38.1920  -24.4820 N.am  232  VAL232     -0.1979
     77  CA       -30.9040   37.0660  -23.5870 C.3   232  VAL232      0.1595
     78  C        -31.8210   37.6020  -22.4800 C.2   232  VAL232      0.2287
     79  O        -32.8290   36.9170  -22.1760 O.2   232  VAL232     -0.2864
     80  CB       -29.6940   36.3020  -23.0240 C.3   232  VAL232      0.0276
     81  CG1      -30.0690   35.3790  -21.8720 C.3   232  VAL232      0.0022
     82  CG2      -29.0030   35.5190  -24.1270 C.3   232  VAL232      0.0022
     83  N        -35.2420   38.6660  -24.2020 N.3   235  ILE235     -0.1245
     84  CA       -36.0420   37.4340  -24.4980 C.3   235  ILE235      0.1561
     85  C        -36.6470   36.9150  -23.1890 C.2   235  ILE235      0.2260
     86  O        -37.8590   36.6470  -23.1810 O.2   235  ILE235     -0.2867
     87  CB       -35.2000   36.3520  -25.2030 C.3   235  ILE235      0.0252
     88  CG1      -34.8050   36.7780  -26.6200 C.3   235  ILE235      0.0019
     89  CG2      -35.9330   35.0160  -25.2160 C.3   235  ILE235      0.0019
     90  CD1      -33.6410   35.9920  -27.2000 C.3   235  ILE235      0.0001
     91  N        -38.3180   27.9910  -25.1990 N.3   281  ILE281     -0.1245
     92  CA       -37.4500   29.2110  -25.1740 C.3   281  ILE281      0.1561
     93  C        -36.5310   29.1670  -23.9330 C.2   281  ILE281      0.2260
     94  O        -35.3310   29.5140  -24.0820 O.2   281  ILE281     -0.2867
     95  CB       -38.2810   30.5130  -25.2790 C.3   281  ILE281      0.0252
     96  CG1      -39.0740   30.5630  -26.5900 C.3   281  ILE281      0.0019
     97  CG2      -37.3870   31.7360  -25.1270 C.3   281  ILE281      0.0019
     98  CD1      -40.1400   31.6300  -26.6350 C.3   281  ILE281      0.0001
     99  N        -34.4960   24.7500  -26.5450 N.3   285  ILE285     -0.1231
    100  CA       -33.6180   25.4030  -27.5670 C.3   285  ILE285      0.1678
    101  C        -32.2180   25.5920  -26.9760 C.2   285  ILE285      0.2434
    102  O        -31.2410   25.2060  -27.6180 O.2   285  ILE285     -0.2733
    103  CB       -34.2410   26.6850  -28.1550 C.3   285  ILE285      0.0265
    104  CG1      -35.3080   26.3140  -29.1880 C.3   285  ILE285      0.0019
    105  CG2      -33.1780   27.6080  -28.7450 C.3   285  ILE285      0.0020
    106  CD1      -36.1780   27.4610  -29.6380 C.3   285  ILE285      0.0001
    107  N        -32.0520   26.1820  -25.7680 N.am  286  PRO286     -0.2729
    108  CA       -30.7420   26.2020  -25.1050 C.3   286  PRO286      0.1401
    109  C        -30.0640   24.8280  -24.9850 C.2   286  PRO286      0.2269
    110  O        -28.8770   24.7530  -25.3000 O.2   286  PRO286     -0.2865
    111  CB       -31.0530   26.7860  -23.7200 C.3   286  PRO286      0.0296
    112  CG       -32.2270   27.7040  -23.9910 C.3   286  PRO286      0.0237
    113  CD       -33.0500   26.9950  -25.0500 C.3   286  PRO286      0.0939
    114  N        -28.8640   23.5850  -28.5110 N.3   289  ILE289     -0.1245
    115  CA       -27.6590   24.3920  -28.8700 C.3   289  ILE289      0.1561
    116  C        -26.4590   23.8350  -28.0820 C.2   289  ILE289      0.2260
    117  O        -25.4410   23.5400  -28.7130 O.2   289  ILE289     -0.2867
    118  CB       -27.8510   25.9080  -28.6300 C.3   289  ILE289      0.0252
    119  CG1      -28.8950   26.5090  -29.5740 C.3   289  ILE289      0.0019
    120  CG2      -26.5170   26.6560  -28.7410 C.3   289  ILE289      0.0019
    121  CD1      -29.3870   27.8950  -29.1720 C.3   289  ILE289      0.0001
@<TRIPOS>BOND
     1    53    51    1
     2    51    50    2
     3    51    52    1
     4    50    49    1
     5    49    48    1
     6    37    35    1
     7    48    47    1
     8    36    35    1
     9    47    44    1
    10    35    32    1
    11    31    32    1
    12    29    27    1
    13    59    58    1
    14   106   104    1
    15   119   121    1
    16   119   118    1
    17    44    43    1
    18    44    45    1
    19    32    33    1
    20   104   103    1
    21    42    39    1
    22    60    58    1
    23    43    40   am
    24    30    28    1
    25    58    55    1
    26   115   118    1
    27   115   114    1
    28   115   116    1
    29    28    27    1
    30    26    25    2
    31    68    66    1
    32   105   103    1
    33   120   118    1
    34   117   116    2
    35    27    24    1
    36    66    65    1
    37    40    39    1
    38    40    41    2
    39    45    46    2
    40    74    73    1
    41    75    73    1
    42   103   100    1
    43    33    34    2
    44    24    25    1
    45    24    23    1
    46    39    38    1
    47   102   101    2
    48   100   101    1
    49   100    99    1
    50    55    56    1
    51    55    54    1
    52    73    70    1
    53    90    88    1
    54    61    56   am
    55    61    62    1
    56    56    57    2
    57    65    62    1
    58    65    67    1
    59   101   107   am
    60    62    63    1
    61    98    96    1
    62    88    87    1
    63    96    95    1
    64    15    14    1
    65    70    69    1
    66    70    71    1
    67   107   108    1
    68   107   113    1
    69    13    12    2
    70    63    64    2
    71    19    18    2
    72   110   109    2
    73    95    92    1
    74    95    97    1
    75    89    87    1
    76    72    71    2
    77    87    84    1
    78    71    76   am
    79    91    92    1
    80    92    93    1
    81    22    20    1
    82   108   109    1
    83   108   111    1
    84   113   112    1
    85    17    20    1
    86    17    18    1
    87    17    16    1
    88    21    20    1
    89    12    16   am
    90    12    11    1
    91    14    11    1
    92    84    83    1
    93    84    85    1
    94    76    77    1
    95    82    80    1
    96     9     7   ar
    97    94    93    2
    98    11    10    1
    99   112   111    1
   100     8     7   ar
   101     7     6    1
   102    77    80    1
   103    77    78    1
   104    85    86    2
   105     6     5    1
   106     4     3    2
   107    80    81    1
   108     5     2    1
   109    78    79    2
   110     2     3    1
   111     2     1    1
