@<TRIPOS>MOLECULE
tmp/6ibwA03.pdb
 111 108 0 0 0
SMALL
GASTEIGER

@<TRIPOS>ATOM
      1  N        -26.0630    2.1020  -23.6790 N.3   100  GLU100     -0.1245
      2  CA       -27.4270    1.6030  -23.3890 C.3   100  GLU100      0.1567
      3  C        -27.8980    0.7490  -24.5480 C.2   100  GLU100      0.2260
      4  O        -27.6810    1.1390  -25.6600 O.2   100  GLU100     -0.2867
      5  CB       -28.3600    2.7380  -22.9890 C.3   100  GLU100      0.0388
      6  CG       -28.3800    2.8950  -21.4830 C.3   100  GLU100      0.1160
      7  CD       -29.0100    4.1580  -20.9410 C.2   100  GLU100      0.3649
      8  OE1      -29.2070    5.1180  -21.7530 O.co2 100  GLU100     -0.2457
      9  OE2      -29.3490    4.1560  -19.7000 O.co2 100  GLU100     -0.2457
     10  N        -26.7880    2.3140  -27.9530 N.3   110  GLN110     -0.1245
     11  CA       -26.5780    3.7580  -27.7750 C.3   110  GLN110      0.1566
     12  C        -25.3330    4.0250  -26.9300 C.2   110  GLN110      0.2260
     13  O        -25.0040    3.2260  -26.0350 O.2   110  GLN110     -0.2867
     14  CB       -27.8070    4.3620  -27.1430 C.3   110  GLN110      0.0367
     15  CG       -28.3940    5.4540  -28.0040 C.3   110  GLN110      0.0905
     16  CD       -29.4560    6.1440  -27.1950 C.2   110  GLN110      0.2608
     17  OE1      -30.6330    5.7840  -27.2780 O.2   110  GLN110     -0.2717
     18  NE2      -29.0240    7.0780  -26.3520 N.am  110  GLN110     -0.0878
     19  N        -23.6600    7.4610  -24.7910 N.3   112  ASN112     -0.1240
     20  CA       -24.1920    8.7340  -24.2560 C.3   112  ASN112      0.1653
     21  C        -23.2220    9.2300  -23.2030 C.2   112  ASN112      0.2266
     22  O        -22.4940    8.3990  -22.6690 O.2   112  ASN112     -0.2867
     23  CB       -25.6190    8.5510  -23.7350 C.3   112  ASN112      0.1155
     24  CG       -26.2940    9.8540  -23.3630 C.2   112  ASN112      0.2627
     25  OD1      -26.3410   10.8030  -24.1430 O.2   112  ASN112     -0.2716
     26  ND2      -26.8790    9.8860  -22.1760 N.am  112  ASN112     -0.0877
     27  N        -22.8050   12.7970  -20.1030 N.3   114  PHE114     -0.1241
     28  CA       -23.0820   14.1890  -19.6610 C.3   114  PHE114      0.1605
     29  C        -21.9740   14.6250  -18.7080 C.2   114  PHE114      0.2264
     30  O        -21.2020   13.7890  -18.2500 O.2   114  PHE114     -0.2867
     31  CB       -24.5210   14.3590  -19.1630 C.3   114  PHE114      0.0534
     32  CG       -25.1000   13.2280  -18.3540 C.ar  114  PHE114     -0.0203
     33  CD1      -24.6970   13.0460  -17.0320 C.ar  114  PHE114     -0.0042
     34  CD2      -26.0910   12.3950  -18.8720 C.ar  114  PHE114     -0.0042
     35  CE1      -25.2510   12.0390  -16.2470 C.ar  114  PHE114     -0.0003
     36  CE2      -26.6280   11.3790  -18.0970 C.ar  114  PHE114     -0.0003
     37  CZ       -26.2080   11.2010  -16.7870 C.ar  114  PHE114     -0.0000
     38  N        -30.9430   16.4800  -25.0150 N.3   122  TYR122     -0.1241
     39  CA       -30.4680   15.0740  -25.0910 C.3   122  TYR122      0.1605
     40  C        -29.6880   14.8850  -26.3950 C.2   122  TYR122      0.2264
     41  O        -29.9880   13.9360  -27.1570 O.2   122  TYR122     -0.2867
     42  CB       -31.6480   14.1410  -24.8310 C.3   122  TYR122      0.0534
     43  CG       -32.1230   14.2210  -23.4060 C.ar  122  TYR122     -0.0201
     44  CD1      -31.5350   13.4500  -22.4160 C.ar  122  TYR122     -0.0009
     45  CD2      -33.1290   15.0980  -23.0330 C.ar  122  TYR122     -0.0009
     46  CE1      -31.9600   13.5100  -21.0990 C.ar  122  TYR122      0.0417
     47  CE2      -33.5630   15.1770  -21.7170 C.ar  122  TYR122      0.0417
     48  CZ       -32.9690   14.3910  -20.7440 C.ar  122  TYR122      0.1957
     49  OH       -33.3990   14.4760  -19.4530 O.3   122  TYR122     -0.2866
     50  N        -26.2680   14.5690  -26.4620 N.3   124  ARG124     -0.1231
     51  CA       -25.0140   13.8530  -26.1410 C.3   124  ARG124      0.1694
     52  C        -25.1550   12.3630  -26.4690 C.2   124  ARG124      0.2592
     53  O        -24.3880   11.5690  -25.8960 O.2   124  ARG124     -0.2718
     54  CB       -24.6820   14.0340  -24.6620 C.3   124  ARG124      0.0321
     55  CG       -24.4130   15.4670  -24.2240 C.3   124  ARG124      0.0489
     56  CD       -25.4170   16.0580  -23.2620 C.3   124  ARG124      0.2205
     57  NE       -26.1080   15.0260  -22.5090 N.pl3 124  ARG124     -0.0865
     58  CZ       -27.4230   14.9790  -22.3020 C.cat 124  ARG124      0.5346
     59  NH1      -28.2120   15.9240  -22.7790 N.pl3 124  ARG124      0.1354
     60  NH2      -27.9620   13.9950  -21.5940 N.pl3 124  ARG124      0.1354
     61  N        -26.0850   11.9730  -27.3450 N.am  125  GLY125     -0.1957
     62  CA       -26.3690   10.5550  -27.6420 C.3   125  GLY125      0.1869
     63  C        -25.9570   10.1820  -29.0540 C.2   125  GLY125      0.2309
     64  O        -26.0250   11.0440  -29.9380 O.2   125  GLY125     -0.2863
     65  N        -26.2070    6.6270  -31.8560 N.3   127  TYR127     -0.1241
     66  CA       -26.6040    5.2320  -32.1120 C.3   127  TYR127      0.1605
     67  C        -25.5290    4.6320  -33.0080 C.2   127  TYR127      0.2264
     68  O        -25.1370    5.2850  -33.9820 O.2   127  TYR127     -0.2867
     69  CB       -27.9820    5.2030  -32.7560 C.3   127  TYR127      0.0534
     70  CG       -29.1160    5.5310  -31.8230 C.ar  127  TYR127     -0.0201
     71  CD1      -29.6810    4.5510  -31.0330 C.ar  127  TYR127     -0.0009
     72  CD2      -29.6570    6.8050  -31.7710 C.ar  127  TYR127     -0.0009
     73  CE1      -30.7460    4.8280  -30.1970 C.ar  127  TYR127      0.0417
     74  CE2      -30.7090    7.1060  -30.9270 C.ar  127  TYR127      0.0417
     75  CZ       -31.2620    6.1110  -30.1480 C.ar  127  TYR127      0.1957
     76  OH       -32.2870    6.4200  -29.3020 O.3   127  TYR127     -0.2866
     77  N        -33.0060   -2.2600  -16.5430 N.3   184  TRP184     -0.1241
     78  CA       -34.2520   -1.6930  -15.9910 C.3   184  TRP184      0.1605
     79  C        -35.2500   -1.5890  -17.1250 C.2   184  TRP184      0.2264
     80  O        -34.8660   -1.7330  -18.2800 O.2   184  TRP184     -0.2867
     81  CB       -33.9830   -0.3450  -15.3350 C.3   184  TRP184      0.0550
     82  CG       -33.2640    0.6210  -16.2180 C.ar  184  TRP184      0.0003
     83  CD1      -31.9780    0.5380  -16.6550 C.ar  184  TRP184      0.0946
     84  CD2      -33.7860    1.8460  -16.7360 C.ar  184  TRP184      0.0152
     85  NE1      -31.6710    1.6170  -17.4290 N.ar  184  TRP184     -0.2442
     86  CE2      -32.7630    2.4400  -17.5010 C.ar  184  TRP184      0.0810
     87  CE3      -35.0160    2.4910  -16.6350 C.ar  184  TRP184      0.0012
     88  CZ2      -32.9320    3.6560  -18.1640 C.ar  184  TRP184      0.0191
     89  CZ3      -35.1850    3.6920  -17.2930 C.ar  184  TRP184      0.0001
     90  CH2      -34.1550    4.2680  -18.0390 C.ar  184  TRP184      0.0015
     91  N        -39.6170    8.6930  -21.9210 N.3   195  THR195     -0.1218
     92  CA       -38.6960    7.5940  -21.5530 C.3   195  THR195      0.1862
     93  C        -39.1850    6.3010  -22.2040 C.2   195  THR195      0.2287
     94  O        -38.3570    5.5730  -22.7640 O.2   195  THR195     -0.2866
     95  CB       -38.5950    7.4420  -20.0350 C.3   195  THR195      0.1770
     96  OG1      -38.3260    8.7540  -19.5420 O.3   195  THR195     -0.2211
     97  CG2      -37.5410    6.4380  -19.6170 C.3   195  THR195      0.0375
     98  N        -38.4840    6.4580  -25.8610 N.3   198  TRP198     -0.1241
     99  CA       -37.0250    6.3420  -26.1010 C.3   198  TRP198      0.1605
    100  C        -36.6230    4.8690  -26.0300 C.2   198  TRP198      0.2264
    101  O        -35.8780    4.4260  -26.9140 O.2   198  TRP198     -0.2867
    102  CB       -36.2390    7.1970  -25.1010 C.3   198  TRP198      0.0550
    103  CG       -34.8300    6.7240  -24.9990 C.ar  198  TRP198      0.0003
    104  CD1      -33.8440    6.9310  -25.9130 C.ar  198  TRP198      0.0946
    105  CD2      -34.2810    5.8650  -23.9870 C.ar  198  TRP198      0.0152
    106  NE1      -32.7100    6.2820  -25.5200 N.ar  198  TRP198     -0.2442
    107  CE2      -32.9440    5.6140  -24.3460 C.ar  198  TRP198      0.0810
    108  CE3      -34.7820    5.2850  -22.8200 C.ar  198  TRP198      0.0012
    109  CZ2      -32.1010    4.8160  -23.5770 C.ar  198  TRP198      0.0191
    110  CZ3      -33.9480    4.5060  -22.0510 C.ar  198  TRP198      0.0001
    111  CH2      -32.6290    4.2770  -22.4280 C.ar  198  TRP198      0.0015
@<TRIPOS>BOND
     1    68    67    2
     2    67    66    1
     3    69    66    1
     4    69    70    1
     5    66    65    1
     6    70    72   ar
     7    70    71   ar
     8    72    74   ar
     9    71    73   ar
    10    74    75   ar
    11    73    75   ar
    12    75    76    1
    13    64    63    2
    14    63    62    1
    15    15    16    1
    16    15    14    1
    17    10    11    1
    18    11    14    1
    19    11    12    1
    20    62    61    1
    21    61    52   am
    22    17    16    2
    23    16    18   am
    24    41    40    2
    25    12    13    2
    26   101   100    2
    27    52    51    1
    28    52    53    2
    29    50    51    1
    30    40    39    1
    31    51    54    1
    32    99   100    1
    33    99    98    1
    34    99   102    1
    35   104   106   ar
    36   104   103   ar
    37     4     3    2
    38   106   107   ar
    39   102   103    1
    40    39    38    1
    41    39    42    1
    42   103   105   ar
    43    42    43    1
    44    19    20    1
    45    54    55    1
    46     3     2    1
    47   107   105   ar
    48   107   109   ar
    49    20    23    1
    50    20    21    1
    51    55    56    1
    52    25    24    2
    53   105   108   ar
    54    23    24    1
    55     1     2    1
    56   109   111   ar
    57    43    45   ar
    58    43    44   ar
    59     2     5    1
    60    24    26   am
    61    56    57    1
    62    21    22    2
    63    45    47   ar
    64     5     6    1
    65   108   110   ar
    66    59    58    1
    67    94    93    2
    68    57    58    2
    69   111   110   ar
    70    44    46   ar
    71    58    60    1
    72    93    92    1
    73    91    92    1
    74     8     7   ar
    75    47    48   ar
    76    92    95    1
    77     6     7    1
    78    46    48   ar
    79     7     9   ar
    80    48    49    1
    81    27    28    1
    82    95    97    1
    83    95    96    1
    84    28    31    1
    85    28    29    1
    86    31    32    1
    87    34    32   ar
    88    34    36   ar
    89    29    30    2
    90    32    33   ar
    91    80    79    2
    92    88    90   ar
    93    88    86   ar
    94    36    37   ar
    95    90    89   ar
    96    86    85   ar
    97    86    84   ar
    98    85    83   ar
    99    89    87   ar
   100    79    78    1
   101    33    35   ar
   102    37    35   ar
   103    84    87   ar
   104    84    82   ar
   105    83    82   ar
   106    77    78    1
   107    82    81    1
   108    78    81    1
