@<TRIPOS>MOLECULE
tmp/6ibwA01.pdb
 77 73 0 0 0
SMALL
GASTEIGER

@<TRIPOS>ATOM
      1  N        -35.0340   -3.4020  -11.1450 N.3    57  ALA57      -0.1245
      2  CA       -33.9280   -2.5810  -11.6840 C.3    57  ALA57       0.1562
      3  C        -32.6290   -3.0560  -11.0470 C.2    57  ALA57       0.2260
      4  O        -31.9460   -2.2920  -10.3740 O.2    57  ALA57      -0.2867
      5  CB       -34.1970   -1.1230  -11.4270 C.3    57  ALA57       0.0290
      6  N        -29.0330   -3.6620  -10.1650 N.3    59  THR59      -0.1218
      7  CA       -27.8210   -2.8630  -10.4710 C.3    59  THR59       0.1862
      8  C        -26.6600   -3.2860   -9.5750 C.2    59  THR59       0.2287
      9  O        -26.9270   -3.6250   -8.4110 O.2    59  THR59      -0.2866
     10  CB       -28.0760   -1.3740  -10.2300 C.3    59  THR59       0.1770
     11  OG1      -29.4160   -1.0660  -10.5940 O.3    59  THR59      -0.2211
     12  CG2      -27.1400   -0.4870  -11.0130 C.3    59  THR59       0.0375
     13  N        -27.6260   -1.4510  -19.2650 N.3    86  SER86      -0.1217
     14  CA       -26.7920   -0.2480  -19.0870 C.3    86  SER86       0.1889
     15  C        -25.3980   -0.5910  -18.5500 C.2    86  SER86       0.2288
     16  O        -25.3130   -1.3810  -17.6070 O.2    86  SER86      -0.2866
     17  CB       -27.5420    0.6840  -18.2170 C.3    86  SER86       0.2089
     18  OG       -26.8860    1.9240  -18.2270 O.3    86  SER86      -0.2183
     19  N        -22.6040    1.8070  -17.0230 N.3    88  VAL88      -0.1245
     20  CA       -22.5670    3.2560  -16.6560 C.3    88  VAL88       0.1561
     21  C        -21.2840    3.5940  -15.9010 C.2    88  VAL88       0.2260
     22  O        -20.9390    2.9100  -14.9360 O.2    88  VAL88      -0.2867
     23  CB       -23.7880    3.6860  -15.8370 C.3    88  VAL88       0.0252
     24  CG1      -23.8110    5.1910  -15.6750 C.3    88  VAL88       0.0019
     25  CG2      -25.0710    3.1980  -16.4710 C.3    88  VAL88       0.0019
     26  N        -26.0630    2.1020  -23.6790 N.3   100  GLU100     -0.1245
     27  CA       -27.4270    1.6030  -23.3890 C.3   100  GLU100      0.1567
     28  C        -27.8980    0.7490  -24.5480 C.2   100  GLU100      0.2260
     29  O        -27.6810    1.1390  -25.6600 O.2   100  GLU100     -0.2867
     30  CB       -28.3600    2.7380  -22.9890 C.3   100  GLU100      0.0388
     31  CG       -28.3800    2.8950  -21.4830 C.3   100  GLU100      0.1160
     32  CD       -29.0100    4.1580  -20.9410 C.2   100  GLU100      0.3649
     33  OE1      -29.2070    5.1180  -21.7530 O.co2 100  GLU100     -0.2457
     34  OE2      -29.3490    4.1560  -19.7000 O.co2 100  GLU100     -0.2457
     35  N        -21.1200    1.0830  -12.8170 N.3   180  ARG180     -0.1231
     36  CA       -22.4490    0.5170  -12.4860 C.3   180  ARG180      0.1694
     37  C        -22.8890   -0.3590  -13.6450 C.2   180  ARG180      0.2592
     38  O        -22.8010    0.0950  -14.8070 O.2   180  ARG180     -0.2718
     39  CB       -23.5010    1.6100  -12.3610 C.3   180  ARG180      0.0321
     40  CG       -23.8030    2.0580  -10.9450 C.3   180  ARG180      0.0489
     41  CD       -25.2460    2.5460  -10.8290 C.3   180  ARG180      0.2205
     42  NE       -25.5080    3.6400  -11.7470 N.pl3 180  ARG180     -0.0865
     43  CZ       -25.1110    4.8950  -11.5600 C.cat 180  ARG180      0.5346
     44  NH1      -24.4250    5.2200  -10.4730 N.pl3 180  ARG180      0.1354
     45  NH2      -25.4000    5.8100  -12.4710 N.pl3 180  ARG180      0.1354
     46  N        -23.3620   -1.5630  -13.3610 N.am  181  LEU181     -0.1966
     47  CA       -23.9720   -2.4140  -14.4050 C.3   181  LEU181      0.1728
     48  C        -25.4130   -2.6750  -13.9810 C.2   181  LEU181      0.2617
     49  O        -25.6250   -2.9400  -12.7930 O.2   181  LEU181     -0.2715
     50  CB       -23.1620   -3.7030  -14.5260 C.3   181  LEU181      0.0311
     51  CG       -21.7170   -3.5350  -14.9810 C.3   181  LEU181      0.0022
     52  CD1      -20.9610   -4.8380  -14.7810 C.3   181  LEU181      0.0001
     53  CD2      -21.6460   -3.0650  -16.4310 C.3   181  LEU181      0.0001
     54  N        -26.3770   -2.5980  -14.8930 N.am  182  GLY182     -0.1940
     55  CA       -27.7690   -2.9020  -14.5190 C.3   182  GLY182      0.2014
     56  C        -28.7070   -3.0080  -15.6970 C.2   182  GLY182      0.2640
     57  O        -28.3610   -2.5900  -16.8060 O.2   182  GLY182     -0.2714
     58  N        -29.8820   -3.5610  -15.4530 N.am  183  SER183     -0.1935
     59  CA       -30.9800   -3.5860  -16.4350 C.3   183  SER183      0.2055
     60  C        -32.1840   -2.9350  -15.7720 C.2   183  SER183      0.2643
     61  O        -32.3330   -3.0310  -14.5510 O.2   183  SER183     -0.2714
     62  CB       -31.2500   -4.9870  -16.8790 C.3   183  SER183      0.2130
     63  OG       -31.5650   -5.8220  -15.7650 O.3   183  SER183     -0.2179
     64  N        -33.0060   -2.2600  -16.5430 N.am  184  TRP184     -0.1973
     65  CA       -34.2520   -1.6930  -15.9910 C.3   184  TRP184      0.1640
     66  C        -35.2500   -1.5890  -17.1250 C.2   184  TRP184      0.2290
     67  O        -34.8660   -1.7330  -18.2800 O.2   184  TRP184     -0.2864
     68  CB       -33.9830   -0.3450  -15.3350 C.3   184  TRP184      0.0576
     69  CG       -33.2640    0.6210  -16.2180 C.ar  184  TRP184      0.0006
     70  CD1      -31.9780    0.5380  -16.6550 C.ar  184  TRP184      0.0946
     71  CD2      -33.7860    1.8460  -16.7360 C.ar  184  TRP184      0.0152
     72  NE1      -31.6710    1.6170  -17.4290 N.ar  184  TRP184     -0.2442
     73  CE2      -32.7630    2.4400  -17.5010 C.ar  184  TRP184      0.0810
     74  CE3      -35.0160    2.4910  -16.6350 C.ar  184  TRP184      0.0012
     75  CZ2      -32.9320    3.6560  -18.1640 C.ar  184  TRP184      0.0191
     76  CZ3      -35.1850    3.6920  -17.2930 C.ar  184  TRP184      0.0001
     77  CH2      -34.1550    4.2680  -18.0390 C.ar  184  TRP184      0.0015
@<TRIPOS>BOND
     1    29    28    2
     2    28    27    1
     3    26    27    1
     4    27    30    1
     5    30    31    1
     6    33    32   ar
     7    31    32    1
     8    32    34   ar
     9    13    14    1
    10    14    15    1
    11    14    17    1
    12    15    16    2
    13    67    66    2
    14    18    17    1
    15    75    77   ar
    16    75    73   ar
    17    77    76   ar
    18    73    72   ar
    19    73    71   ar
    20    72    70   ar
    21    76    74   ar
    22    66    65    1
    23    19    20    1
    24    62    59    1
    25    62    63    1
    26    57    56    2
    27    71    74   ar
    28    71    69   ar
    29    20    21    1
    30    20    23    1
    31    70    69   ar
    32    64    65    1
    33    64    60   am
    34    25    23    1
    35    59    60    1
    36    59    58    1
    37    53    51    1
    38    69    68    1
    39    65    68    1
    40    21    22    2
    41    23    24    1
    42    60    61    2
    43    56    58   am
    44    56    55    1
    45    51    52    1
    46    51    50    1
    47    54    55    1
    48    54    48   am
    49    38    37    2
    50    50    47    1
    51    47    48    1
    52    47    46    1
    53    48    49    2
    54    37    46   am
    55    37    36    1
    56    35    36    1
    57    36    39    1
    58    45    43    1
    59    39    40    1
    60    42    43    2
    61    42    41    1
    62     2     5    1
    63     2     1    1
    64     2     3    1
    65    43    44    1
    66     3     4    2
    67    12    10    1
    68    40    41    1
    69    11    10    1
    70     7    10    1
    71     7     6    1
    72     7     8    1
    73     8     9    2
