@<TRIPOS>MOLECULE
tmp/6ibwA00.pdb
 77 73 0 0 0
SMALL
GASTEIGER

@<TRIPOS>ATOM
      1  N        -26.8540   -2.6260   -5.3180 N.3    36  THR36      -0.1203
      2  CA       -27.5770   -1.3920   -4.9150 C.3    36  THR36       0.1994
      3  C        -29.0930   -1.6030   -5.0060 C.2    36  THR36       0.2617
      4  O        -29.8120   -0.9570   -4.2410 O.2    36  THR36      -0.2717
      5  CB       -27.0600   -0.2040   -5.7300 C.3    36  THR36       0.1784
      6  OG1      -27.1500   -0.5440   -7.1140 O.3    36  THR36      -0.2211
      7  CG2      -25.6350    0.1330   -5.3620 C.3    36  THR36       0.0376
      8  N        -29.5580   -2.4760   -5.8960 N.am   37  ALA37      -0.1979
      9  CA       -30.9910   -2.8130   -6.0450 C.3    37  ALA37       0.1597
     10  C        -31.1260   -4.2660   -6.4950 C.2    37  ALA37       0.2287
     11  O        -30.1790   -4.7910   -7.1050 O.2    37  ALA37      -0.2864
     12  CB       -31.6330   -1.8760   -7.0240 C.3    37  ALA37       0.0319
     13  N        -40.7460   -2.6640  -11.4200 N.3    55  GLY55      -0.1210
     14  CA       -39.8580   -2.1250  -10.3770 C.3    55  GLY55       0.1956
     15  C        -38.5300   -2.8540  -10.3050 C.2    55  GLY55       0.2612
     16  O        -37.6820   -2.3840   -9.5420 O.2    55  GLY55      -0.2717
     17  N        -38.3520   -3.9400  -11.0620 N.am   56  ASP56      -0.1959
     18  CA       -37.0850   -4.7120  -11.1210 C.3    56  ASP56       0.1840
     19  C        -36.0410   -3.8850  -11.8670 C.2    56  ASP56       0.2621
     20  O        -36.1690   -3.7150  -13.0910 O.2    56  ASP56      -0.2715
     21  CB       -37.2470   -6.0680  -11.8090 C.3    56  ASP56       0.1450
     22  CG       -37.6990   -7.1670  -10.8720 C.2    56  ASP56       0.3671
     23  OD1      -38.0660   -6.8430   -9.7350 O.co2  56  ASP56      -0.2456
     24  OD2      -37.6690   -8.3360  -11.2810 O.co2  56  ASP56      -0.2456
     25  N        -35.0340   -3.4020  -11.1450 N.am   57  ALA57      -0.1977
     26  CA       -33.9280   -2.5810  -11.6840 C.3    57  ALA57       0.1597
     27  C        -32.6290   -3.0560  -11.0470 C.2    57  ALA57       0.2287
     28  O        -31.9460   -2.2920  -10.3740 O.2    57  ALA57      -0.2864
     29  CB       -34.1970   -1.1230  -11.4270 C.3    57  ALA57       0.0319
     30  N        -29.0330   -3.6620  -10.1650 N.3    59  THR59      -0.1218
     31  CA       -27.8210   -2.8630  -10.4710 C.3    59  THR59       0.1862
     32  C        -26.6600   -3.2860   -9.5750 C.2    59  THR59       0.2287
     33  O        -26.9270   -3.6250   -8.4110 O.2    59  THR59      -0.2866
     34  CB       -28.0760   -1.3740  -10.2300 C.3    59  THR59       0.1770
     35  OG1      -29.4160   -1.0660  -10.5940 O.3    59  THR59      -0.2211
     36  CG2      -27.1400   -0.4870  -11.0130 C.3    59  THR59       0.0375
     37  N        -33.0060   -2.2600  -16.5430 N.3   184  TRP184     -0.1227
     38  CA       -34.2520   -1.6930  -15.9910 C.3   184  TRP184      0.1737
     39  C        -35.2500   -1.5890  -17.1250 C.2   184  TRP184      0.2595
     40  O        -34.8660   -1.7330  -18.2800 O.2   184  TRP184     -0.2718
     41  CB       -33.9830   -0.3450  -15.3350 C.3   184  TRP184      0.0564
     42  CG       -33.2640    0.6210  -16.2180 C.ar  184  TRP184      0.0003
     43  CD1      -31.9780    0.5380  -16.6550 C.ar  184  TRP184      0.0946
     44  CD2      -33.7860    1.8460  -16.7360 C.ar  184  TRP184      0.0152
     45  NE1      -31.6710    1.6170  -17.4290 N.ar  184  TRP184     -0.2442
     46  CE2      -32.7630    2.4400  -17.5010 C.ar  184  TRP184      0.0810
     47  CE3      -35.0160    2.4910  -16.6350 C.ar  184  TRP184      0.0012
     48  CZ2      -32.9320    3.6560  -18.1640 C.ar  184  TRP184      0.0191
     49  CZ3      -35.1850    3.6920  -17.2930 C.ar  184  TRP184      0.0001
     50  CH2      -34.1550    4.2680  -18.0390 C.ar  184  TRP184      0.0015
     51  N        -36.5080   -1.3800  -16.8100 N.am  185  ALA185     -0.1980
     52  CA       -37.5080   -1.2510  -17.8760 C.3   185  ALA185      0.1597
     53  C        -37.7660    0.2440  -18.0710 C.2   185  ALA185      0.2287
     54  O        -38.3810    0.8500  -17.1990 O.2   185  ALA185     -0.2864
     55  CB       -38.7160   -2.0650  -17.5120 C.3   185  ALA185      0.0319
     56  N        -41.3290    0.8450  -18.4930 N.3   188  ASP188     -0.1239
     57  CA       -42.1780    0.7350  -17.2840 C.3   188  ASP188      0.1674
     58  C        -43.3800    1.6310  -17.5410 C.2   188  ASP188      0.2266
     59  O        -43.1960    2.7790  -17.9280 O.2   188  ASP188     -0.2867
     60  CB       -41.4230    1.1640  -16.0220 C.3   188  ASP188      0.1410
     61  CG       -42.1930    1.0030  -14.7130 C.2   188  ASP188      0.3668
     62  OD1      -43.3880    1.3160  -14.6830 O.co2 188  ASP188     -0.2456
     63  OD2      -41.5850    0.5400  -13.7300 O.co2 188  ASP188     -0.2456
     64  N        -45.1370    3.3620  -15.7940 N.3   190  SER190     -0.1202
     65  CA       -45.2240    4.4870  -14.8350 C.3   190  SER190      0.2020
     66  C        -44.1580    5.5340  -15.1450 C.2   190  SER190      0.2618
     67  O        -44.1640    6.5660  -14.4410 O.2   190  SER190     -0.2717
     68  CB       -45.1110    3.9990  -13.4100 C.3   190  SER190      0.2103
     69  OG       -43.7790    4.1420  -12.9210 O.3   190  SER190     -0.2182
     70  N        -43.2930    5.3030  -16.1350 N.am  191  ASN191     -0.1974
     71  CA       -42.2630    6.2990  -16.5210 C.3   191  ASN191      0.1688
     72  C        -42.9270    7.3920  -17.3460 C.2   191  ASN191      0.2292
     73  O        -44.0550    7.2290  -17.7960 O.2   191  ASN191     -0.2864
     74  CB       -41.1580    5.7260  -17.3980 C.3   191  ASN191      0.1181
     75  CG       -40.3110    4.6640  -16.7500 C.2   191  ASN191      0.2629
     76  OD1      -40.2040    4.5820  -15.5320 O.2   191  ASN191     -0.2716
     77  ND2      -39.7230    3.8300  -17.5810 N.am  191  ASN191     -0.0877
@<TRIPOS>BOND
     1    56    57    1
     2    40    39    2
     3    48    50   ar
     4    48    46   ar
     5    53    52    1
     6    53    54    2
     7    50    49   ar
     8    59    58    2
     9    52    55    1
    10    52    51    1
    11    73    72    2
    12    77    75   am
    13    58    57    1
    14    46    45   ar
    15    46    44   ar
    16    45    43   ar
    17    74    75    1
    18    74    71    1
    19    72    71    1
    20    49    47   ar
    21    57    60    1
    22    39    51   am
    23    39    38    1
    24    75    76    2
    25    44    47   ar
    26    44    42   ar
    27    43    42   ar
    28    37    38    1
    29    71    70    1
    30    42    41    1
    31    70    66   am
    32    60    61    1
    33    38    41    1
    34    64    65    1
    35    66    65    1
    36    66    67    2
    37    65    68    1
    38    61    62   ar
    39    61    63   ar
    40    68    69    1
    41    20    19    2
    42    19    25   am
    43    19    18    1
    44    21    18    1
    45    21    22    1
    46    26    29    1
    47    26    25    1
    48    26    27    1
    49    13    14    1
    50    24    22   ar
    51    18    17    1
    52    17    15   am
    53    27    28    2
    54    36    34    1
    55    22    23   ar
    56    35    34    1
    57    31    34    1
    58    31    30    1
    59    31    32    1
    60    14    15    1
    61    15    16    2
    62    32    33    2
    63     6     5    1
    64    11    10    2
    65    12     9    1
    66    10     9    1
    67     9     8    1
    68     8     3   am
    69     5     7    1
    70     5     2    1
    71     1     2    1
    72     3     2    1
    73     3     4    2
