@<TRIPOS>MOLECULE
tmp/6ibwA02.pdb
 126 117 0 0 0
SMALL
GASTEIGER

@<TRIPOS>ATOM
      1  N        -27.6260   -1.4510  -19.2650 N.3    86  SER86      -0.1217
      2  CA       -26.7920   -0.2480  -19.0870 C.3    86  SER86       0.1889
      3  C        -25.3980   -0.5910  -18.5500 C.2    86  SER86       0.2288
      4  O        -25.3130   -1.3810  -17.6070 O.2    86  SER86      -0.2866
      5  CB       -27.5420    0.6840  -18.2170 C.3    86  SER86       0.2089
      6  OG       -26.8860    1.9240  -18.2270 O.3    86  SER86      -0.2183
      7  N        -22.6040    1.8070  -17.0230 N.3    88  VAL88      -0.1245
      8  CA       -22.5670    3.2560  -16.6560 C.3    88  VAL88       0.1561
      9  C        -21.2840    3.5940  -15.9010 C.2    88  VAL88       0.2260
     10  O        -20.9390    2.9100  -14.9360 O.2    88  VAL88      -0.2867
     11  CB       -23.7880    3.6860  -15.8370 C.3    88  VAL88       0.0252
     12  CG1      -23.8110    5.1910  -15.6750 C.3    88  VAL88       0.0019
     13  CG2      -25.0710    3.1980  -16.4710 C.3    88  VAL88       0.0019
     14  N        -19.9320    6.6620  -13.6120 N.3    90  GLU90      -0.1245
     15  CA       -20.4700    7.9270  -13.0580 C.3    90  GLU90       0.1567
     16  C        -19.6410    8.4290  -11.8840 C.2    90  GLU90       0.2260
     17  O        -19.2250    7.6300  -11.0760 O.2    90  GLU90      -0.2867
     18  CB       -21.9470    7.8220  -12.6770 C.3    90  GLU90       0.0388
     19  CG       -22.5520    9.2160  -12.6330 C.3    90  GLU90       0.1160
     20  CD       -24.0330    9.3630  -12.3200 C.2    90  GLU90       0.3649
     21  OE1      -24.4490    8.8920  -11.2460 O.co2  90  GLU90      -0.2457
     22  OE2      -24.7630    9.9970  -13.1370 O.co2  90  GLU90      -0.2457
     23  N        -20.6970   11.5740  -16.5530 N.3    96  GLU96      -0.1245
     24  CA       -21.0780   10.1990  -16.8930 C.3    96  GLU96       0.1567
     25  C        -20.8110    9.8670  -18.3510 C.2    96  GLU96       0.2260
     26  O        -20.9720   10.7110  -19.1840 O.2    96  GLU96      -0.2867
     27  CB       -22.5610   10.0010  -16.6150 C.3    96  GLU96       0.0388
     28  CG       -22.9540    8.5660  -16.7170 C.3    96  GLU96       0.1160
     29  CD       -24.2730    8.2780  -17.3710 C.2    96  GLU96       0.3649
     30  OE1      -25.2250    8.1420  -16.6390 O.2    96  GLU96      -0.2457
     31  OE2      -24.3300    8.1750  -18.5990 O.3    96  GLU96      -0.2457
     32  N        -21.7930    6.3910  -20.8350 N.3    98  ASP98      -0.1239
     33  CA       -22.5160    5.1070  -20.7150 C.3    98  ASP98       0.1674
     34  C        -22.7820    4.4690  -22.0620 C.2    98  ASP98       0.2266
     35  O        -22.4530    5.0360  -23.0980 O.2    98  ASP98      -0.2867
     36  CB       -23.7970    5.2250  -19.8970 C.3    98  ASP98       0.1410
     37  CG       -24.7870    6.2640  -20.3780 C.2    98  ASP98       0.3668
     38  OD1      -25.6050    5.9580  -21.2730 O.2    98  ASP98      -0.2456
     39  OD2      -24.7580    7.3540  -19.8100 O.3    98  ASP98      -0.2456
     40  N        -26.0630    2.1020  -23.6790 N.3   100  GLU100     -0.1245
     41  CA       -27.4270    1.6030  -23.3890 C.3   100  GLU100      0.1567
     42  C        -27.8980    0.7490  -24.5480 C.2   100  GLU100      0.2260
     43  O        -27.6810    1.1390  -25.6600 O.2   100  GLU100     -0.2867
     44  CB       -28.3600    2.7380  -22.9890 C.3   100  GLU100      0.0388
     45  CG       -28.3800    2.8950  -21.4830 C.3   100  GLU100      0.1160
     46  CD       -29.0100    4.1580  -20.9410 C.2   100  GLU100      0.3649
     47  OE1      -29.2070    5.1180  -21.7530 O.co2 100  GLU100     -0.2457
     48  OE2      -29.3490    4.1560  -19.7000 O.co2 100  GLU100     -0.2457
     49  N        -23.6600    7.4610  -24.7910 N.3   112  ASN112     -0.1240
     50  CA       -24.1920    8.7340  -24.2560 C.3   112  ASN112      0.1653
     51  C        -23.2220    9.2300  -23.2030 C.2   112  ASN112      0.2266
     52  O        -22.4940    8.3990  -22.6690 O.2   112  ASN112     -0.2867
     53  CB       -25.6190    8.5510  -23.7350 C.3   112  ASN112      0.1155
     54  CG       -26.2940    9.8540  -23.3630 C.2   112  ASN112      0.2627
     55  OD1      -26.3410   10.8030  -24.1430 O.2   112  ASN112     -0.2716
     56  ND2      -26.8790    9.8860  -22.1760 N.am  112  ASN112     -0.0877
     57  N        -22.8050   12.7970  -20.1030 N.3   114  PHE114     -0.1241
     58  CA       -23.0820   14.1890  -19.6610 C.3   114  PHE114      0.1605
     59  C        -21.9740   14.6250  -18.7080 C.2   114  PHE114      0.2264
     60  O        -21.2020   13.7890  -18.2500 O.2   114  PHE114     -0.2867
     61  CB       -24.5210   14.3590  -19.1630 C.3   114  PHE114      0.0534
     62  CG       -25.1000   13.2280  -18.3540 C.ar  114  PHE114     -0.0203
     63  CD1      -24.6970   13.0460  -17.0320 C.ar  114  PHE114     -0.0042
     64  CD2      -26.0910   12.3950  -18.8720 C.ar  114  PHE114     -0.0042
     65  CE1      -25.2510   12.0390  -16.2470 C.ar  114  PHE114     -0.0003
     66  CE2      -26.6280   11.3790  -18.0970 C.ar  114  PHE114     -0.0003
     67  CZ       -26.2080   11.2010  -16.7870 C.ar  114  PHE114     -0.0000
     68  N        -24.0440   16.4050  -14.5150 N.3   117  GLY117     -0.1225
     69  CA       -25.4980   16.1530  -14.5050 C.3   117  GLY117      0.1811
     70  C        -26.2320   17.0930  -15.4410 C.2   117  GLY117      0.2280
     71  O        -27.4310   17.2810  -15.2640 O.2   117  GLY117     -0.2866
     72  N        -28.0670   17.8640  -18.4880 N.3   119  THR119     -0.1218
     73  CA       -28.8840   17.2510  -19.5550 C.3   119  THR119      0.1862
     74  C        -29.7320   18.3610  -20.1560 C.2   119  THR119      0.2287
     75  O        -30.9540   18.1810  -20.1920 O.2   119  THR119     -0.2866
     76  CB       -29.7490   16.1390  -18.9600 C.3   119  THR119      0.1770
     77  OG1      -30.7200   16.7620  -18.1220 O.3   119  THR119     -0.2211
     78  CG2      -28.9700   15.1530  -18.1280 C.3   119  THR119      0.0375
     79  N        -30.9430   16.4800  -25.0150 N.3   122  TYR122     -0.1241
     80  CA       -30.4680   15.0740  -25.0910 C.3   122  TYR122      0.1605
     81  C        -29.6880   14.8850  -26.3950 C.2   122  TYR122      0.2264
     82  O        -29.9880   13.9360  -27.1570 O.2   122  TYR122     -0.2867
     83  CB       -31.6480   14.1410  -24.8310 C.3   122  TYR122      0.0534
     84  CG       -32.1230   14.2210  -23.4060 C.ar  122  TYR122     -0.0201
     85  CD1      -31.5350   13.4500  -22.4160 C.ar  122  TYR122     -0.0009
     86  CD2      -33.1290   15.0980  -23.0330 C.ar  122  TYR122     -0.0009
     87  CE1      -31.9600   13.5100  -21.0990 C.ar  122  TYR122      0.0417
     88  CE2      -33.5630   15.1770  -21.7170 C.ar  122  TYR122      0.0417
     89  CZ       -32.9690   14.3910  -20.7440 C.ar  122  TYR122      0.1957
     90  OH       -33.3990   14.4760  -19.4530 O.3   122  TYR122     -0.2866
     91  N        -26.2680   14.5690  -26.4620 N.3   124  ARG124     -0.1245
     92  CA       -25.0140   13.8530  -26.1410 C.3   124  ARG124      0.1563
     93  C        -25.1550   12.3630  -26.4690 C.2   124  ARG124      0.2260
     94  O        -24.3880   11.5690  -25.8960 O.2   124  ARG124     -0.2867
     95  CB       -24.6820   14.0340  -24.6620 C.3   124  ARG124      0.0307
     96  CG       -24.4130   15.4670  -24.2240 C.3   124  ARG124      0.0489
     97  CD       -25.4170   16.0580  -23.2620 C.3   124  ARG124      0.2205
     98  NE       -26.1080   15.0260  -22.5090 N.pl3 124  ARG124     -0.0865
     99  CZ       -27.4230   14.9790  -22.3020 C.cat 124  ARG124      0.5346
    100  NH1      -28.2120   15.9240  -22.7790 N.pl3 124  ARG124      0.1354
    101  NH2      -27.9620   13.9950  -21.5940 N.pl3 124  ARG124      0.1354
    102  N        -21.1200    1.0830  -12.8170 N.3   180  ARG180     -0.1245
    103  CA       -22.4490    0.5170  -12.4860 C.3   180  ARG180      0.1563
    104  C        -22.8890   -0.3590  -13.6450 C.2   180  ARG180      0.2260
    105  O        -22.8010    0.0950  -14.8070 O.2   180  ARG180     -0.2867
    106  CB       -23.5010    1.6100  -12.3610 C.3   180  ARG180      0.0307
    107  CG       -23.8030    2.0580  -10.9450 C.3   180  ARG180      0.0489
    108  CD       -25.2460    2.5460  -10.8290 C.3   180  ARG180      0.2205
    109  NE       -25.5080    3.6400  -11.7470 N.pl3 180  ARG180     -0.0865
    110  CZ       -25.1110    4.8950  -11.5600 C.cat 180  ARG180      0.5346
    111  NH1      -24.4250    5.2200  -10.4730 N.pl3 180  ARG180      0.1354
    112  NH2      -25.4000    5.8100  -12.4710 N.pl3 180  ARG180      0.1354
    113  N        -33.0060   -2.2600  -16.5430 N.3   184  TRP184     -0.1241
    114  CA       -34.2520   -1.6930  -15.9910 C.3   184  TRP184      0.1605
    115  C        -35.2500   -1.5890  -17.1250 C.2   184  TRP184      0.2264
    116  O        -34.8660   -1.7330  -18.2800 O.2   184  TRP184     -0.2867
    117  CB       -33.9830   -0.3450  -15.3350 C.3   184  TRP184      0.0550
    118  CG       -33.2640    0.6210  -16.2180 C.ar  184  TRP184      0.0003
    119  CD1      -31.9780    0.5380  -16.6550 C.ar  184  TRP184      0.0946
    120  CD2      -33.7860    1.8460  -16.7360 C.ar  184  TRP184      0.0152
    121  NE1      -31.6710    1.6170  -17.4290 N.ar  184  TRP184     -0.2442
    122  CE2      -32.7630    2.4400  -17.5010 C.ar  184  TRP184      0.0810
    123  CE3      -35.0160    2.4910  -16.6350 C.ar  184  TRP184      0.0012
    124  CZ2      -32.9320    3.6560  -18.1640 C.ar  184  TRP184      0.0191
    125  CZ3      -35.1850    3.6920  -17.2930 C.ar  184  TRP184      0.0001
    126  CH2      -34.1550    4.2680  -18.0390 C.ar  184  TRP184      0.0015
@<TRIPOS>BOND
     1    82    81    2
     2    93    92    1
     3    93    94    2
     4    91    92    1
     5    81    80    1
     6    92    95    1
     7    43    42    2
     8    80    79    1
     9    80    83    1
    10    83    84    1
    11    49    50    1
    12    95    96    1
    13    42    41    1
    14    50    53    1
    15    50    51    1
    16    96    97    1
    17    55    54    2
    18    53    54    1
    19    40    41    1
    20    84    86   ar
    21    84    85   ar
    22    41    44    1
    23    54    56   am
    24    97    98    1
    25    51    52    2
    26    35    34    2
    27    86    88   ar
    28    44    45    1
    29   100    99    1
    30    98    99    2
    31    85    87   ar
    32    99   101    1
    33    34    33    1
    34    47    46   ar
    35    88    89   ar
    36    45    46    1
    37    38    37    2
    38    87    89   ar
    39    46    48   ar
    40    32    33    1
    41    89    90    1
    42    33    36    1
    43    37    36    1
    44    37    39    1
    45    75    74    2
    46    74    73    1
    47    57    58    1
    48    39    31    1
    49    58    61    1
    50    58    59    1
    51    73    76    1
    52    73    72    1
    53     1     2    1
    54    26    25    2
    55    61    62    1
    56     2     3    1
    57     2     5    1
    58    76    78    1
    59    76    77    1
    60    64    62   ar
    61    64    66   ar
    62    59    60    2
    63    31    29    1
    64     3     4    2
    65    62    63   ar
    66    25    24    1
    67   116   115    2
    68     6     5    1
    69   124   126   ar
    70   124   122   ar
    71    66    67   ar
    72   126   125   ar
    73   122   121   ar
    74   122   120   ar
    75   121   119   ar
    76    29    28    1
    77    29    30    2
    78   125   123   ar
    79   115   114    1
    80    63    65   ar
    81     7     8    1
    82    24    27    1
    83    24    23    1
    84    67    65   ar
    85   120   123   ar
    86   120   118   ar
    87    28    27    1
    88     8     9    1
    89     8    11    1
    90   119   118   ar
    91   113   114    1
    92    13    11    1
    93   118   117    1
    94   114   117    1
    95     9    10    2
    96    11    12    1
    97    70    71    2
    98    70    69    1
    99   105   104    2
   100    68    69    1
   101   104   103    1
   102    14    15    1
   103    22    20   ar
   104    15    18    1
   105    15    16    1
   106   102   103    1
   107    18    19    1
   108    19    20    1
   109   103   106    1
   110   112   110    1
   111   106   107    1
   112    20    21   ar
   113    16    17    2
   114   109   110    2
   115   109   108    1
   116   110   111    1
   117   107   108    1
