@<TRIPOS>MOLECULE
tmp/6ibyA01.pdb
 99 97 0 0 0
SMALL
GASTEIGER

@<TRIPOS>ATOM
      1  N        151.0470  -42.8090  257.6690 N.3    25  PRO25      -0.2102
      2  CA       149.6420  -43.0260  257.3400 C.3    25  PRO25       0.1504
      3  C        148.9600  -43.7140  258.4650 C.2    25  PRO25       0.2576
      4  O        149.6170  -44.3490  259.2860 O.2    25  PRO25      -0.2718
      5  CB       149.6900  -43.9650  256.1290 C.3    25  PRO25       0.0282
      6  CG       151.0360  -43.7330  255.5150 C.3    25  PRO25       0.0208
      7  CD       151.9530  -43.4200  256.6730 C.3    25  PRO25       0.0893
      8  N        147.6410  -43.5570  258.5060 N.am   26  ALA26      -0.1966
      9  CA       146.8130  -44.1390  259.5730 C.3    26  ALA26       0.1728
     10  C        147.2060  -43.6000  260.9430 C.2    26  ALA26       0.2616
     11  O        147.3260  -44.3490  261.9000 O.2    26  ALA26      -0.2715
     12  CB       146.9240  -45.6540  259.5460 C.3    26  ALA26       0.0334
     13  N        147.4230  -42.2930  261.0290 N.am   27  ARG27      -0.1963
     14  CA       147.7140  -41.6410  262.3470 C.3    27  ARG27       0.1729
     15  C        146.6480  -40.5770  262.6930 C.2    27  ARG27       0.2617
     16  O        146.8760  -39.7120  263.5530 O.2    27  ARG27      -0.2715
     17  CB       149.1210  -41.0240  262.3690 C.3    27  ARG27       0.0348
     18  CG       150.1590  -41.8770  263.0770 C.3    27  ARG27       0.0492
     19  CD       150.5610  -43.0850  262.2670 C.3    27  ARG27       0.2205
     20  NE       151.4430  -44.0320  262.9660 N.pl3  27  ARG27      -0.0865
     21  CZ       151.6830  -45.2880  262.5480 C.cat  27  ARG27       0.5346
     22  NH1      151.1240  -45.7650  261.4330 N.pl3  27  ARG27       0.1354
     23  NH2      152.4740  -46.0890  263.2480 N.pl3  27  ARG27       0.1354
     24  N        145.4990  -40.6580  262.0020 N.am   28  GLY28      -0.1940
     25  CA       144.4090  -39.7610  262.2050 C.3    28  GLY28       0.2014
     26  C        144.5920  -38.3930  261.5990 C.2    28  GLY28       0.2639
     27  O        143.8840  -37.4610  261.9600 O.2    28  GLY28      -0.2714
     28  N        145.5190  -38.2120  260.6800 N.am   29  LYS29      -0.1963
     29  CA       145.7010  -36.8420  260.1670 C.3    29  LYS29       0.1728
     30  C        144.4540  -36.3040  259.5170 C.2    29  LYS29       0.2617
     31  O        144.1320  -35.1280  259.6290 O.2    29  LYS29      -0.2715
     32  CB       146.8500  -36.7540  259.1770 C.3    29  LYS29       0.0311
     33  CG       148.2100  -37.0800  259.8040 C.3    29  LYS29       0.0038
     34  CD       149.3460  -36.9280  258.7800 C.3    29  LYS29       0.0206
     35  CE       149.1950  -37.8440  257.5700 C.3    29  LYS29       0.1093
     36  NZ       149.1320  -39.2830  257.9410 N.3    29  LYS29      -0.1314
     37  N        143.7610  -37.1750  258.8090 N.am   30  THR30      -0.1937
     38  CA       142.6380  -36.7880  257.9500 C.3    30  THR30       0.2028
     39  C        141.4190  -36.5800  258.8260 C.2    30  THR30       0.2642
     40  O        140.6760  -35.6140  258.6610 O.2    30  THR30      -0.2714
     41  CB       142.4290  -37.8890  256.8960 C.3    30  THR30       0.1808
     42  OG1      143.4210  -37.7010  255.8980 O.3    30  THR30      -0.2208
     43  CG2      141.0700  -37.8100  256.2470 C.3    30  THR30       0.0379
     44  N        141.2590  -37.5030  259.7710 N.am   31  TYR31      -0.1973
     45  CA       140.3000  -37.3850  260.8560 C.3    31  TYR31       0.1639
     46  C        140.3890  -36.0000  261.4810 C.2    31  TYR31       0.2290
     47  O        139.4240  -35.2630  261.5570 O.2    31  TYR31      -0.2864
     48  CB       140.5400  -38.4620  261.9220 C.3    31  TYR31       0.0560
     49  CG       139.5790  -38.3310  263.0870 C.ar   31  TYR31      -0.0198
     50  CD1      139.9780  -37.6950  264.2690 C.ar   31  TYR31      -0.0009
     51  CD2      138.2670  -38.7700  262.9950 C.ar   31  TYR31      -0.0009
     52  CE1      139.1020  -37.5380  265.3220 C.ar   31  TYR31       0.0417
     53  CE2      137.3830  -38.6000  264.0560 C.ar   31  TYR31       0.0417
     54  CZ       137.8000  -37.9830  265.2120 C.ar   31  TYR31       0.1957
     55  OH       136.9590  -37.7900  266.2880 O.3    31  TYR31      -0.2866
     56  N        146.6290  -31.7690  254.0410 N.3   106  ASP106     -0.1239
     57  CA       146.5580  -33.1210  254.5840 C.3   106  ASP106      0.1674
     58  C        147.4110  -34.1040  253.7500 C.2   106  ASP106      0.2266
     59  O        147.0310  -34.5870  252.6690 O.2   106  ASP106     -0.2867
     60  CB       145.0940  -33.6210  254.6730 C.3   106  ASP106      0.1410
     61  CG       145.0000  -35.0140  255.2070 C.2   106  ASP106      0.3668
     62  OD1      145.9790  -35.4250  255.8540 O.co2 106  ASP106     -0.2456
     63  OD2      143.9740  -35.7060  254.9960 O.co2 106  ASP106     -0.2456
     64  N        142.3410  -47.9430  262.8850 N.3   145  ASN145     -0.1240
     65  CA       142.1430  -46.9040  261.8960 C.3   145  ASN145      0.1653
     66  C        142.0490  -47.4430  260.4940 C.2   145  ASN145      0.2266
     67  O        141.2860  -46.9420  259.6890 O.2   145  ASN145     -0.2867
     68  CB       143.3000  -45.8980  261.8770 C.3   145  ASN145      0.1155
     69  CG       143.4760  -45.1440  263.1730 C.2   145  ASN145      0.2627
     70  OD1      142.5260  -44.9110  263.9170 O.2   145  ASN145     -0.2716
     71  ND2      144.7310  -44.7440  263.4450 N.am  145  ASN145     -0.0877
     72  N        138.4990  -46.7260  258.2570 N.3   149  VAL149     -0.1231
     73  CA       138.4410  -45.8150  257.0940 C.3   149  VAL149      0.1692
     74  C        139.3840  -46.0980  255.9270 C.2   149  VAL149      0.2591
     75  O        139.2860  -45.4400  254.8980 O.2   149  VAL149     -0.2718
     76  CB       138.6670  -44.3300  257.5370 C.3   149  VAL149      0.0266
     77  CG1      137.5220  -43.8670  258.4520 C.3   149  VAL149      0.0020
     78  CG2      140.0390  -44.1240  258.1910 C.3   149  VAL149      0.0020
     79  N        140.3370  -47.0090  256.0750 N.am  150  LYS150     -0.1980
     80  CA       141.2080  -47.2870  254.9320 C.3   150  LYS150      0.1596
     81  C        140.6360  -48.3590  253.9800 C.2   150  LYS150      0.2287
     82  O        140.5360  -48.1130  252.7840 O.2   150  LYS150     -0.2864
     83  CB       142.6030  -47.6520  255.3900 C.3   150  LYS150      0.0298
     84  CG       143.2090  -46.5810  256.2770 C.3   150  LYS150      0.0038
     85  CD       143.3740  -45.2560  255.5850 C.3   150  LYS150      0.0206
     86  CE       144.1130  -44.2960  256.4600 C.3   150  LYS150      0.1093
     87  NZ       144.2400  -43.0240  255.7310 N.3   150  LYS150     -0.1314
     88  N        134.6620  -40.8510  259.8980 N.3   406  TYR406     -0.1241
     89  CA       135.1450  -39.4650  259.9870 C.3   406  TYR406      0.1605
     90  C        134.1220  -38.4340  260.5270 C.2   406  TYR406      0.2264
     91  O        134.4990  -37.2880  260.8250 O.2   406  TYR406     -0.2867
     92  CB       135.6110  -39.0000  258.6170 C.3   406  TYR406      0.0534
     93  CG       136.9260  -39.5920  258.1290 C.ar  406  TYR406     -0.0201
     94  CD1      138.0760  -39.5840  258.9290 C.ar  406  TYR406     -0.0009
     95  CD2      137.0270  -40.1180  256.8500 C.ar  406  TYR406     -0.0009
     96  CE1      139.2570  -40.1240  258.4800 C.ar  406  TYR406      0.0417
     97  CE2      138.2120  -40.6250  256.3740 C.ar  406  TYR406      0.0417
     98  CZ       139.3210  -40.6130  257.1740 C.ar  406  TYR406      0.1957
     99  OH       140.4970  -41.0900  256.6560 O.3   406  TYR406     -0.2866
@<TRIPOS>BOND
     1    59    58    2
     2    82    81    2
     3    58    57    1
     4    81    80    1
     5    56    57    1
     6    57    60    1
     7    60    61    1
     8    75    74    2
     9    80    83    1
    10    80    79    1
    11    63    61   ar
    12    61    62   ar
    13    83    84    1
    14     6     5    1
    15     6     7    1
    16    85    84    1
    17    85    86    1
    18    87    86    1
    19    42    41    1
    20    74    79   am
    21    74    73    1
    22     5     2    1
    23    43    41    1
    24    97    95   ar
    25    97    98   ar
    26    99    98    1
    27     7     1    1
    28    95    93   ar
    29    41    38    1
    30    73    76    1
    31    73    72    1
    32    98    96   ar
    33     2     1    1
    34     2     3    1
    35    76    78    1
    36    76    77    1
    37    35    36    1
    38    35    34    1
    39    38    37    1
    40    38    39    1
    41    93    92    1
    42    93    94   ar
    43     3     8   am
    44     3     4    2
    45    96    94   ar
    46     8     9    1
    47    92    89    1
    48    40    39    2
    49    34    33    1
    50    37    30   am
    51    39    44   am
    52    32    33    1
    53    32    29    1
    54    30    31    2
    55    30    29    1
    56    12     9    1
    57     9    10    1
    58    67    66    2
    59    44    45    1
    60    88    89    1
    61    89    90    1
    62    29    28    1
    63    66    65    1
    64    90    91    2
    65    28    26   am
    66    45    46    1
    67    45    48    1
    68    10    13   am
    69    10    11    2
    70    13    14    1
    71    22    21    1
    72    46    47    2
    73    26    27    2
    74    26    25    1
    75    68    65    1
    76    68    69    1
    77    65    64    1
    78    48    49    1
    79    24    25    1
    80    24    15   am
    81    19    20    1
    82    19    18    1
    83    14    17    1
    84    14    15    1
    85    17    18    1
    86    21    20    2
    87    21    23    1
    88    15    16    2
    89    51    49   ar
    90    51    53   ar
    91    49    50   ar
    92    69    71   am
    93    69    70    2
    94    53    54   ar
    95    50    52   ar
    96    54    52   ar
    97    54    55    1
