@<TRIPOS>MOLECULE
tmp/6ibyA00.pdb
 211 203 0 0 0
SMALL
GASTEIGER

@<TRIPOS>ATOM
      1  N        147.6410  -43.5570  258.5060 N.3    26  ALA26      -0.1231
      2  CA       146.8130  -44.1390  259.5730 C.3    26  ALA26       0.1694
      3  C        147.2060  -43.6000  260.9430 C.2    26  ALA26       0.2592
      4  O        147.3260  -44.3490  261.9000 O.2    26  ALA26      -0.2718
      5  CB       146.9240  -45.6540  259.5460 C.3    26  ALA26       0.0304
      6  N        147.4230  -42.2930  261.0290 N.am   27  ARG27      -0.1966
      7  CA       147.7140  -41.6410  262.3470 C.3    27  ARG27       0.1729
      8  C        146.6480  -40.5770  262.6930 C.2    27  ARG27       0.2616
      9  O        146.8760  -39.7120  263.5530 O.2    27  ARG27      -0.2715
     10  CB       149.1210  -41.0240  262.3690 C.3    27  ARG27       0.0348
     11  CG       150.1590  -41.8770  263.0770 C.3    27  ARG27       0.0492
     12  CD       150.5610  -43.0850  262.2670 C.3    27  ARG27       0.2205
     13  NE       151.4430  -44.0320  262.9660 N.pl3  27  ARG27      -0.0865
     14  CZ       151.6830  -45.2880  262.5480 C.cat  27  ARG27       0.5346
     15  NH1      151.1240  -45.7650  261.4330 N.pl3  27  ARG27       0.1354
     16  NH2      152.4740  -46.0890  263.2480 N.pl3  27  ARG27       0.1354
     17  N        145.4990  -40.6580  262.0020 N.am   28  GLY28      -0.1955
     18  CA       144.4090  -39.7610  262.2050 C.3    28  GLY28       0.1869
     19  C        144.5920  -38.3930  261.5990 C.2    28  GLY28       0.2309
     20  O        143.8840  -37.4610  261.9600 O.2    28  GLY28      -0.2863
     21  N        141.2590  -37.5030  259.7710 N.3    31  TYR31      -0.1227
     22  CA       140.3000  -37.3850  260.8560 C.3    31  TYR31       0.1736
     23  C        140.3890  -36.0000  261.4810 C.2    31  TYR31       0.2595
     24  O        139.4240  -35.2630  261.5570 O.2    31  TYR31      -0.2718
     25  CB       140.5400  -38.4620  261.9220 C.3    31  TYR31       0.0548
     26  CG       139.5790  -38.3310  263.0870 C.ar   31  TYR31      -0.0200
     27  CD1      139.9780  -37.6950  264.2690 C.ar   31  TYR31      -0.0009
     28  CD2      138.2670  -38.7700  262.9950 C.ar   31  TYR31      -0.0009
     29  CE1      139.1020  -37.5380  265.3220 C.ar   31  TYR31       0.0417
     30  CE2      137.3830  -38.6000  264.0560 C.ar   31  TYR31       0.0417
     31  CZ       137.8000  -37.9830  265.2120 C.ar   31  TYR31       0.1957
     32  OH       136.9590  -37.7900  266.2880 O.3    31  TYR31      -0.2866
     33  N        141.5810  -35.6600  261.8930 N.am   32  ILE32      -0.1980
     34  CA       141.8090  -34.4040  262.4990 C.3    32  ILE32       0.1595
     35  C        141.6400  -33.2810  261.5140 C.2    32  ILE32       0.2287
     36  O        141.0690  -32.2540  261.8770 O.2    32  ILE32      -0.2864
     37  CB       143.1800  -34.3260  263.1880 C.3    32  ILE32       0.0276
     38  CG1      143.2610  -35.3470  264.3080 C.3    32  ILE32       0.0022
     39  CG2      143.3610  -32.9760  263.7930 C.3    32  ILE32       0.0022
     40  CD1      142.4670  -35.0270  265.5610 C.3    32  ILE32       0.0001
     41  N        150.9730  -29.6040  262.4100 N.3   132  ILE132     -0.1245
     42  CA       150.3400  -30.4730  263.3770 C.3   132  ILE132      0.1561
     43  C        150.7530  -31.8860  263.0130 C.2   132  ILE132      0.2260
     44  O        150.4260  -32.3740  261.9350 O.2   132  ILE132     -0.2867
     45  CB       148.8090  -30.3560  263.2810 C.3   132  ILE132      0.0252
     46  CG1      148.3690  -28.9230  263.5880 C.3   132  ILE132      0.0019
     47  CG2      148.1410  -31.3390  264.2170 C.3   132  ILE132      0.0019
     48  CD1      146.8780  -28.6790  263.4460 C.3   132  ILE132      0.0001
     49  N        150.9530  -35.9480  264.0880 N.3   134  SER134     -0.1202
     50  CA       150.3930  -37.0080  264.9060 C.3   134  SER134      0.2020
     51  C        151.3420  -38.1800  264.9870 C.2   134  SER134      0.2619
     52  O        151.7570  -38.6790  263.9770 O.2   134  SER134     -0.2717
     53  CB       149.0980  -37.4720  264.2960 C.3   134  SER134      0.2103
     54  OG       148.4590  -38.3870  265.1470 O.3   134  SER134     -0.2182
     55  N        151.6880  -38.6260  266.1860 N.am  135  VAL135     -0.1965
     56  CA       152.6820  -39.6760  266.3530 C.3   135  VAL135      0.1727
     57  C        152.0760  -40.7230  267.2030 C.2   135  VAL135      0.2616
     58  O        151.5740  -40.3990  268.2730 O.2   135  VAL135     -0.2715
     59  CB       153.9640  -39.1850  267.0500 C.3   135  VAL135      0.0290
     60  CG1      154.8920  -40.3420  267.3160 C.3   135  VAL135      0.0023
     61  CG2      154.7010  -38.2010  266.1850 C.3   135  VAL135      0.0023
     62  N        152.1200  -41.9750  266.7400 N.am  136  CYS136     -0.1968
     63  CA       151.6170  -43.0920  267.5380 C.3   136  CYS136      0.1712
     64  C        152.1260  -44.4120  267.0180 C.2   136  CYS136      0.2296
     65  O        152.0800  -44.6420  265.8190 O.2   136  CYS136     -0.2864
     66  CB       150.0970  -43.1240  267.5190 C.3   136  CYS136      0.0983
     67  SG       149.4120  -44.5750  268.3490 S.3   136  CYS136     -0.0798
     68  N        145.8870  -49.2390  267.5760 N.3   141  VAL141     -0.1231
     69  CA       145.2760  -48.0140  267.1040 C.3   141  VAL141      0.1692
     70  C        145.3650  -47.9230  265.5840 C.2   141  VAL141      0.2591
     71  O        144.3530  -47.6650  264.9030 O.2   141  VAL141     -0.2718
     72  CB       145.9510  -46.7960  267.7240 C.3   141  VAL141      0.0266
     73  CG1      145.4650  -45.5210  267.0430 C.3   141  VAL141      0.0020
     74  CG2      145.7240  -46.7830  269.2430 C.3   141  VAL141      0.0020
     75  N        146.5720  -48.1540  265.0680 N.am  142  VAL142     -0.1980
     76  CA       146.8050  -48.1860  263.6440 C.3   142  VAL142      0.1595
     77  C        145.8120  -49.1780  262.9930 C.2   142  VAL142      0.2287
     78  O        145.0830  -48.8330  262.0400 O.2   142  VAL142     -0.2864
     79  CB       148.2460  -48.6230  263.3250 C.3   142  VAL142      0.0276
     80  CG1      148.4540  -48.7380  261.8220 C.3   142  VAL142      0.0022
     81  CG2      149.2730  -47.6560  263.9040 C.3   142  VAL142      0.0022
     82  N        143.0490  -50.3950  264.0330 N.3   144  SER144     -0.1202
     83  CA       141.7130  -49.9380  264.1500 C.3   144  SER144      0.2020
     84  C        141.4160  -48.8680  263.0850 C.2   144  SER144      0.2618
     85  O        140.3820  -48.9030  262.4370 O.2   144  SER144     -0.2717
     86  CB       141.5440  -49.4050  265.5600 C.3   144  SER144      0.2103
     87  OG       140.2430  -48.9360  265.6560 O.3   144  SER144     -0.2182
     88  N        142.3410  -47.9430  262.8850 N.am  145  ASN145     -0.1974
     89  CA       142.1430  -46.9040  261.8960 C.3   145  ASN145      0.1688
     90  C        142.0490  -47.4430  260.4940 C.2   145  ASN145      0.2292
     91  O        141.2860  -46.9420  259.6890 O.2   145  ASN145     -0.2864
     92  CB       143.3000  -45.8980  261.8770 C.3   145  ASN145      0.1181
     93  CG       143.4760  -45.1440  263.1730 C.2   145  ASN145      0.2629
     94  OD1      142.5260  -44.9110  263.9170 O.2   145  ASN145     -0.2716
     95  ND2      144.7310  -44.7440  263.4450 N.am  145  ASN145     -0.0877
     96  N        138.6700  -48.8740  260.0030 N.3   148  GLU148     -0.1231
     97  CA       137.5160  -47.9780  260.1320 C.3   148  GLU148      0.1699
     98  C        137.3700  -47.1010  258.8760 C.2   148  GLU148      0.2592
     99  O        136.2380  -46.7460  258.4810 O.2   148  GLU148     -0.2718
    100  CB       137.6590  -47.1170  261.3980 C.3   148  GLU148      0.0402
    101  CG       136.4270  -46.9350  262.2510 C.3   148  GLU148      0.1161
    102  CD       136.5300  -45.7710  263.2300 C.2   148  GLU148      0.3649
    103  OE1      137.4280  -45.7430  264.0450 O.co2 148  GLU148     -0.2457
    104  OE2      135.7080  -44.8580  263.2130 O.co2 148  GLU148     -0.2457
    105  N        138.4990  -46.7260  258.2570 N.am  149  VAL149     -0.1980
    106  CA       138.4410  -45.8150  257.0940 C.3   149  VAL149      0.1595
    107  C        139.3840  -46.0980  255.9270 C.2   149  VAL149      0.2287
    108  O        139.2860  -45.4400  254.8980 O.2   149  VAL149     -0.2864
    109  CB       138.6670  -44.3300  257.5370 C.3   149  VAL149      0.0276
    110  CG1      137.5220  -43.8670  258.4520 C.3   149  VAL149      0.0022
    111  CG2      140.0390  -44.1240  258.1910 C.3   149  VAL149      0.0022
    112  N        151.4950  -34.0720  268.5510 N.3   196  VAL196     -0.1245
    113  CA       150.4980  -34.7760  269.3540 C.3   196  VAL196      0.1561
    114  C        150.8630  -36.2500  269.4810 C.2   196  VAL196      0.2260
    115  O        151.1690  -36.8880  268.5080 O.2   196  VAL196     -0.2867
    116  CB       149.1050  -34.7040  268.7330 C.3   196  VAL196      0.0252
    117  CG1      148.0850  -35.3300  269.6730 C.3   196  VAL196      0.0019
    118  CG2      148.7460  -33.2730  268.4640 C.3   196  VAL196      0.0019
    119  N        147.2610  -40.2820  270.5820 N.3   199  VAL199     -0.1231
    120  CA       145.8160  -40.0450  270.4620 C.3   199  VAL199      0.1692
    121  C        145.3400  -38.9850  271.4680 C.2   199  VAL199      0.2592
    122  O        144.3770  -39.1620  272.1940 O.2   199  VAL199     -0.2718
    123  CB       145.0280  -41.3760  270.5640 C.3   199  VAL199      0.0266
    124  CG1      143.6540  -41.2380  269.9230 C.3   199  VAL199      0.0020
    125  CG2      145.8050  -42.5170  269.8940 C.3   199  VAL199      0.0020
    126  N        146.0590  -37.8760  271.4860 N.am  200  GLY200     -0.1957
    127  CA       145.7370  -36.7390  272.3410 C.3   200  GLY200      0.1869
    128  C        146.2370  -36.7860  273.7810 C.2   200  GLY200      0.2309
    129  O        145.7550  -36.0400  274.5830 O.2   200  GLY200     -0.2863
    130  N        151.1750  -33.3820  274.3360 N.3   203  PHE203     -0.1241
    131  CA       151.3540  -32.3870  273.3170 C.3   203  PHE203      0.1605
    132  C        152.6260  -31.6710  273.5600 C.2   203  PHE203      0.2264
    133  O        153.0290  -31.4830  274.6810 O.2   203  PHE203     -0.2867
    134  CB       150.2790  -31.3350  273.4190 C.3   203  PHE203      0.0534
    135  CG       148.8960  -31.8560  273.2310 C.ar  203  PHE203     -0.0203
    136  CD1      148.2020  -32.4030  274.2970 C.ar  203  PHE203     -0.0042
    137  CD2      148.2750  -31.7700  272.0090 C.ar  203  PHE203     -0.0042
    138  CE1      146.9050  -32.8440  274.1550 C.ar  203  PHE203     -0.0003
    139  CE2      146.9890  -32.2250  271.8490 C.ar  203  PHE203     -0.0003
    140  CZ       146.3080  -32.7740  272.9240 C.ar  203  PHE203     -0.0000
    141  N        141.9890  -29.1410  270.3850 N.3   220  LEU220     -0.1245
    142  CA       142.6250  -30.4460  270.3880 C.3   220  LEU220      0.1561
    143  C        142.8180  -30.9790  271.7850 C.2   220  LEU220      0.2260
    144  O        142.7430  -32.1800  272.0120 O.2   220  LEU220     -0.2867
    145  CB       143.9540  -30.4120  269.6450 C.3   220  LEU220      0.0270
    146  CG       143.8690  -30.1510  268.1400 C.3   220  LEU220      0.0019
    147  CD1      145.2560  -30.0980  267.5390 C.3   220  LEU220      0.0001
    148  CD2      143.0470  -31.1910  267.4250 C.3   220  LEU220      0.0001
    149  N        138.9320  -32.3340  272.5420 N.3   223  ILE223     -0.1231
    150  CA       138.3680  -33.4980  271.8890 C.3   223  ILE223      0.1692
    151  C        138.9350  -34.8330  272.3870 C.2   223  ILE223      0.2592
    152  O        139.9850  -34.8950  273.0510 O.2   223  ILE223     -0.2718
    153  CB       138.4750  -33.3910  270.3580 C.3   223  ILE223      0.0266
    154  CG1      139.9190  -33.4520  269.8760 C.3   223  ILE223      0.0019
    155  CG2      137.8320  -32.1140  269.8710 C.3   223  ILE223      0.0020
    156  CD1      140.0100  -33.5860  268.3690 C.3   223  ILE223      0.0001
    157  N        138.2270  -35.8960  272.0770 N.am  224  HIS224     -0.1962
    158  CA       138.6390  -37.2330  272.4420 C.3   224  HIS224      0.1787
    159  C        137.9570  -38.2330  271.4910 C.2   224  HIS224      0.2620
    160  O        137.0680  -37.8740  270.7580 O.2   224  HIS224     -0.2715
    161  CB       138.2360  -37.5550  273.8760 C.3   224  HIS224      0.0785
    162  CG       136.7530  -37.5800  274.0790 C.ar  224  HIS224      0.0821
    163  ND1      135.9330  -38.5460  273.5330 N.ar  224  HIS224     -0.2267
    164  CD2      135.9340  -36.7190  274.7210 C.ar  224  HIS224      0.1154
    165  CE1      134.6850  -38.2940  273.8520 C.ar  224  HIS224      0.1986
    166  NE2      134.6580  -37.1980  274.5840 N.ar  224  HIS224     -0.2212
    167  N        138.3750  -39.4890  271.5170 N.am  225  VAL225     -0.1977
    168  CA       137.8540  -40.4670  270.5840 C.3   225  VAL225      0.1596
    169  C        137.1590  -41.5890  271.3180 C.2   225  VAL225      0.2287
    170  O        136.9320  -42.6360  270.7690 O.2   225  VAL225     -0.2864
    171  CB       138.9920  -41.0070  269.6910 C.3   225  VAL225      0.0276
    172  CG1      139.5740  -39.8790  268.8740 C.3   225  VAL225      0.0022
    173  CG2      140.0960  -41.6600  270.5130 C.3   225  VAL225      0.0022
    174  N        134.1030  -43.6500  272.8720 N.3   227  PRO227     -0.2116
    175  CA       132.7460  -43.8620  272.3640 C.3   227  PRO227      0.1372
    176  C        131.7230  -43.1590  273.2370 C.2   227  PRO227      0.2244
    177  O        131.8950  -43.1230  274.4510 O.2   227  PRO227     -0.2868
    178  CB       132.5520  -45.3850  272.4260 C.3   227  PRO227      0.0268
    179  CG       133.6240  -45.8990  273.3000 C.3   227  PRO227      0.0207
    180  CD       134.7320  -44.8960  273.3540 C.3   227  PRO227      0.0892
    181  N        129.1510  -40.9400  266.5210 N.3   403  PRO403     -0.2102
    182  CA       130.2690  -40.6850  265.6270 C.3   403  PRO403      0.1504
    183  C        130.6530  -41.9630  264.9090 C.2   403  PRO403      0.2576
    184  O        130.8430  -42.9800  265.5320 O.2   403  PRO403     -0.2718
    185  CB       131.3690  -40.2460  266.5900 C.3   403  PRO403      0.0282
    186  CG       131.1010  -41.0440  267.8320 C.3   403  PRO403      0.0208
    187  CD       129.5940  -41.1900  267.9060 C.3   403  PRO403      0.0893
    188  N        130.7220  -41.9390  263.5990 N.am  404  VAL404     -0.1966
    189  CA       131.1860  -43.1120  262.9120 C.3   404  VAL404      0.1727
    190  C        132.1800  -42.6540  261.8930 C.2   404  VAL404      0.2616
    191  O        131.9210  -41.6940  261.1350 O.2   404  VAL404     -0.2715
    192  CB       130.0550  -43.9820  262.2420 C.3   404  VAL404      0.0290
    193  CG1      128.6830  -43.7220  262.8660 C.3   404  VAL404      0.0023
    194  CG2      130.0100  -43.8080  260.7210 C.3   404  VAL404      0.0023
    195  N        133.3010  -43.3750  261.8480 N.am  405  ALA405     -0.1963
    196  CA       134.3080  -43.1260  260.8190 C.3   405  ALA405      0.1728
    197  C        134.7850  -41.6640  260.9340 C.2   405  ALA405      0.2616
    198  O        135.2690  -41.2850  261.9970 O.2   405  ALA405     -0.2715
    199  CB       133.7600  -43.4770  259.4330 C.3   405  ALA405      0.0334
    200  N        134.6620  -40.8510  259.8980 N.am  406  TYR406     -0.1974
    201  CA       135.1450  -39.4650  259.9870 C.3   406  TYR406      0.1639
    202  C        134.1220  -38.4340  260.5270 C.2   406  TYR406      0.2290
    203  O        134.4990  -37.2880  260.8250 O.2   406  TYR406     -0.2864
    204  CB       135.6110  -39.0000  258.6170 C.3   406  TYR406      0.0560
    205  CG       136.9260  -39.5920  258.1290 C.ar  406  TYR406     -0.0198
    206  CD1      138.0760  -39.5840  258.9290 C.ar  406  TYR406     -0.0009
    207  CD2      137.0270  -40.1180  256.8500 C.ar  406  TYR406     -0.0009
    208  CE1      139.2570  -40.1240  258.4800 C.ar  406  TYR406      0.0417
    209  CE2      138.2120  -40.6250  256.3740 C.ar  406  TYR406      0.0417
    210  CZ       139.3210  -40.6130  257.1740 C.ar  406  TYR406      0.1957
    211  OH       140.4970  -41.0900  256.6560 O.3   406  TYR406     -0.2866
@<TRIPOS>BOND
     1   108   107    2
     2   107   106    1
     3   209   207   ar
     4   209   210   ar
     5   211   210    1
     6   207   205   ar
     7   106   109    1
     8   106   105    1
     9   210   208   ar
    10   109   111    1
    11   109   110    1
    12   205   204    1
    13   205   206   ar
    14   105    98   am
    15   208   206   ar
    16    99    98    2
    17     1     2    1
    18   204   201    1
    19    98    97    1
    20   199   196    1
    21     5     2    1
    22     2     3    1
    23    91    90    2
    24    21    22    1
    25   200   201    1
    26   200   197   am
    27   201   202    1
    28    96    97    1
    29    97   100    1
    30    90    89    1
    31   202   203    2
    32   194   192    1
    33   196   197    1
    34   196   195    1
    35    22    23    1
    36    22    25    1
    37   197   198    2
    38     3     6   am
    39     3     4    2
    40     6     7    1
    41   191   190    2
    42   100   101    1
    43    15    14    1
    44    23    24    2
    45    23    33   am
    46    35    36    2
    47    35    34    1
    48    19    20    2
    49    19    18    1
    50    80    79    1
    51   195   190   am
    52    92    89    1
    53    92    93    1
    54   190   189    1
    55    33    34    1
    56    89    88    1
    57    25    26    1
    58    44    43    2
    59    17    18    1
    60    17     8   am
    61    78    77    2
    62   192   193    1
    63   192   189    1
    64   101   102    1
    65    12    13    1
    66    12    11    1
    67     7    10    1
    68     7     8    1
    69    10    11    1
    70    41    42    1
    71    85    84    2
    72    34    37    1
    73    14    13    2
    74    14    16    1
    75     8     9    2
    76    88    84   am
    77   189   188    1
    78    77    76    1
    79    28    26   ar
    80    28    30   ar
    81    43    42    1
    82    84    83    1
    83    26    27   ar
    84    93    95   am
    85    93    94    2
    86    37    39    1
    87    37    38    1
    88   104   102   ar
    89   102   103   ar
    90    45    42    1
    91    45    46    1
    92    45    47    1
    93    79    76    1
    94    79    81    1
    95    48    46    1
    96   188   183   am
    97    76    75    1
    98    52    51    2
    99    82    83    1
   100    30    31   ar
   101    49    50    1
   102    83    86    1
   103    27    29   ar
   104    53    50    1
   105    53    54    1
   106    38    40    1
   107    71    70    2
   108    50    51    1
   109   183   184    2
   110   183   182    1
   111    51    55   am
   112    75    70   am
   113    31    29   ar
   114    31    32    1
   115    86    87    1
   116    70    69    1
   117   182   181    1
   118   182   185    1
   119    65    64    2
   120    61    59    1
   121    55    56    1
   122    56    59    1
   123    56    57    1
   124   181   187    1
   125   185   186    1
   126    62    57   am
   127    62    63    1
   128    64    63    1
   129    73    72    1
   130    59    60    1
   131    69    68    1
   132    69    72    1
   133    57    58    2
   134   148   146    1
   135    66    63    1
   136    66    67    1
   137   147   146    1
   138    72    74    1
   139   186   187    1
   140   146   145    1
   141   156   154    1
   142   118   116    1
   143   115   114    2
   144   112   113    1
   145   116   113    1
   146   116   117    1
   147   172   171    1
   148   113   114    1
   149   145   142    1
   150   171   173    1
   151   171   168    1
   152   155   153    1
   153   154   153    1
   154   125   123    1
   155   124   123    1
   156   153   150    1
   157   141   142    1
   158   142   143    1
   159   120   123    1
   160   120   119    1
   161   120   121    1
   162   168   169    1
   163   168   167    1
   164   160   159    2
   165   170   169    2
   166   121   126   am
   167   121   122    2
   168   126   127    1
   169   159   167   am
   170   159   158    1
   171   143   144    2
   172   139   137   ar
   173   139   140   ar
   174   150   151    1
   175   150   149    1
   176   137   135   ar
   177   157   151   am
   178   157   158    1
   179   127   128    1
   180   175   178    1
   181   175   174    1
   182   175   176    1
   183   151   152    2
   184   178   179    1
   185   158   161    1
   186   174   180    1
   187   140   138   ar
   188   135   134    1
   189   135   136   ar
   190   176   177    2
   191   179   180    1
   192   131   134    1
   193   131   132    1
   194   131   130    1
   195   163   165   ar
   196   163   162   ar
   197   132   133    2
   198   128   129    2
   199   165   166   ar
   200   161   162    1
   201   162   164   ar
   202   138   136   ar
   203   166   164   ar
