@<TRIPOS>MOLECULE
tmp/6ibzA00.pdb
 106 99 0 0 0
SMALL
GASTEIGER

@<TRIPOS>ATOM
      1  N         95.5650   54.6680  249.7930 N.3    55  VAL55      -0.1231
      2  CA        96.4200   54.3100  248.6480 C.3    55  VAL55       0.1692
      3  C         96.0580   52.9210  248.1040 C.2    55  VAL55       0.2592
      4  O         96.0620   52.6980  246.9130 O.2    55  VAL55      -0.2718
      5  CB        97.9240   54.3720  249.0120 C.3    55  VAL55       0.0266
      6  CG1       98.7760   54.1160  247.7860 C.3    55  VAL55       0.0020
      7  CG2       98.2820   55.7430  249.5390 C.3    55  VAL55       0.0020
      8  N         95.6980   52.0150  248.9900 N.am   56  GLY56      -0.1957
      9  CA        95.2030   50.7260  248.5880 C.3    56  GLY56       0.1869
     10  C         94.1480   50.7960  247.4920 C.2    56  GLY56       0.2309
     11  O         94.1130   49.9540  246.5860 O.2    56  GLY56      -0.2863
     12  N         95.6280   51.6220  244.1290 N.3    59  ARG59      -0.1231
     13  CA        96.2320   50.4100  243.6170 C.3    59  ARG59       0.1694
     14  C         95.1740   49.4780  243.0520 C.2    59  ARG59       0.2591
     15  O         95.3540   48.9630  241.9670 O.2    59  ARG59      -0.2718
     16  CB        97.0350   49.7060  244.7180 C.3    59  ARG59       0.0321
     17  CG        97.7850   48.4590  244.2820 C.3    59  ARG59       0.0489
     18  CD        97.0000   47.1900  244.5390 C.3    59  ARG59       0.2205
     19  NE        96.7060   47.0450  245.9530 N.pl3  59  ARG59      -0.0865
     20  CZ        95.7970   46.2150  246.4600 C.cat  59  ARG59       0.5346
     21  NH1       95.0830   45.4100  245.6840 N.pl3  59  ARG59       0.1354
     22  NH2       95.5970   46.1980  247.7710 N.pl3  59  ARG59       0.1354
     23  N         94.0760   49.2650  243.7740 N.am   60  ARG60      -0.1980
     24  CA        93.0160   48.3640  243.2910 C.3    60  ARG60       0.1597
     25  C         92.4320   48.8140  241.9550 C.2    60  ARG60       0.2287
     26  O         91.9850   48.0040  241.1600 O.2    60  ARG60      -0.2864
     27  CB        91.8840   48.2210  244.3000 C.3    60  ARG60       0.0334
     28  CG        91.9220   46.9120  245.0520 C.3    60  ARG60       0.0492
     29  CD        90.7360   46.7560  245.9980 C.3    60  ARG60       0.2205
     30  NE        90.8310   47.6990  247.1080 N.pl3  60  ARG60      -0.0865
     31  CZ        91.4680   47.4670  248.2530 C.cat  60  ARG60       0.5346
     32  NH1       92.0490   46.2910  248.4800 N.pl3  60  ARG60       0.1354
     33  NH2       91.5050   48.4170  249.1880 N.pl3  60  ARG60       0.1354
     34  N        103.2870   42.1940  246.6460 N.3    72  PHE72      -0.1241
     35  CA       103.8590   43.0770  247.6630 C.3    72  PHE72       0.1605
     36  C        105.3220   42.7650  247.9860 C.2    72  PHE72       0.2264
     37  O        105.8730   43.2880  248.9550 O.2    72  PHE72      -0.2867
     38  CB       102.9720   43.0750  248.9440 C.3    72  PHE72       0.0534
     39  CG       101.6710   43.7810  248.7440 C.ar   72  PHE72      -0.0203
     40  CD1      101.6400   45.1660  248.6280 C.ar   72  PHE72      -0.0042
     41  CD2      100.4970   43.0700  248.5950 C.ar   72  PHE72      -0.0042
     42  CE1      100.4550   45.8300  248.3620 C.ar   72  PHE72      -0.0003
     43  CE2       99.3090   43.7180  248.3380 C.ar   72  PHE72      -0.0003
     44  CZ        99.2900   45.1000  248.2030 C.ar   72  PHE72      -0.0000
     45  N        103.0610   50.9910  242.8920 N.3    83  ARG83      -0.1245
     46  CA       102.7140   51.4370  244.2300 C.3    83  ARG83       0.1563
     47  C        103.1570   52.8780  244.4660 C.2    83  ARG83       0.2260
     48  O        102.3940   53.6950  244.9410 O.2    83  ARG83      -0.2867
     49  CB       103.3180   50.4920  245.2750 C.3    83  ARG83       0.0307
     50  CG       102.5760   49.1770  245.3940 C.3    83  ARG83       0.0489
     51  CD       103.3530   48.1430  246.1930 C.3    83  ARG83       0.2205
     52  NE       103.5570   48.5480  247.5800 N.pl3  83  ARG83      -0.0865
     53  CZ       104.4360   48.0050  248.4290 C.cat  83  ARG83       0.5346
     54  NH1      105.2230   47.0030  248.0580 N.pl3  83  ARG83       0.1354
     55  NH2      104.5310   48.4690  249.6700 N.pl3  83  ARG83       0.1354
     56  N        100.7230   56.1110  245.2740 N.3    87  ALA87      -0.1245
     57  CA       100.9810   57.0880  246.3060 C.3    87  ALA87       0.1562
     58  C        100.9980   58.5040  245.7580 C.2    87  ALA87       0.2260
     59  O        100.3000   59.3730  246.2810 O.2    87  ALA87      -0.2867
     60  CB       102.2840   56.7750  247.0210 C.3    87  ALA87       0.0290
     61  N         97.9480   54.7060  254.4210 N.3   110  ALA110     -0.1231
     62  CA        98.8090   53.7080  253.8110 C.3   110  ALA110      0.1694
     63  C         99.7800   53.2390  254.8900 C.2   110  ALA110      0.2592
     64  O         99.7980   53.7890  255.9890 O.2   110  ALA110     -0.2718
     65  CB        99.5730   54.3340  252.6580 C.3   110  ALA110      0.0304
     66  N        100.6060   52.2550  254.5690 N.am  111  THR111     -0.1953
     67  CA       101.5900   51.7280  255.5130 C.3   111  THR111      0.1897
     68  C        102.6750   52.7520  255.8750 C.2   111  THR111      0.2313
     69  O        103.0530   52.8690  257.0410 O.2   111  THR111     -0.2863
     70  CB       102.2540   50.4530  254.9420 C.3   111  THR111      0.1794
     71  OG1      102.7590   50.7360  253.6380 O.3   111  THR111     -0.2208
     72  CG2      101.2240   49.3120  254.8170 C.3   111  THR111      0.0378
     73  N        109.8040   56.9980  252.3310 N.3   117  ARG117     -0.1245
     74  CA       108.4680   57.4030  251.9350 C.3   117  ARG117      0.1563
     75  C        107.9620   58.6000  252.7860 C.2   117  ARG117      0.2260
     76  O        107.3890   59.5510  252.2530 O.2   117  ARG117     -0.2867
     77  CB       107.5000   56.2130  251.9720 C.3   117  ARG117      0.0307
     78  CG       106.0390   56.6220  251.8300 C.3   117  ARG117      0.0489
     79  CD       105.5550   56.7780  250.3890 C.3   117  ARG117      0.2205
     80  NE       104.9270   55.5350  249.9030 N.pl3 117  ARG117     -0.0865
     81  CZ       105.2610   54.8730  248.7880 C.cat 117  ARG117      0.5346
     82  NH1      104.6150   53.7540  248.4850 N.pl3 117  ARG117      0.1354
     83  NH2      106.2120   55.3110  247.9540 N.pl3 117  ARG117      0.1354
     84  N        101.8580   38.5870  253.1930 N.3   174  ARG174     -0.1245
     85  CA       101.8460   39.9750  252.7640 C.3   174  ARG174      0.1563
     86  C        102.3960   40.8890  253.8570 C.2   174  ARG174      0.2260
     87  O        103.1530   41.7970  253.6030 O.2   174  ARG174     -0.2867
     88  CB       100.4120   40.3060  252.4750 C.3   174  ARG174      0.0307
     89  CG       100.1000   41.7150  252.0480 C.3   174  ARG174      0.0489
     90  CD        98.6560   41.6570  251.5800 C.3   174  ARG174      0.2205
     91  NE        98.0850   42.9550  251.3290 N.pl3 174  ARG174     -0.0865
     92  CZ        96.9000   43.1420  250.7790 C.cat 174  ARG174      0.5346
     93  NH1       96.1440   42.1100  250.4030 N.pl3 174  ARG174      0.1354
     94  NH2       96.4910   44.3740  250.5770 N.pl3 174  ARG174      0.1354
     95  N        106.5560   43.4250  254.4480 N.3   178  TYR178     -0.1241
     96  CA       106.8710   44.7810  254.9220 C.3   178  TYR178      0.1605
     97  C        107.8610   44.7760  256.0780 C.2   178  TYR178      0.2264
     98  O        108.3950   45.8140  256.4380 O.2   178  TYR178     -0.2867
     99  CB       105.6000   45.5130  255.3930 C.3   178  TYR178      0.0534
    100  CG       104.6120   45.9040  254.3120 C.ar  178  TYR178     -0.0201
    101  CD1      103.6900   45.0100  253.8430 C.ar  178  TYR178     -0.0009
    102  CD2      104.5950   47.1830  253.7840 C.ar  178  TYR178     -0.0009
    103  CE1      102.7850   45.3590  252.8700 C.ar  178  TYR178      0.0417
    104  CE2      103.7070   47.5340  252.7930 C.ar  178  TYR178      0.0417
    105  CZ       102.7910   46.6250  252.3510 C.ar  178  TYR178      0.1957
    106  OH       101.8600   46.9750  251.3940 O.3   178  TYR178     -0.2866
@<TRIPOS>BOND
     1    26    25    2
     2    25    24    1
     3    15    14    2
     4    45    46    1
     5    14    13    1
     6    14    23   am
     7    24    23    1
     8    24    27    1
     9    13    12    1
    10    13    16    1
    11    46    47    1
    12    46    49    1
    13    17    18    1
    14    17    16    1
    15    27    28    1
    16    47    48    2
    17    18    19    1
    18    28    29    1
    19    56    57    1
    20    49    50    1
    21    50    51    1
    22    21    20    1
    23    58    59    2
    24    58    57    1
    25    19    20    2
    26    29    30    1
    27    51    52    1
    28    57    60    1
    29    20    22    1
    30    11    10    2
    31    34    35    1
    32     4     3    2
    33    30    31    2
    34    10     9    1
    35    52    53    2
    36    35    36    1
    37    35    38    1
    38     6     5    1
    39    83    81    1
    40    36    37    2
    41    54    53    1
    42     3     2    1
    43     3     8   am
    44    44    43   ar
    45    44    42   ar
    46    31    32    1
    47    31    33    1
    48    43    41   ar
    49    42    40   ar
    50    53    55    1
    51    82    81    1
    52     9     8    1
    53    41    39   ar
    54    40    39   ar
    55     2     5    1
    56     2     1    1
    57    39    38    1
    58    81    80    2
    59     5     7    1
    60    80    79    1
    61    79    78    1
    62    93    92    1
    63    94    92    1
    64    92    91    2
    65    91    90    1
    66   106   105    1
    67    90    89    1
    68    78    77    1
    69    74    77    1
    70    74    73    1
    71    74    75    1
    72    89    88    1
    73    76    75    2
    74   105   104   ar
    75   105   103   ar
    76    88    85    1
    77    65    62    1
    78    85    84    1
    79    85    86    1
    80   104   102   ar
    81   103   101   ar
    82    87    86    2
    83    71    70    1
    84   102   100   ar
    85    62    61    1
    86    62    63    1
    87   101   100   ar
    88   100    99    1
    89    95    96    1
    90    66    63   am
    91    66    67    1
    92    72    70    1
    93    63    64    2
    94    96    99    1
    95    96    97    1
    96    70    67    1
    97    67    68    1
    98    68    69    2
    99    97    98    2
