@<TRIPOS>MOLECULE
tmp/6ibzA01.pdb
 213 204 0 0 0
SMALL
GASTEIGER

@<TRIPOS>ATOM
      1  N         97.0700   45.4820  258.7570 N.3    29  ALA29      -0.1231
      2  CA        96.1920   44.9790  259.8260 C.3    29  ALA29       0.1694
      3  C         96.6140   45.4970  261.1940 C.2    29  ALA29       0.2592
      4  O         96.7050   44.7310  262.1490 O.2    29  ALA29      -0.2718
      5  CB        96.1930   43.4690  259.8360 C.3    29  ALA29       0.0304
      6  N         96.9020   46.7950  261.2730 N.am   30  ARG30      -0.1966
      7  CA        97.1630   47.4610  262.5480 C.3    30  ARG30       0.1729
      8  C         96.0880   48.5270  262.8540 C.2    30  ARG30       0.2616
      9  O         96.3050   49.4260  263.6770 O.2    30  ARG30      -0.2715
     10  CB        98.5650   48.1020  262.5300 C.3    30  ARG30       0.0348
     11  CG        99.6370   47.2460  263.1920 C.3    30  ARG30       0.0492
     12  CD        99.8580   45.9190  262.4780 C.3    30  ARG30       0.2205
     13  NE       100.8680   45.1160  263.1580 N.pl3  30  ARG30      -0.0865
     14  CZ       101.1950   43.8670  262.8280 C.cat  30  ARG30       0.5346
     15  NH1      100.6160   43.2560  261.7960 N.pl3  30  ARG30       0.1354
     16  NH2      102.1100   43.2300  263.5350 N.pl3  30  ARG30       0.1354
     17  N         94.9560   48.4500  262.1740 N.am   31  GLY31      -0.1955
     18  CA        93.8670   49.3660  262.4380 C.3    31  GLY31       0.1869
     19  C         94.0050   50.7680  261.8400 C.2    31  GLY31       0.2309
     20  O         93.2310   51.6650  262.1860 O.2    31  GLY31      -0.2863
     21  N         90.7220   51.6320  260.1950 N.3    34  TYR34      -0.1227
     22  CA        89.7360   51.7670  261.2590 C.3    34  TYR34       0.1736
     23  C         89.8340   53.1810  261.8450 C.2    34  TYR34       0.2595
     24  O         88.8650   53.9050  261.8770 O.2    34  TYR34      -0.2718
     25  CB        89.9640   50.7400  262.3700 C.3    34  TYR34       0.0548
     26  CG        88.9760   50.8260  263.5410 C.ar   34  TYR34      -0.0200
     27  CD1       87.7010   50.2770  263.4380 C.ar   34  TYR34      -0.0009
     28  CD2       89.3250   51.4720  264.7540 C.ar   34  TYR34      -0.0009
     29  CE1       86.7890   50.3640  264.4800 C.ar   34  TYR34       0.0417
     30  CE2       88.4260   51.5580  265.8110 C.ar   34  TYR34       0.0417
     31  CZ        87.1530   51.0060  265.6620 C.ar   34  TYR34       0.1957
     32  OH        86.2340   51.0630  266.6830 O.3    34  TYR34      -0.2866
     33  N         91.0260   53.5600  262.2720 N.am   35  ILE35      -0.1980
     34  CA        91.2700   54.8770  262.8110 C.3    35  ILE35       0.1595
     35  C         91.0690   55.9960  261.8000 C.2    35  ILE35       0.2287
     36  O         90.5100   57.0300  262.1410 O.2    35  ILE35      -0.2864
     37  CB        92.6860   54.9700  263.3810 C.3    35  ILE35       0.0276
     38  CG1       92.8370   53.9840  264.5290 C.3    35  ILE35       0.0022
     39  CG2       93.0090   56.3930  263.8190 C.3    35  ILE35       0.0022
     40  CD1       91.8950   54.2560  265.6640 C.3    35  ILE35       0.0001
     41  N        100.4420   59.4880  262.6880 N.3   135  ILE135     -0.1245
     42  CA        99.8070   58.5780  263.6390 C.3   135  ILE135      0.1561
     43  C        100.2380   57.1270  263.3300 C.2   135  ILE135      0.2260
     44  O         99.9070   56.6000  262.2820 O.2   135  ILE135     -0.2867
     45  CB        98.2740   58.6620  263.5150 C.3   135  ILE135      0.0252
     46  CG1       97.7950   60.0590  263.8950 C.3   135  ILE135      0.0019
     47  CG2       97.6190   57.6200  264.3830 C.3   135  ILE135      0.0019
     48  CD1       96.3310   60.3340  263.6480 C.3   135  ILE135      0.0001
     49  N        100.2900   53.0880  264.3560 N.3   137  SER137     -0.1202
     50  CA        99.7040   52.0370  265.1720 C.3   137  SER137      0.2020
     51  C        100.6740   50.8700  265.1940 C.2   137  SER137      0.2619
     52  O        101.1270   50.4150  264.1340 O.2   137  SER137     -0.2717
     53  CB        98.3830   51.6140  264.5780 C.3   137  SER137      0.2103
     54  OG        97.8430   50.5450  265.3030 O.3   137  SER137     -0.2182
     55  N        101.0320   50.4300  266.4010 N.am  138  VAL138     -0.1965
     56  CA       102.0420   49.3790  266.6030 C.3   138  VAL138      0.1727
     57  C        101.3780   48.3070  267.4110 C.2   138  VAL138      0.2616
     58  O        100.8060   48.6060  268.4470 O.2   138  VAL138     -0.2715
     59  CB       103.2930   49.9000  267.3730 C.3   138  VAL138      0.0290
     60  CG1      104.2770   48.7690  267.7460 C.3   138  VAL138      0.0023
     61  CG2      104.0090   50.9570  266.5500 C.3   138  VAL138      0.0023
     62  N        101.4390   47.0660  266.9380 N.am  139  CYS139     -0.1968
     63  CA       100.8450   45.9470  267.6580 C.3   139  CYS139      0.1712
     64  C        101.4960   44.6300  267.3220 C.2   139  CYS139      0.2296
     65  O        101.4960   44.2180  266.1740 O.2   139  CYS139     -0.2864
     66  CB        99.3740   45.8350  267.3330 C.3   139  CYS139      0.0983
     67  SG        98.6090   44.4510  268.1880 S.3   139  CYS139     -0.0798
     68  N         97.0140   37.5960  268.1840 N.3   143  THR143     -0.1203
     69  CA        95.5810   37.4340  268.3470 C.3   143  THR143      0.1994
     70  C         94.8230   38.6320  267.8060 C.2   143  THR143      0.2618
     71  O         93.7450   38.5020  267.2570 O.2   143  THR143     -0.2717
     72  CB        95.2260   37.3190  269.8300 C.3   143  THR143      0.1784
     73  OG1       95.9630   36.2440  270.4030 O.3   143  THR143     -0.2211
     74  CG2       93.7560   37.0570  270.0070 C.3   143  THR143      0.0376
     75  N         95.3790   39.8190  268.0020 N.am  144  VAL144     -0.1965
     76  CA        94.7190   41.0140  267.5290 C.3   144  VAL144      0.1727
     77  C         94.8560   41.0840  266.0140 C.2   144  VAL144      0.2616
     78  O         93.8610   41.2130  265.2900 O.2   144  VAL144     -0.2715
     79  CB        95.3100   42.2690  268.1830 C.3   144  VAL144      0.0290
     80  CG1       94.8290   43.5220  267.4660 C.3   144  VAL144      0.0023
     81  CG2       94.9460   42.3000  269.6640 C.3   144  VAL144      0.0023
     82  N         96.0800   40.9560  265.5270 N.am  145  VAL145     -0.1977
     83  CA        96.2890   40.8950  264.0750 C.3   145  VAL145      0.1596
     84  C         95.3350   39.8890  263.4000 C.2   145  VAL145      0.2287
     85  O         94.6060   40.2400  262.4750 O.2   145  VAL145     -0.2864
     86  CB        97.7430   40.5570  263.7240 C.3   145  VAL145      0.0276
     87  CG1       97.8600   40.1860  262.2450 C.3   145  VAL145      0.0022
     88  CG2       98.6550   41.7270  264.0790 C.3   145  VAL145      0.0022
     89  N         92.5350   38.6360  264.3600 N.3   147  SER147     -0.1202
     90  CA        91.1670   39.0430  264.4740 C.3   147  SER147      0.2020
     91  C         90.8250   40.1370  263.4380 C.2   147  SER147      0.2618
     92  O         89.7630   40.1070  262.8080 O.2   147  SER147     -0.2717
     93  CB        90.9280   39.5230  265.8920 C.3   147  SER147      0.2103
     94  OG        89.6380   40.0260  265.9530 O.3   147  SER147     -0.2182
     95  N         91.7340   41.0810  263.2350 N.am  148  ASN148     -0.1974
     96  CA        91.5060   42.1060  262.2290 C.3   148  ASN148      0.1688
     97  C         91.3950   41.5410  260.8370 C.2   148  ASN148      0.2292
     98  O         90.5650   41.9950  260.0270 O.2   148  ASN148     -0.2864
     99  CB        92.6320   43.1280  262.2100 C.3   148  ASN148      0.1181
    100  CG        92.7530   43.8800  263.5120 C.2   148  ASN148      0.2629
    101  OD1       91.9510   43.6940  264.4440 O.2   148  ASN148     -0.2716
    102  ND2       93.7710   44.7250  263.5980 N.am  148  ASN148     -0.0877
    103  N         88.0360   39.9870  260.3940 N.3   151  GLU151     -0.1231
    104  CA        86.8830   40.8670  260.4190 C.3   151  GLU151      0.1699
    105  C         86.7870   41.7440  259.1770 C.2   151  GLU151      0.2592
    106  O         85.6830   42.0430  258.7440 O.2   151  GLU151     -0.2718
    107  CB        86.8410   41.7140  261.6960 C.3   151  GLU151      0.0402
    108  CG        85.4230   42.1400  262.0820 C.3   151  GLU151      0.1161
    109  CD        85.3090   42.7490  263.4830 C.2   151  GLU151      0.3649
    110  OE1       86.2480   42.5730  264.2950 O.co2 151  GLU151     -0.2457
    111  OE2       84.2700   43.4110  263.7680 O.co2 151  GLU151     -0.2457
    112  N         87.9060   42.1560  258.5790 N.am  152  VAL152     -0.1980
    113  CA        87.7990   43.0650  257.4220 C.3   152  VAL152      0.1595
    114  C         88.6830   42.7910  256.2070 C.2   152  VAL152      0.2287
    115  O         88.3820   43.2970  255.1190 O.2   152  VAL152     -0.2864
    116  CB        88.0090   44.5420  257.8310 C.3   152  VAL152      0.0276
    117  CG1       86.8180   45.0180  258.6420 C.3   152  VAL152      0.0022
    118  CG2       89.3220   44.7430  258.5990 C.3   152  VAL152      0.0022
    119  N        100.8240   54.9750  268.8200 N.3   199  VAL199     -0.1245
    120  CA        99.8840   54.2320  269.6160 C.3   199  VAL199      0.1561
    121  C        100.3320   52.7930  269.7700 C.2   199  VAL199      0.2260
    122  O        100.6190   52.1050  268.7930 O.2   199  VAL199     -0.2867
    123  CB        98.5090   54.1720  268.9560 C.3   199  VAL199      0.0252
    124  CG1       97.5310   53.3990  269.8390 C.3   199  VAL199      0.0019
    125  CG2       97.9660   55.5640  268.6920 C.3   199  VAL199      0.0019
    126  N         96.7640   48.8550  270.8240 N.3   202  VAL202     -0.1231
    127  CA        95.3220   49.1080  270.7020 C.3   202  VAL202      0.1692
    128  C         94.8760   50.2050  271.6690 C.2   202  VAL202      0.2592
    129  O         93.8150   50.1390  272.2840 O.2   202  VAL202     -0.2718
    130  CB        94.4770   47.8220  270.9360 C.3   202  VAL202      0.0266
    131  CG1       93.1130   47.9410  270.2740 C.3   202  VAL202      0.0020
    132  CG2       95.1970   46.5860  270.4080 C.3   202  VAL202      0.0020
    133  N         95.7040   51.2260  271.7910 N.am  203  GLY203     -0.1957
    134  CA        95.3890   52.3480  272.6630 C.3   203  GLY203      0.1869
    135  C         95.7550   52.1490  274.1220 C.2   203  GLY203      0.2309
    136  O         95.3480   52.9320  274.9530 O.2   203  GLY203     -0.2863
    137  N        100.4630   55.5830  274.5650 N.3   206  PHE206     -0.1241
    138  CA       100.7020   56.5350  273.5300 C.3   206  PHE206      0.1605
    139  C        101.9840   57.2760  273.8240 C.2   206  PHE206      0.2264
    140  O        102.3060   57.5510  274.9730 O.2   206  PHE206     -0.2867
    141  CB        99.6130   57.5890  273.5260 C.3   206  PHE206      0.0534
    142  CG        98.2260   57.0420  273.4800 C.ar  206  PHE206     -0.0203
    143  CD1       97.6010   56.6260  274.6380 C.ar  206  PHE206     -0.0042
    144  CD2       97.5210   57.0060  272.2960 C.ar  206  PHE206     -0.0042
    145  CE1       96.2980   56.1510  274.6150 C.ar  206  PHE206     -0.0003
    146  CE2       96.2240   56.5330  272.2620 C.ar  206  PHE206     -0.0003
    147  CZ        95.6070   56.1010  273.4250 C.ar  206  PHE206     -0.0000
    148  N         91.4780   59.9780  270.4760 N.3   223  LEU223     -0.1245
    149  CA        92.0950   58.6520  270.4530 C.3   223  LEU223      0.1561
    150  C         92.2410   58.0850  271.8510 C.2   223  LEU223      0.2260
    151  O         92.2550   56.8780  272.0320 O.2   223  LEU223     -0.2867
    152  CB        93.4380   58.6990  269.7630 C.3   223  LEU223      0.0270
    153  CG        93.3390   58.9950  268.2660 C.3   223  LEU223      0.0019
    154  CD1       94.7100   59.1200  267.6180 C.3   223  LEU223      0.0001
    155  CD2       92.5090   57.9230  267.5610 C.3   223  LEU223      0.0001
    156  N         88.4090   56.5840  272.7980 N.3   226  ILE226     -0.1231
    157  CA        87.7740   55.5020  272.0550 C.3   226  ILE226      0.1692
    158  C         88.3170   54.1440  272.4820 C.2   226  ILE226      0.2592
    159  O         89.4300   54.0380  272.9940 O.2   226  ILE226     -0.2718
    160  CB        87.9020   55.7050  270.5420 C.3   226  ILE226      0.0266
    161  CG1       89.3440   55.5050  270.0800 C.3   226  ILE226      0.0019
    162  CG2       87.3930   57.0880  270.1580 C.3   226  ILE226      0.0020
    163  CD1       89.4880   55.5840  268.5820 C.3   226  ILE226      0.0001
    164  N         87.5200   53.1020  272.3050 N.am  227  HIS227     -0.1962
    165  CA        87.9530   51.7630  272.6820 C.3   227  HIS227      0.1787
    166  C         87.2900   50.7710  271.7230 C.2   227  HIS227      0.2620
    167  O         86.3690   51.1320  271.0010 O.2   227  HIS227     -0.2715
    168  CB        87.5430   51.4760  274.1260 C.3   227  HIS227      0.0785
    169  CG        86.0600   51.4240  274.3150 C.ar  227  HIS227      0.0821
    170  ND1       85.3030   50.3200  273.9860 N.ar  227  HIS227     -0.2267
    171  CD2       85.1850   52.3560  274.7610 C.ar  227  HIS227      0.1154
    172  CE1       84.0330   50.5630  274.2460 C.ar  227  HIS227      0.1986
    173  NE2       83.9350   51.7870  274.7260 N.ar  227  HIS227     -0.2212
    174  N         87.7500   49.5250  271.7450 N.am  228  VAL228     -0.1963
    175  CA        87.3310   48.5090  270.7700 C.3   228  VAL228      0.1727
    176  C         86.5390   47.3580  271.4020 C.2   228  VAL228      0.2616
    177  O         86.2790   46.3530  270.7510 O.2   228  VAL228     -0.2715
    178  CB        88.5630   47.9070  270.0650 C.3   228  VAL228      0.0290
    179  CG1       89.2820   48.9800  269.2750 C.3   228  VAL228      0.0023
    180  CG2       89.5220   47.2680  271.0740 C.3   228  VAL228      0.0023
    181  N         86.1860   47.5000  272.6730 N.am  229  GLN229     -0.1977
    182  CA        85.3400   46.5370  273.3570 C.3   229  GLN229      0.1601
    183  C         83.9570   46.5130  272.7250 C.2   229  GLN229      0.2287
    184  O         83.4520   47.5500  272.2920 O.2   229  GLN229     -0.2864
    185  CB        85.1940   46.8860  274.8450 C.3   229  GLN229      0.0394
    186  CG        86.4930   46.9050  275.6310 C.3   229  GLN229      0.0908
    187  CD        87.3540   45.7100  275.2960 C.2   229  GLN229      0.2608
    188  OE1       86.9010   44.5760  275.4020 O.2   229  GLN229     -0.2717
    189  NE2       88.5870   45.9560  274.8480 N.am  229  GLN229     -0.0878
    190  N         80.3000   47.8080  264.2240 N.3   407  VAL407     -0.1231
    191  CA        80.8970   46.6250  263.6420 C.3   407  VAL407      0.1692
    192  C         81.8920   47.0340  262.5730 C.2   407  VAL407      0.2592
    193  O         81.5370   47.1540  261.4100 O.2   407  VAL407     -0.2718
    194  CB        79.8510   45.6560  263.0390 C.3   407  VAL407      0.0266
    195  CG1       78.9710   45.0800  264.1390 C.3   407  VAL407      0.0020
    196  CG2       79.0020   46.3250  261.9560 C.3   407  VAL407      0.0020
    197  N         83.1230   47.3060  262.9980 N.am  408  ALA408     -0.1966
    198  CA        84.2770   47.3570  262.1000 C.3   408  ALA408      0.1728
    199  C         84.0820   48.2250  260.8600 C.2   408  ALA408      0.2616
    200  O         83.6190   47.7330  259.8320 O.2   408  ALA408     -0.2715
    201  CB        84.6170   45.9370  261.6730 C.3   408  ALA408      0.0334
    202  N         84.4620   49.4920  260.9510 N.am  409  TYR409     -0.1974
    203  CA        84.3230   50.4780  259.8370 C.3   409  TYR409      0.1639
    204  C         82.9220   51.0990  259.7190 C.2   409  TYR409      0.2290
    205  O         82.7610   52.1360  259.0840 O.2   409  TYR409     -0.2864
    206  CB        84.7010   49.8980  258.4590 C.3   409  TYR409      0.0560
    207  CG        86.1430   49.4260  258.3080 C.ar  409  TYR409     -0.0198
    208  CD1       87.0310   49.4610  259.3780 C.ar  409  TYR409     -0.0009
    209  CD2       86.6030   48.9060  257.0960 C.ar  409  TYR409     -0.0009
    210  CE1       88.3240   49.0000  259.2520 C.ar  409  TYR409      0.0417
    211  CE2       87.9100   48.4660  256.9630 C.ar  409  TYR409      0.0417
    212  CZ        88.7650   48.5120  258.0500 C.ar  409  TYR409      0.1957
    213  OH        90.0640   48.0800  257.9690 O.3   409  TYR409     -0.2866
@<TRIPOS>BOND
     1   115   114    2
     2   114   113    1
     3   211   209   ar
     4   211   212   ar
     5   209   207   ar
     6   113   116    1
     7   113   112    1
     8   116   118    1
     9   116   117    1
    10   213   212    1
    11   212   210   ar
    12   207   206    1
    13   207   208   ar
    14   206   203    1
    15   112   105   am
    16   106   105    2
    17     1     2    1
    18   205   204    2
    19   105   104    1
    20   210   208   ar
    21   204   203    1
    22     2     5    1
    23     2     3    1
    24   200   199    2
    25   203   202    1
    26    98    97    2
    27    21    22    1
    28   103   104    1
    29   104   107    1
    30    97    96    1
    31   199   202   am
    32   199   198    1
    33     3     6   am
    34     3     4    2
    35    22    23    1
    36    22    25    1
    37     6     7    1
    38   193   192    2
    39   201   198    1
    40   107   108    1
    41    15    14    1
    42    35    36    2
    43    35    34    1
    44    19    20    2
    45    19    18    1
    46    23    24    2
    47    23    33   am
    48   196   194    1
    49   108   109    1
    50   198   197    1
    51    17    18    1
    52    17     8   am
    53    99    96    1
    54    99   100    1
    55    96    95    1
    56    87    86    1
    57    33    34    1
    58    44    43    2
    59    25    26    1
    60    85    84    2
    61    12    13    1
    62    12    11    1
    63    10     7    1
    64    10    11    1
    65     7     8    1
    66   192   197   am
    67   192   191    1
    68    41    42    1
    69    92    91    2
    70    34    37    1
    71    14    13    2
    72    14    16    1
    73     8     9    2
    74   194   191    1
    75   194   195    1
    76    95    91   am
    77    43    42    1
    78    37    39    1
    79    37    38    1
    80    84    83    1
    81    27    26   ar
    82    27    29   ar
    83    91    90    1
    84   109   111   ar
    85   109   110   ar
    86   100   102   am
    87   100   101    2
    88    45    42    1
    89    45    46    1
    90    45    47    1
    91    26    28   ar
    92   191   190    1
    93    48    46    1
    94    86    83    1
    95    86    88    1
    96    83    82    1
    97    52    51    2
    98    49    50    1
    99    89    90    1
   100    90    93    1
   101    29    31   ar
   102    38    40    1
   103    53    50    1
   104    53    54    1
   105    28    30   ar
   106    50    51    1
   107    51    55   am
   108    78    77    2
   109    82    77   am
   110    31    30   ar
   111    31    32    1
   112    93    94    1
   113    77    76    1
   114    65    64    2
   115    55    56    1
   116    61    59    1
   117    56    59    1
   118    56    57    1
   119    62    57   am
   120    62    63    1
   121    71    70    2
   122    64    63    1
   123    66    63    1
   124    66    67    1
   125    59    60    1
   126    57    58    2
   127    80    79    1
   128    76    75    1
   129    76    79    1
   130   155   153    1
   131   154   153    1
   132    70    75   am
   133    70    69    1
   134    79    81    1
   135    68    69    1
   136   153   152    1
   137    69    72    1
   138   163   161    1
   139   125   123    1
   140   122   121    2
   141   119   120    1
   142   123   120    1
   143   123   124    1
   144   179   178    1
   145   120   121    1
   146   152   149    1
   147    72    74    1
   148    72    73    1
   149   178   175    1
   150   178   180    1
   151   161   160    1
   152   162   160    1
   153   131   130    1
   154   132   130    1
   155   149   148    1
   156   149   150    1
   157   160   157    1
   158   127   126    1
   159   127   130    1
   160   127   128    1
   161   177   176    2
   162   175   176    1
   163   175   174    1
   164   167   166    2
   165   176   181   am
   166   128   133   am
   167   128   129    2
   168   166   174   am
   169   166   165    1
   170   133   134    1
   171   150   151    2
   172   157   158    1
   173   157   156    1
   174   146   144   ar
   175   146   147   ar
   176   184   183    2
   177   144   142   ar
   178   164   158   am
   179   164   165    1
   180   158   159    2
   181   134   135    1
   182   181   182    1
   183   165   168    1
   184   183   182    1
   185   182   185    1
   186   147   145   ar
   187   142   141    1
   188   142   143   ar
   189   141   138    1
   190   138   139    1
   191   138   137    1
   192   139   140    2
   193   170   172   ar
   194   170   169   ar
   195   135   136    2
   196   168   169    1
   197   172   173   ar
   198   169   171   ar
   199   145   143   ar
   200   173   171   ar
   201   185   186    1
   202   189   187   am
   203   187   188    2
   204   187   186    1
