@<TRIPOS>MOLECULE
tmp/6ic0A00.pdb
 207 199 0 0 0
SMALL
GASTEIGER

@<TRIPOS>ATOM
      1  N        146.5520  -43.4240  256.4000 N.3    27  ALA27      -0.1231
      2  CA       145.7250  -44.0240  257.4280 C.3    27  ALA27       0.1694
      3  C        146.0830  -43.4710  258.7840 C.2    27  ALA27       0.2592
      4  O        146.1540  -44.2240  259.7570 O.2    27  ALA27      -0.2718
      5  CB       145.8760  -45.5420  257.4270 C.3    27  ALA27       0.0304
      6  N        146.3230  -42.1630  258.8440 N.am   28  ARG28      -0.1966
      7  CA       146.5550  -41.4930  260.1260 C.3    28  ARG28       0.1729
      8  C        145.5070  -40.4260  260.4410 C.2    28  ARG28       0.2616
      9  O        145.7890  -39.5170  261.2370 O.2    28  ARG28      -0.2715
     10  CB       147.9490  -40.8690  260.1560 C.3    28  ARG28       0.0348
     11  CG       148.9940  -41.7140  260.8420 C.3    28  ARG28       0.0492
     12  CD       149.1530  -43.0910  260.2130 C.3    28  ARG28       0.2205
     13  NE       150.2580  -43.8280  260.8380 N.pl3  28  ARG28      -0.0865
     14  CZ       150.7210  -45.0020  260.4080 C.cat  28  ARG28       0.5346
     15  NH1      150.1820  -45.5910  259.3490 N.pl3  28  ARG28       0.1354
     16  NH2      151.7180  -45.5910  261.0510 N.pl3  28  ARG28       0.1354
     17  N        144.3430  -40.5130  259.7840 N.am   29  GLY29      -0.1955
     18  CA       143.2730  -39.5920  260.0440 C.3    29  GLY29       0.1869
     19  C        143.4410  -38.1900  259.4850 C.2    29  GLY29       0.2309
     20  O        142.6590  -37.2940  259.8150 O.2    29  GLY29      -0.2863
     21  N        140.2460  -37.2160  257.6190 N.3    32  TYR32      -0.1227
     22  CA       139.2040  -37.1190  258.6120 C.3    32  TYR32       0.1736
     23  C        139.3020  -35.7700  259.2640 C.2    32  TYR32       0.2595
     24  O        138.3130  -35.0420  259.2760 O.2    32  TYR32      -0.2718
     25  CB       139.3270  -38.2330  259.6630 C.3    32  TYR32       0.0548
     26  CG       138.3830  -38.0580  260.8330 C.ar   32  TYR32      -0.0200
     27  CD1      137.1020  -38.5990  260.8070 C.ar   32  TYR32      -0.0009
     28  CD2      138.7800  -37.3580  261.9790 C.ar   32  TYR32      -0.0009
     29  CE1      136.2490  -38.4280  261.8590 C.ar   32  TYR32       0.0417
     30  CE2      137.9200  -37.1990  263.0610 C.ar   32  TYR32       0.0417
     31  CZ       136.6530  -37.7180  262.9710 C.ar   32  TYR32       0.1957
     32  OH       135.7850  -37.5700  264.0060 O.3    32  TYR32      -0.2866
     33  N        140.4940  -35.4390  259.7500 N.am   33  ILE33      -0.1980
     34  CA       140.7240  -34.1590  260.3840 C.3    33  ILE33       0.1595
     35  C        140.5380  -32.9750  259.4400 C.2    33  ILE33       0.2287
     36  O        140.0300  -31.9620  259.8340 O.2    33  ILE33      -0.2864
     37  CB       142.1110  -34.0540  261.0640 C.3    33  ILE33       0.0276
     38  CG1      142.0220  -34.1670  262.5800 C.3    33  ILE33       0.0022
     39  CG2      142.6720  -32.6500  260.9100 C.3    33  ILE33       0.0022
     40  CD1      141.4300  -35.4140  263.1510 C.3    33  ILE33       0.0001
     41  N        149.8750  -29.4360  260.2770 N.3   133  ILE133     -0.1245
     42  CA       149.2540  -30.3220  261.2210 C.3   133  ILE133      0.1561
     43  C        149.6970  -31.7630  260.8800 C.2   133  ILE133      0.2260
     44  O        149.3620  -32.2860  259.8390 O.2   133  ILE133     -0.2867
     45  CB       147.7290  -30.1970  261.1270 C.3   133  ILE133      0.0252
     46  CG1      147.3280  -28.7260  261.2420 C.3   133  ILE133      0.0019
     47  CG2      147.0500  -31.0380  262.1910 C.3   133  ILE133      0.0019
     48  CD1      145.8450  -28.4760  261.1970 C.3   133  ILE133      0.0001
     49  N        149.8110  -35.7380  262.0120 N.3   135  SER135     -0.1202
     50  CA       149.2270  -36.7560  262.8300 C.3   135  SER135      0.2020
     51  C        150.1480  -37.9530  262.8810 C.2   135  SER135      0.2619
     52  O        150.3860  -38.5810  261.8860 O.2   135  SER135     -0.2717
     53  CB       147.9070  -37.1680  262.2210 C.3   135  SER135      0.2103
     54  OG       147.3320  -38.2060  262.9740 O.3   135  SER135     -0.2182
     55  N        150.6680  -38.2670  264.0520 N.am  136  VAL136     -0.1965
     56  CA       151.5790  -39.3830  264.2600 C.3   136  VAL136      0.1727
     57  C        150.9240  -40.4120  265.1620 C.2   136  VAL136      0.2616
     58  O        150.4680  -40.0860  266.2560 O.2   136  VAL136     -0.2715
     59  CB       152.8960  -38.8900  264.9050 C.3   136  VAL136      0.0290
     60  CG1      153.8140  -40.0400  265.2860 C.3   136  VAL136      0.0023
     61  CG2      153.6240  -37.9460  263.9470 C.3   136  VAL136      0.0023
     62  N        150.8900  -41.6540  264.6930 N.am  137  CYS137     -0.1968
     63  CA       150.4500  -42.8120  265.4790 C.3   137  CYS137      0.1712
     64  C        150.9270  -44.1030  264.8290 C.2   137  CYS137      0.2296
     65  O        150.6800  -44.3370  263.6450 O.2   137  CYS137     -0.2864
     66  CB       148.9410  -42.8520  265.5810 C.3   137  CYS137      0.0983
     67  SG       148.3380  -44.1680  266.6610 S.3   137  CYS137     -0.0798
     68  N        144.8920  -49.0320  265.5480 N.3   142  VAL142     -0.1231
     69  CA       144.3080  -47.7840  265.1120 C.3   142  VAL142      0.1692
     70  C        144.3270  -47.7160  263.5820 C.2   142  VAL142      0.2591
     71  O        143.2950  -47.3820  262.9360 O.2   142  VAL142     -0.2718
     72  CB       145.0670  -46.5720  265.7070 C.3   142  VAL142      0.0266
     73  CG1      144.5700  -45.2510  265.1070 C.3   142  VAL142      0.0020
     74  CG2      144.9740  -46.5640  267.2230 C.3   142  VAL142      0.0020
     75  N        145.5000  -48.0110  263.0230 N.am  143  VAL143     -0.1980
     76  CA       145.6870  -48.0090  261.5780 C.3   143  VAL143      0.1595
     77  C        144.7220  -49.0030  260.9030 C.2   143  VAL143      0.2287
     78  O        144.0580  -48.6800  259.9080 O.2   143  VAL143     -0.2864
     79  CB       147.1540  -48.3210  261.2090 C.3   143  VAL143      0.0276
     80  CG1      147.3000  -48.5930  259.7170 C.3   143  VAL143      0.0022
     81  CG2      148.0730  -47.1640  261.6170 C.3   143  VAL143      0.0022
     82  N        141.3250  -47.7960  260.8480 N.3   146  ASN146     -0.1240
     83  CA       141.1300  -46.7570  259.8570 C.3   146  ASN146      0.1653
     84  C        140.9390  -47.3360  258.5040 C.2   146  ASN146      0.2266
     85  O        140.0360  -46.9370  257.7730 O.2   146  ASN146     -0.2867
     86  CB       142.2720  -45.7410  259.8360 C.3   146  ASN146      0.1155
     87  CG       142.3360  -44.9330  261.1170 C.2   146  ASN146      0.2627
     88  OD1      141.3370  -44.7620  261.8240 O.2   146  ASN146     -0.2716
     89  ND2      143.5130  -44.4750  261.4390 N.am  146  ASN146     -0.0877
     90  N        137.4350  -48.7310  258.3320 N.3   149  GLU149     -0.1231
     91  CA       136.3250  -47.7490  258.3060 C.3   149  GLU149      0.1699
     92  C        136.2230  -46.9820  257.0050 C.2   149  GLU149      0.2592
     93  O        135.1040  -46.6890  256.5770 O.2   149  GLU149     -0.2718
     94  CB       136.4090  -46.7150  259.4390 C.3   149  GLU149      0.0402
     95  CG       135.7360  -47.0560  260.7540 C.3   149  GLU149      0.1161
     96  CD       135.7330  -45.8390  261.6760 C.2   149  GLU149      0.3649
     97  OE1      136.6440  -45.7510  262.5500 O.co2 149  GLU149     -0.2457
     98  OE2      134.8520  -44.9480  261.4930 O.co2 149  GLU149     -0.2457
     99  N        137.3610  -46.6160  256.3940 N.am  150  VAL150     -0.1980
    100  CA       137.3230  -45.6990  255.2210 C.3   150  VAL150      0.1595
    101  C        138.1930  -45.9920  253.9960 C.2   150  VAL150      0.2287
    102  O        138.0090  -45.3690  252.9410 O.2   150  VAL150     -0.2864
    103  CB       137.6700  -44.2580  255.6310 C.3   150  VAL150      0.0276
    104  CG1      136.5500  -43.6680  256.4910 C.3   150  VAL150      0.0022
    105  CG2      139.0490  -44.1910  256.3060 C.3   150  VAL150      0.0022
    106  N        150.3890  -33.9160  266.4070 N.3   197  VAL197     -0.1245
    107  CA       149.4670  -34.6800  267.2230 C.3   197  VAL197      0.1561
    108  C        149.8720  -36.1310  267.2680 C.2   197  VAL197      0.2260
    109  O        150.0700  -36.7500  266.2310 O.2   197  VAL197     -0.2867
    110  CB       148.0330  -34.6670  266.6870 C.3   197  VAL197      0.0252
    111  CG1      147.1030  -35.2390  267.7490 C.3   197  VAL197      0.0019
    112  CG2      147.5970  -33.2630  266.3210 C.3   197  VAL197      0.0019
    113  N        146.2150  -39.8550  268.3830 N.3   200  VAL200     -0.1231
    114  CA       144.7830  -39.6000  268.3380 C.3   200  VAL200      0.1692
    115  C        144.3970  -38.5270  269.3680 C.2   200  VAL200      0.2592
    116  O        143.3970  -38.6090  270.0480 O.2   200  VAL200     -0.2718
    117  CB       143.9420  -40.8990  268.5010 C.3   200  VAL200      0.0266
    118  CG1      142.6200  -40.7570  267.8060 C.3   200  VAL200      0.0020
    119  CG2      144.6250  -42.1070  267.8780 C.3   200  VAL200      0.0020
    120  N        145.2180  -37.5030  269.4510 N.am  201  GLY201     -0.1957
    121  CA       144.9750  -36.3850  270.3420 C.3   201  GLY201      0.1869
    122  C        145.3540  -36.6280  271.7990 C.2   201  GLY201      0.2309
    123  O        144.8580  -35.9440  272.6400 O.2   201  GLY201     -0.2863
    124  N        150.2460  -33.3490  272.2960 N.3   204  PHE204     -0.1241
    125  CA       150.3170  -32.3210  271.2420 C.3   204  PHE204      0.1605
    126  C        151.5590  -31.5260  271.3670 C.2   204  PHE204      0.2264
    127  O        152.0200  -31.2360  272.4760 O.2   204  PHE204     -0.2867
    128  CB       149.2660  -31.2500  271.3970 C.3   204  PHE204      0.0534
    129  CG       147.8810  -31.7480  271.3240 C.ar  204  PHE204     -0.0203
    130  CD1      147.2630  -32.2600  272.4510 C.ar  204  PHE204     -0.0042
    131  CD2      147.1850  -31.6930  270.1470 C.ar  204  PHE204     -0.0042
    132  CE1      145.9770  -32.7290  272.3980 C.ar  204  PHE204     -0.0003
    133  CE2      145.8950  -32.1610  270.0840 C.ar  204  PHE204     -0.0003
    134  CZ       145.2930  -32.6890  271.2080 C.ar  204  PHE204     -0.0000
    135  N        140.9740  -28.7660  268.1210 N.3   221  LEU221     -0.1245
    136  CA       141.5570  -30.0960  268.1600 C.3   221  LEU221      0.1561
    137  C        141.7130  -30.5990  269.5690 C.2   221  LEU221      0.2260
    138  O        141.6750  -31.8030  269.7740 O.2   221  LEU221     -0.2867
    139  CB       142.8930  -30.1640  267.4640 C.3   221  LEU221      0.0270
    140  CG       142.8830  -29.8900  265.9660 C.3   221  LEU221      0.0019
    141  CD1      144.3020  -29.8720  265.4340 C.3   221  LEU221      0.0001
    142  CD2      142.0670  -30.9140  265.2180 C.3   221  LEU221      0.0001
    143  N        137.9100  -32.1120  270.4190 N.3   224  ILE224     -0.1231
    144  CA       137.3060  -33.2540  269.7650 C.3   224  ILE224      0.1692
    145  C        137.8740  -34.5910  270.1940 C.2   224  ILE224      0.2592
    146  O        138.9710  -34.6810  270.7120 O.2   224  ILE224     -0.2718
    147  CB       137.3830  -33.1500  268.2630 C.3   224  ILE224      0.0266
    148  CG1      138.8240  -33.1180  267.7710 C.3   224  ILE224      0.0019
    149  CG2      136.6300  -31.9220  267.7850 C.3   224  ILE224      0.0020
    150  CD1      138.9180  -33.4830  266.2980 C.3   224  ILE224      0.0001
    151  N        137.0970  -35.6280  269.9900 N.am  225  HIS225     -0.1962
    152  CA       137.5300  -36.9750  270.2510 C.3   225  HIS225      0.1787
    153  C        136.8700  -37.9290  269.2080 C.2   225  HIS225      0.2620
    154  O        136.0650  -37.4970  268.3580 O.2   225  HIS225     -0.2715
    155  CB       137.1720  -37.3570  271.6810 C.3   225  HIS225      0.0785
    156  CG       135.7000  -37.4290  271.9340 C.ar  225  HIS225      0.0821
    157  ND1      134.9110  -38.4590  271.4720 N.ar  225  HIS225     -0.2267
    158  CD2      134.8700  -36.5930  272.5940 C.ar  225  HIS225      0.1154
    159  CE1      133.6630  -38.2650  271.8450 C.ar  225  HIS225      0.1986
    160  NE2      133.6060  -37.1330  272.5140 N.ar  225  HIS225     -0.2212
    161  N        137.2150  -39.2100  269.2810 N.am  226  VAL226     -0.1963
    162  CA       136.7160  -40.2010  268.3440 C.3   226  VAL226      0.1727
    163  C        136.0420  -41.3920  269.0360 C.2   226  VAL226      0.2616
    164  O        135.8490  -42.4470  268.4180 O.2   226  VAL226     -0.2715
    165  CB       137.8680  -40.7170  267.4460 C.3   226  VAL226      0.0290
    166  CG1      138.5550  -39.5770  266.7370 C.3   226  VAL226      0.0023
    167  CG2      138.9030  -41.4950  268.2660 C.3   226  VAL226      0.0023
    168  N        135.7520  -41.2460  270.3210 N.am  227  GLN227     -0.1964
    169  CA       134.9890  -42.2400  271.0700 C.3   227  GLN227      0.1718
    170  C        133.5750  -42.3740  270.4870 C.2   227  GLN227      0.2458
    171  O        133.0140  -41.4010  269.9870 O.2   227  GLN227     -0.2730
    172  CB       134.9430  -41.8880  272.5670 C.3   227  GLN227      0.0407
    173  CG       136.2750  -41.9920  273.2820 C.3   227  GLN227      0.0908
    174  CD       137.0460  -43.2270  272.8310 C.2   227  GLN227      0.2608
    175  OE1      136.5580  -44.3550  272.9810 O.2   227  GLN227     -0.2717
    176  NE2      138.2340  -43.0270  272.2320 N.am  227  GLN227     -0.0878
    177  N        133.0160  -43.6010  270.4930 N.am  228  PRO228     -0.2727
    178  CA       131.6290  -43.7390  270.0010 C.3   228  PRO228      0.1402
    179  C        130.6510  -42.9900  270.8890 C.2   228  PRO228      0.2269
    180  O        130.8600  -42.9030  272.0860 O.2   228  PRO228     -0.2865
    181  CB       131.3680  -45.2560  270.0700 C.3   228  PRO228      0.0296
    182  CG       132.7360  -45.8680  269.9400 C.3   228  PRO228      0.0237
    183  CD       133.6730  -44.9150  270.6600 C.3   228  PRO228      0.0939
    184  N        128.2890  -40.7570  264.5660 N.3   404  PRO404     -0.2116
    185  CA       129.4130  -40.5880  263.6740 C.3   404  PRO404      0.1372
    186  C        129.6420  -41.8870  262.8880 C.2   404  PRO404      0.2244
    187  O        129.6030  -42.9710  263.4610 O.2   404  PRO404     -0.2868
    188  CB       130.5560  -40.3170  264.6480 C.3   404  PRO404      0.0268
    189  CG       130.2290  -41.1870  265.8190 C.3   404  PRO404      0.0207
    190  CD       128.7220  -41.2080  265.9040 C.3   404  PRO404      0.0892
    191  N        132.3230  -43.2770  259.8950 N.3   406  ALA406     -0.1231
    192  CA       133.3830  -43.0710  258.9200 C.3   406  ALA406      0.1694
    193  C        133.8530  -41.5910  259.0030 C.2   406  ALA406      0.2592
    194  O        134.2620  -41.1400  260.0810 O.2   406  ALA406     -0.2718
    195  CB       132.8700  -43.4580  257.5250 C.3   406  ALA406      0.0304
    196  N        133.7200  -40.8470  257.9120 N.am  407  TYR407     -0.1976
    197  CA       134.1890  -39.4730  257.8170 C.3   407  TYR407      0.1639
    198  C        133.1990  -38.4030  258.3360 C.2   407  TYR407      0.2290
    199  O        133.6240  -37.2790  258.5480 O.2   407  TYR407     -0.2864
    200  CB       134.5690  -39.1160  256.3420 C.3   407  TYR407      0.0560
    201  CG       135.9050  -39.6450  255.8480 C.ar  407  TYR407     -0.0198
    202  CD1      137.0520  -39.6270  256.6690 C.ar  407  TYR407     -0.0009
    203  CD2      136.0440  -40.1440  254.5430 C.ar  407  TYR407     -0.0009
    204  CE1      138.2800  -40.0960  256.2070 C.ar  407  TYR407      0.0417
    205  CE2      137.2740  -40.6220  254.0790 C.ar  407  TYR407      0.0417
    206  CZ       138.3880  -40.5800  254.9010 C.ar  407  TYR407      0.1957
    207  OH       139.6030  -41.0510  254.4550 O.3   407  TYR407     -0.2866
@<TRIPOS>BOND
     1   102   101    2
     2   101   100    1
     3   205   203   ar
     4   205   206   ar
     5   207   206    1
     6   203   201   ar
     7   206   204   ar
     8   100   103    1
     9   100    99    1
    10   103   105    1
    11   103   104    1
    12   201   200    1
    13   201   202   ar
    14   204   202   ar
    15   200   197    1
    16    99    92   am
    17     1     2    1
    18    93    92    2
    19    92    91    1
    20     5     2    1
    21     2     3    1
    22   195   192    1
    23    21    22    1
    24    85    84    2
    25   197   196    1
    26   197   198    1
    27   196   193   am
    28    91    90    1
    29    91    94    1
    30   198   199    2
    31    84    83    1
    32    22    23    1
    33    22    25    1
    34     3     6   am
    35     3     4    2
    36     6     7    1
    37   192   193    1
    38   192   191    1
    39   193   194    2
    40    23    24    2
    41    23    33   am
    42    15    14    1
    43    94    95    1
    44    35    36    2
    45    35    34    1
    46    19    20    2
    47    19    18    1
    48    25    26    1
    49    80    79    1
    50    33    34    1
    51    17    18    1
    52    17     8   am
    53    86    83    1
    54    86    87    1
    55    44    43    2
    56    83    82    1
    57    78    77    2
    58     7    10    1
    59     7     8    1
    60    10    11    1
    61    12    13    1
    62    12    11    1
    63    41    42    1
    64    34    37    1
    65    14    13    2
    66    14    16    1
    67     8     9    2
    68    95    96    1
    69    27    26   ar
    70    27    29   ar
    71    26    28   ar
    72    43    42    1
    73    77    76    1
    74    39    37    1
    75    37    38    1
    76    87    89   am
    77    87    88    2
    78    45    42    1
    79    45    46    1
    80    45    47    1
    81    48    46    1
    82    79    76    1
    83    79    81    1
    84    98    96   ar
    85    76    75    1
    86    96    97   ar
    87    29    31   ar
    88    52    51    2
    89    28    30   ar
    90    49    50    1
    91    53    50    1
    92    53    54    1
    93    38    40    1
    94    50    51    1
    95    51    55   am
    96   186   187    2
    97   186   185    1
    98    71    70    2
    99    31    30   ar
   100    31    32    1
   101    75    70   am
   102    70    69    1
   103    65    64    2
   104   185   184    1
   105   185   188    1
   106    61    59    1
   107    55    56    1
   108    56    59    1
   109    56    57    1
   110   184   190    1
   111   188   189    1
   112    62    57   am
   113    62    63    1
   114    64    63    1
   115    59    60    1
   116    73    72    1
   117    69    68    1
   118    69    72    1
   119    57    58    2
   120   142   140    1
   121   141   140    1
   122    63    66    1
   123    66    67    1
   124    72    74    1
   125   189   190    1
   126   140   139    1
   127   109   108    2
   128   150   148    1
   129   112   110    1
   130   106   107    1
   131   110   107    1
   132   110   111    1
   133   166   165    1
   134   107   108    1
   135   165   167    1
   136   165   162    1
   137   139   136    1
   138   148   147    1
   139   149   147    1
   140   118   117    1
   141   119   117    1
   142   135   136    1
   143   136   137    1
   144   147   144    1
   145   114   113    1
   146   114   117    1
   147   114   115    1
   148   162   163    1
   149   162   161    1
   150   154   153    2
   151   164   163    2
   152   163   168   am
   153   153   161   am
   154   153   152    1
   155   115   120   am
   156   115   116    2
   157   120   121    1
   158   137   138    2
   159   144   145    1
   160   144   143    1
   161   182   181    1
   162   182   183    1
   163   171   170    2
   164   151   145   am
   165   151   152    1
   166   178   181    1
   167   178   177    1
   168   178   179    1
   169   133   131   ar
   170   133   134   ar
   171   131   129   ar
   172   145   146    2
   173   152   155    1
   174   168   169    1
   175   121   122    1
   176   170   177   am
   177   170   169    1
   178   177   183    1
   179   179   180    2
   180   169   172    1
   181   134   132   ar
   182   125   126    1
   183   125   128    1
   184   125   124    1
   185   129   128    1
   186   129   130   ar
   187   126   127    2
   188   157   159   ar
   189   157   156   ar
   190   155   156    1
   191   122   123    2
   192   159   160   ar
   193   156   158   ar
   194   176   174   am
   195   132   130   ar
   196   160   158   ar
   197   172   173    1
   198   174   175    2
   199   174   173    1
