@<TRIPOS>MOLECULE
tmp/6ideB00.pdb
 144 137 0 0 0
SMALL
GASTEIGER

@<TRIPOS>ATOM
      1  N        -14.3810   27.5620   10.2170 N.3    22  LYS22      -0.1245
      2  CA       -15.8030   27.5400    9.9240 C.3    22  LYS22       0.1561
      3  C        -16.2530   28.9610    9.6230 C.2    22  LYS22       0.2260
      4  O        -15.6180   29.9330   10.0480 O.2    22  LYS22      -0.2867
      5  CB       -16.6270   26.9910   11.0910 C.3    22  LYS22       0.0271
      6  CG       -15.9250   25.9960   11.9890 C.3    22  LYS22       0.0035
      7  CD       -16.8700   25.5860   13.1210 C.3    22  LYS22       0.0206
      8  CE       -16.1400   24.8490   14.2180 C.3    22  LYS22       0.1093
      9  NZ       -17.0230   24.5870   15.3750 N.3    22  LYS22      -0.1314
     10  N        -18.2370   23.8680    8.4730 N.3    28  PHE28      -0.1241
     11  CA       -16.8080   23.7000    8.2680 C.3    28  PHE28       0.1605
     12  C        -16.4130   24.1100    6.8540 C.2    28  PHE28       0.2264
     13  O        -17.0540   23.7160    5.8720 O.2    28  PHE28      -0.2867
     14  CB       -16.4060   22.2490    8.5400 C.3    28  PHE28       0.0534
     15  CG       -16.1530   21.9500    9.9950 C.ar   28  PHE28      -0.0203
     16  CD1      -17.1980   21.9680   10.9140 C.ar   28  PHE28      -0.0042
     17  CD2      -14.8750   21.6420   10.4440 C.ar   28  PHE28      -0.0042
     18  CE1      -16.9650   21.6930   12.2500 C.ar   28  PHE28      -0.0003
     19  CE2      -14.6360   21.3640   11.7770 C.ar   28  PHE28      -0.0003
     20  CZ       -15.6730   21.3890   12.6800 C.ar   28  PHE28      -0.0000
     21  N         -7.4080   16.5990   12.6100 N.3    35  TYR35      -0.1241
     22  CA        -8.7470   16.7760   13.1560 C.3    35  TYR35       0.1605
     23  C         -9.7280   15.8020   12.5170 C.2    35  TYR35       0.2264
     24  O        -10.6110   15.2670   13.1970 O.2    35  TYR35      -0.2867
     25  CB        -9.2150   18.2200   12.9720 C.3    35  TYR35       0.0534
     26  CG       -10.5470   18.4710   13.6190 C.ar   35  TYR35      -0.0201
     27  CD1      -10.6250   18.8740   14.9470 C.ar   35  TYR35      -0.0009
     28  CD2      -11.7340   18.2710   12.9150 C.ar   35  TYR35      -0.0009
     29  CE1      -11.8370   19.0840   15.5510 C.ar   35  TYR35       0.0417
     30  CE2      -12.9510   18.4830   13.5130 C.ar   35  TYR35       0.0417
     31  CZ       -13.0000   18.8860   14.8340 C.ar   35  TYR35       0.1957
     32  OH       -14.2190   19.0960   15.4380 O.3    35  TYR35      -0.2866
     33  N         -9.3110   12.5120   14.2690 N.3    38  LEU38      -0.1231
     34  CA        -9.7590   12.6160   15.6540 C.3    38  LEU38       0.1693
     35  C        -11.2810   12.5650   15.7390 C.2    38  LEU38       0.2591
     36  O        -11.8460   11.9370   16.6420 O.2    38  LEU38      -0.2718
     37  CB        -9.2300   13.9130   16.2680 C.3    38  LEU38       0.0284
     38  CG        -9.7870   14.2730   17.6440 C.3    38  LEU38       0.0019
     39  CD1       -9.2110   13.3450   18.7100 C.3    38  LEU38       0.0001
     40  CD2       -9.5300   15.7390   17.9860 C.3    38  LEU38       0.0001
     41  N        -11.9590   13.2130   14.7880 N.am   39  ILE39      -0.1980
     42  CA       -13.4120   13.2810   14.7740 C.3    39  ILE39       0.1595
     43  C        -14.0330   12.1010   14.0300 C.2    39  ILE39       0.2287
     44  O        -15.2630   12.0260   13.9070 O.2    39  ILE39      -0.2864
     45  CB       -13.8060   14.6540   14.1860 C.3    39  ILE39       0.0276
     46  CG1      -14.9850   15.2570   14.9360 C.3    39  ILE39       0.0022
     47  CG2      -14.0260   14.5790   12.6810 C.3    39  ILE39       0.0022
     48  CD1      -14.6450   15.6810   16.3340 C.3    39  ILE39       0.0001
     49  N        -20.7380   20.9290   13.4820 N.3    52  ASP52      -0.1239
     50  CA       -20.3290   20.0980   14.6120 C.3    52  ASP52       0.1674
     51  C        -21.3990   19.0710   14.9920 C.2    52  ASP52       0.2266
     52  O        -21.0680   18.0250   15.5600 O.2    52  ASP52      -0.2867
     53  CB       -19.9870   20.9760   15.8150 C.3    52  ASP52       0.1410
     54  CG       -18.6610   21.7200   15.6430 C.2    52  ASP52       0.3668
     55  OD1      -17.6040   21.0600   15.4780 O.co2  52  ASP52      -0.2456
     56  OD2      -18.6820   22.9720   15.6830 O.co2  52  ASP52      -0.2456
     57  N        -18.5220   13.8500   20.3200 N.3    59  THR59      -0.1218
     58  CA       -18.4360   15.2950   20.4930 C.3    59  THR59       0.1862
     59  C        -19.6660   16.0240   19.9680 C.2    59  THR59       0.2287
     60  O        -19.9000   17.1750   20.3530 O.2    59  THR59      -0.2866
     61  CB       -17.1880   15.8300   19.7910 C.3    59  THR59       0.1770
     62  OG1      -17.2040   15.4310   18.4100 O.3    59  THR59      -0.2211
     63  CG2      -15.9490   15.2840   20.4580 C.3    59  THR59       0.0375
     64  N        -19.9650   24.3870   21.2510 N.3    66  PHE66      -0.1241
     65  CA       -18.9870   24.8530   20.2740 C.3    66  PHE66       0.1605
     66  C        -19.5290   26.0520   19.5110 C.2    66  PHE66       0.2264
     67  O        -18.8270   27.0510   19.3130 O.2    66  PHE66      -0.2867
     68  CB       -18.6190   23.7330   19.2950 C.3    66  PHE66       0.0534
     69  CG       -18.1190   22.4690   19.9480 C.ar   66  PHE66      -0.0203
     70  CD1      -17.7110   22.4500   21.2750 C.ar   66  PHE66      -0.0042
     71  CD2      -18.0450   21.2940   19.2140 C.ar   66  PHE66      -0.0042
     72  CE1      -17.2510   21.2760   21.8600 C.ar   66  PHE66      -0.0003
     73  CE2      -17.5850   20.1160   19.7930 C.ar   66  PHE66      -0.0003
     74  CZ       -17.1920   20.1070   21.1190 C.ar   66  PHE66      -0.0000
     75  N        -19.6110   29.1250   21.5460 N.3    69  GLN69      -0.1245
     76  CA       -18.2770   29.7140   21.6270 C.3    69  GLN69       0.1566
     77  C        -17.9330   30.4430   20.3370 C.2    69  GLN69       0.2260
     78  O        -17.3950   31.5580   20.3720 O.2    69  GLN69      -0.2867
     79  CB       -17.2240   28.6430   21.9280 C.3    69  GLN69       0.0367
     80  CG       -17.3540   27.9390   23.2830 C.3    69  GLN69       0.0905
     81  CD       -16.7560   26.5390   23.2440 C.2    69  GLN69       0.2608
     82  OE1      -16.0920   26.1780   22.2720 O.2    69  GLN69      -0.2717
     83  NE2      -16.9820   25.7490   24.2970 N.am   69  GLN69      -0.0878
     84  N        -11.4020   21.2420   26.5350 N.3    84  ASP84      -0.1239
     85  CA       -12.2900   20.2440   25.9640 C.3    84  ASP84       0.1674
     86  C        -11.9050   18.8610   26.4630 C.2    84  ASP84       0.2266
     87  O        -10.7370   18.4700   26.3840 O.2    84  ASP84      -0.2867
     88  CB       -12.2630   20.2940   24.4340 C.3    84  ASP84       0.1410
     89  CG       -13.2170   21.3370   23.8730 C.2    84  ASP84       0.3668
     90  OD1      -12.7450   22.4160   23.4490 O.co2  84  ASP84      -0.2456
     91  OD2      -14.4410   21.0820   23.8870 O.co2  84  ASP84      -0.2456
     92  N        -13.6020   14.9780   26.0360 N.3    86  HIS86      -0.1241
     93  CA       -14.6440   14.2560   25.3190 C.3    86  HIS86       0.1621
     94  C        -14.1790   12.8310   25.0700 C.2    86  HIS86       0.2264
     95  O        -12.9740   12.5540   25.0850 O.2    86  HIS86      -0.2867
     96  CB       -14.9810   14.9420   23.9840 C.3    86  HIS86       0.0745
     97  CG       -15.3730   16.3810   24.1190 C.ar   86  HIS86       0.0817
     98  ND1      -16.6450   16.7790   24.4740 N.ar   86  HIS86      -0.2268
     99  CD2      -14.6550   17.5180   23.9600 C.ar   86  HIS86       0.1154
    100  CE1      -16.6960   18.0970   24.5230 C.ar   86  HIS86       0.1986
    101  NE2      -15.5010   18.5710   24.2140 N.ar   86  HIS86      -0.2212
    102  N        -13.9150   10.0290   22.0310 N.3    88  TYR88      -0.1241
    103  CA       -13.7260   10.1340   20.5940 C.3    88  TYR88       0.1605
    104  C        -13.9040    8.7770   19.9300 C.2    88  TYR88       0.2264
    105  O        -13.8050    7.7410   20.5920 O.2    88  TYR88      -0.2867
    106  CB       -12.3380   10.7150   20.2880 C.3    88  TYR88       0.0534
    107  CG       -12.2790   12.1920   20.5840 C.ar   88  TYR88      -0.0201
    108  CD1      -12.6080   13.1220   19.6030 C.ar   88  TYR88      -0.0009
    109  CD2      -11.9260   12.6590   21.8510 C.ar   88  TYR88      -0.0009
    110  CE1      -12.5760   14.4740   19.8600 C.ar   88  TYR88       0.0417
    111  CE2      -11.8830   14.0180   22.1200 C.ar   88  TYR88       0.0417
    112  CZ       -12.2190   14.9190   21.1170 C.ar   88  TYR88       0.1957
    113  OH       -12.1960   16.2710   21.3580 O.3    88  TYR88      -0.2866
    114  N         -8.5790   24.1320   22.8990 N.3    98  PHE98      -0.1241
    115  CA        -8.9170   24.6840   21.5900 C.3    98  PHE98       0.1605
    116  C         -8.8580   26.2090   21.6450 C.2    98  PHE98       0.2264
    117  O         -9.5340   26.8430   22.4570 O.2    98  PHE98      -0.2867
    118  CB       -10.2800   24.1850   21.1290 C.3    98  PHE98       0.0534
    119  CG       -10.2330   22.8560   20.4270 C.ar   98  PHE98      -0.0203
    120  CD1      -10.3390   21.6710   21.1410 C.ar   98  PHE98      -0.0042
    121  CD2      -10.0800   22.7950   19.0510 C.ar   98  PHE98      -0.0042
    122  CE1      -10.2900   20.4360   20.4830 C.ar   98  PHE98      -0.0003
    123  CE2      -10.0360   21.5690   18.3910 C.ar   98  PHE98      -0.0003
    124  CZ       -10.1340   20.3900   19.1060 C.ar   98  PHE98      -0.0000
    125  N         -9.6310   29.6450   19.7260 N.3   100  LYS100     -0.1245
    126  CA       -10.5800   30.0880   18.7160 C.3   100  LYS100      0.1561
    127  C        -10.3870   31.5750   18.5050 C.2   100  LYS100      0.2260
    128  O        -10.3790   32.3430   19.4710 O.2   100  LYS100     -0.2867
    129  CB       -12.0160   29.7840   19.1360 C.3   100  LYS100      0.0271
    130  CG       -12.2980   28.3030   19.2650 C.3   100  LYS100      0.0035
    131  CD       -13.7830   28.0510   19.5220 C.3   100  LYS100      0.0206
    132  CE       -14.0680   26.5630   19.5310 C.3   100  LYS100      0.1093
    133  NZ       -15.5110   26.2500   19.3610 N.3   100  LYS100     -0.1314
    134  N        -10.2960   27.5210   14.5790 N.3   115  PHE115     -0.1241
    135  CA       -10.0180   26.7370   15.7690 C.3   115  PHE115      0.1605
    136  C         -8.6480   26.0850   15.6400 C.2   115  PHE115      0.2264
    137  O         -8.2090   25.7460   14.5400 O.2   115  PHE115     -0.2867
    138  CB       -11.0960   25.6720   16.0200 C.3   115  PHE115      0.0534
    139  CG       -11.3090   24.7120   14.8780 C.ar  115  PHE115     -0.0203
    140  CD1      -12.1830   25.0230   13.8430 C.ar  115  PHE115     -0.0042
    141  CD2      -10.6760   23.4750   14.8630 C.ar  115  PHE115     -0.0042
    142  CE1      -12.3990   24.1330   12.7930 C.ar  115  PHE115     -0.0003
    143  CE2      -10.8930   22.5760   13.8210 C.ar  115  PHE115     -0.0003
    144  CZ       -11.7520   22.9080   12.7830 C.ar  115  PHE115     -0.0000
@<TRIPOS>BOND
     1    13    12    2
     2    12    11    1
     3    11    10    1
     4    11    14    1
     5    14    15    1
     6     3     2    1
     7     3     4    2
     8     2     1    1
     9     2     5    1
    10    15    17   ar
    11    15    16   ar
    12    17    19   ar
    13    16    18   ar
    14     5     6    1
    15    19    20   ar
    16     6     7    1
    17    18    20   ar
    18    23    22    1
    19    23    24    2
    20    21    22    1
    21    47    45    1
    22   144   142   ar
    23   144   143   ar
    24   142   140   ar
    25    28    30   ar
    26    28    26   ar
    27    25    22    1
    28    25    26    1
    29     7     8    1
    30    49    50    1
    31    30    31   ar
    32    26    27   ar
    33   143   141   ar
    34   140   139   ar
    35    44    43    2
    36    43    42    1
    37    45    42    1
    38    45    46    1
    39     8     9    1
    40    33    34    1
    41   137   136    2
    42   134   135    1
    43    50    51    1
    44    50    53    1
    45    42    41    1
    46    41    35   am
    47    31    32    1
    48    31    29   ar
    49   141   139   ar
    50   139   138    1
    51    46    48    1
    52    27    29   ar
    53    51    52    2
    54    55    54   ar
    55   136   135    1
    56    54    56   ar
    57    54    53    1
    58    34    35    1
    59    34    37    1
    60    35    36    2
    61   135   138    1
    62    37    38    1
    63    38    40    1
    64    38    39    1
    65   123   121   ar
    66   123   124   ar
    67    62    61    1
    68   127   126    1
    69   127   128    2
    70   126   129    1
    71   126   125    1
    72   121   119   ar
    73   124   122   ar
    74   129   130    1
    75    71    73   ar
    76    71    69   ar
    77   130   131    1
    78    68    69    1
    79    68    65    1
    80    67    66    2
    81   133   132    1
    82    66    65    1
    83   131   132    1
    84   108   110   ar
    85   108   107   ar
    86    61    63    1
    87    61    58    1
    88    73    74   ar
    89   110   112   ar
    90   104   105    2
    91   104   103    1
    92    69    70   ar
    93    59    60    2
    94    59    58    1
    95    65    64    1
    96   106   107    1
    97   106   103    1
    98    57    58    1
    99    77    78    2
   100    77    76    1
   101   119   118    1
   102   119   120   ar
   103   122   120   ar
   104   107   109   ar
   105   103   102    1
   106   112   113    1
   107   112   111   ar
   108    74    72   ar
   109   118   115    1
   110    70    72   ar
   111    75    76    1
   112   115   116    1
   113   115   114    1
   114    76    79    1
   115   116   117    2
   116   109   111   ar
   117    79    80    1
   118    82    81    2
   119    81    80    1
   120    81    83   am
   121    90    89   ar
   122    89    91   ar
   123    89    88    1
   124    99    97   ar
   125    99   101   ar
   126    96    97    1
   127    96    93    1
   128    97    98   ar
   129   101   100   ar
   130    88    85    1
   131    98   100   ar
   132    94    95    2
   133    94    93    1
   134    93    92    1
   135    85    86    1
   136    85    84    1
   137    87    86    2
