@<TRIPOS>MOLECULE
tmp/6idgB00.pdb
 107 108 0 0 0
SMALL
GASTEIGER

@<TRIPOS>ATOM
      1  N        -27.7090  -31.3620    9.4970 N.3    32  TYR32      -0.1227
      2  CA       -27.9100  -30.0320    8.9200 C.3    32  TYR32       0.1736
      3  C        -27.4320  -29.8430    7.4940 C.2    32  TYR32       0.2595
      4  O        -26.4150  -30.4030    7.0910 O.2    32  TYR32      -0.2718
      5  CB       -27.1970  -28.9690    9.7680 C.3    32  TYR32       0.0548
      6  CG       -27.5420  -28.9930   11.2250 C.ar   32  TYR32      -0.0200
      7  CD1      -27.1000  -30.0210   12.0450 C.ar   32  TYR32      -0.0009
      8  CD2      -28.3020  -27.9730   11.7930 C.ar   32  TYR32      -0.0009
      9  CE1      -27.4040  -30.0390   13.4070 C.ar   32  TYR32       0.0417
     10  CE2      -28.6120  -27.9740   13.1550 C.ar   32  TYR32       0.0417
     11  CZ       -28.1580  -29.0140   13.9560 C.ar   32  TYR32       0.1957
     12  OH       -28.4630  -29.0280   15.2990 O.3    32  TYR32      -0.2866
     13  N        -28.1680  -29.0300    6.7420 N.am   33  TRP33      -0.1976
     14  CA       -27.7900  -28.7140    5.3740 C.3    33  TRP33       0.1640
     15  C        -26.5360  -27.8460    5.4250 C.2    33  TRP33       0.2290
     16  O        -26.4470  -26.9070    6.2210 O.2    33  TRP33      -0.2864
     17  CB       -28.9040  -27.9220    4.6670 C.3    33  TRP33       0.0576
     18  CG       -30.1310  -28.7390    4.3300 C.ar   33  TRP33       0.0006
     19  CD1      -31.2290  -28.9540    5.1170 C.ar   33  TRP33       0.0946
     20  CD2      -30.3610  -29.4600    3.1160 C.ar   33  TRP33       0.0152
     21  NE1      -32.1280  -29.7580    4.4640 N.ar   33  TRP33      -0.2442
     22  CE2      -31.6200  -30.0860    3.2340 C.ar   33  TRP33       0.0810
     23  CE3      -29.6200  -29.6370    1.9380 C.ar   33  TRP33       0.0012
     24  CZ2      -32.1610  -30.8800    2.2170 C.ar   33  TRP33       0.0191
     25  CZ3      -30.1560  -30.4260    0.9240 C.ar   33  TRP33       0.0001
     26  CH2      -31.4160  -31.0380    1.0710 C.ar   33  TRP33       0.0015
     27  N        -24.2020  -25.2620    3.2820 N.3    35  HIS35      -0.1241
     28  CA       -24.3090  -24.4230    2.0820 C.3    35  HIS35       0.1621
     29  C        -22.9680  -23.8770    1.6040 C.2    35  HIS35       0.2264
     30  O        -22.0290  -23.7550    2.3890 O.2    35  HIS35      -0.2867
     31  CB       -25.2750  -23.2610    2.3530 C.3    35  HIS35       0.0745
     32  CG       -26.7060  -23.6880    2.5020 C.ar   35  HIS35       0.0817
     33  ND1      -27.6470  -23.4830    1.5180 N.ar   35  HIS35      -0.2268
     34  CD2      -27.3390  -24.3570    3.4960 C.ar   35  HIS35       0.1154
     35  CE1      -28.7980  -24.0110    1.8950 C.ar   35  HIS35       0.1986
     36  NE2      -28.6370  -24.5480    3.0930 N.ar   35  HIS35      -0.2212
     37  N        -25.2000  -17.5960   -4.1320 N.3    47  TRP47      -0.1241
     38  CA       -25.5080  -18.9230   -3.6000 C.3    47  TRP47       0.1605
     39  C        -25.1370  -19.9940   -4.6330 C.2    47  TRP47       0.2264
     40  O        -25.6210  -19.9570   -5.7550 O.2    47  TRP47      -0.2867
     41  CB       -27.0000  -19.0110   -3.2670 C.3    47  TRP47       0.0550
     42  CG       -27.3680  -20.2730   -2.5130 C.ar   47  TRP47       0.0003
     43  CD1      -27.1020  -20.5560   -1.1930 C.ar   47  TRP47       0.0946
     44  CD2      -28.0250  -21.4280   -3.0480 C.ar   47  TRP47       0.0152
     45  NE1      -27.5550  -21.8160   -0.8820 N.ar   47  TRP47      -0.2442
     46  CE2      -28.1250  -22.3740   -2.0000 C.ar   47  TRP47       0.0810
     47  CE3      -28.5380  -21.7610   -4.3150 C.ar   47  TRP47       0.0012
     48  CZ2      -28.7150  -23.6290   -2.1790 C.ar   47  TRP47       0.0191
     49  CZ3      -29.1300  -23.0220   -4.4950 C.ar   47  TRP47       0.0001
     50  CH2      -29.2090  -23.9370   -3.4290 C.ar   47  TRP47       0.0015
     51  N        -26.2780  -26.6010   -2.0970 N.3    50  THR50      -0.1218
     52  CA       -26.2450  -27.1600   -0.7580 C.3    50  THR50       0.1862
     53  C        -26.3310  -28.6860   -0.7570 C.2    50  THR50       0.2287
     54  O        -26.8120  -29.3010   -1.7120 O.2    50  THR50      -0.2866
     55  CB       -27.3890  -26.5760    0.1120 C.3    50  THR50       0.1770
     56  OG1      -27.3000  -27.1110    1.4380 O.3    50  THR50      -0.2211
     57  CG2      -28.7740  -26.9230   -0.4830 C.3    50  THR50       0.0375
     58  N        -28.6760  -29.8510   -4.0310 N.3    59  THR59      -0.1218
     59  CA       -29.5260  -28.9480   -4.7960 C.3    59  THR59       0.1862
     60  C        -28.5650  -27.8520   -5.2570 C.2    59  THR59       0.2287
     61  O        -27.7900  -27.3340   -4.4580 O.2    59  THR59      -0.2866
     62  CB       -30.6370  -28.2930   -3.9490 C.3    59  THR59       0.1770
     63  OG1      -31.5010  -29.3030   -3.4080 O.3    59  THR59      -0.2211
     64  CG2      -31.4690  -27.3620   -4.8180 C.3    59  THR59       0.0375
     65  N        -26.7280  -24.5340    7.8760 N.3    99  ARG99      -0.1231
     66  CA       -28.0940  -24.0240    7.9250 C.3    99  ARG99       0.1694
     67  C        -28.6840  -24.5750    9.2160 C.2    99  ARG99       0.2592
     68  O        -28.8030  -25.7910    9.3770 O.2    99  ARG99      -0.2718
     69  CB       -28.9190  -24.5280    6.7360 C.3    99  ARG99       0.0321
     70  CG       -30.3190  -23.9240    6.6560 C.3    99  ARG99       0.0489
     71  CD       -30.3390  -22.5270    5.9770 C.3    99  ARG99       0.2205
     72  NE       -31.6180  -21.8630    6.2290 N.pl3  99  ARG99      -0.0865
     73  CZ       -31.9720  -20.6610    5.7830 C.cat  99  ARG99       0.5346
     74  NH1      -31.1510  -19.9460    5.0280 N.pl3  99  ARG99       0.1354
     75  NH2      -33.1440  -20.1550    6.1340 N.pl3  99  ARG99       0.1354
     76  N        -29.0530  -23.6880   10.1340 N.am  100  ASN100     -0.1960
     77  CA       -29.6070  -24.1260   11.4080 C.3   100  ASN100      0.1819
     78  C        -31.1220  -24.2830   11.3530 C.2   100  ASN100      0.2621
     79  O        -31.7670  -23.8680   10.3950 O.2   100  ASN100     -0.2715
     80  CB       -29.2370  -23.1180   12.5060 C.3   100  ASN100      0.1195
     81  CG       -29.4910  -23.6490   13.9050 C.2   100  ASN100      0.2630
     82  OD1      -29.2350  -24.8180   14.1850 O.2   100  ASN100     -0.2716
     83  ND2      -29.9740  -22.7850   14.7980 N.am  100  ASN100     -0.0877
     84  N        -31.6740  -24.9270   12.3770 N.am  101  TYR101     -0.1974
     85  CA       -33.1190  -25.0800   12.5200 C.3   101  TYR101      0.1639
     86  C        -33.3760  -25.1470   14.0200 C.2   101  TYR101      0.2290
     87  O        -32.4750  -25.4800   14.7940 O.2   101  TYR101     -0.2864
     88  CB       -33.6450  -26.3310   11.8030 C.3   101  TYR101      0.0560
     89  CG       -33.1140  -27.6540   12.3080 C.ar  101  TYR101     -0.0198
     90  CD1      -33.6930  -28.2920   13.4080 C.ar  101  TYR101     -0.0009
     91  CD2      -32.0150  -28.2530   11.7020 C.ar  101  TYR101     -0.0009
     92  CE1      -33.1820  -29.4870   13.8930 C.ar  101  TYR101      0.0417
     93  CE2      -31.4960  -29.4490   12.1770 C.ar  101  TYR101      0.0417
     94  CZ       -32.0800  -30.0600   13.2770 C.ar  101  TYR101      0.1957
     95  OH       -31.5270  -31.2190   13.7830 O.3   101  TYR101     -0.2866
     96  N        -33.3740  -20.2360   11.9420 N.3   105  TYR105     -0.1241
     97  CA       -33.5580  -20.8140   10.6080 C.3   105  TYR105      0.1605
     98  C        -32.8070  -19.9370    9.6070 C.2   105  TYR105      0.2264
     99  O        -33.3740  -19.0090    9.0330 O.2   105  TYR105     -0.2867
    100  CB       -35.0460  -20.8580   10.2650 C.3   105  TYR105      0.0534
    101  CG       -35.8180  -21.8320   11.1240 C.ar  105  TYR105     -0.0201
    102  CD1      -35.7830  -23.2000   10.8580 C.ar  105  TYR105     -0.0009
    103  CD2      -36.5550  -21.3910   12.2200 C.ar  105  TYR105     -0.0009
    104  CE1      -36.4650  -24.1070   11.6630 C.ar  105  TYR105      0.0417
    105  CE2      -37.2430  -22.2910   13.0360 C.ar  105  TYR105      0.0417
    106  CZ       -37.1920  -23.6460   12.7500 C.ar  105  TYR105      0.1957
    107  OH       -37.8670  -24.5410   13.5470 O.3   105  TYR105     -0.2866
@<TRIPOS>BOND
     1    40    39    2
     2    60    59    1
     3    60    61    2
     4    64    62    1
     5    59    58    1
     6    59    62    1
     7    39    38    1
     8    49    47   ar
     9    49    50   ar
    10    47    44   ar
    11    37    38    1
    12    62    63    1
    13    38    41    1
    14    50    48   ar
    15    41    42    1
    16    44    42   ar
    17    44    46   ar
    18    42    43   ar
    19    48    46   ar
    20    51    52    1
    21    46    45   ar
    22    54    53    2
    23    43    45   ar
    24    52    53    1
    25    52    55    1
    26    57    55    1
    27    55    56    1
    28    25    26   ar
    29    25    23   ar
    30    26    24   ar
    31    33    35   ar
    32    33    32   ar
    33    29    28    1
    34    29    30    2
    35    35    36   ar
    36    23    20   ar
    37    28    31    1
    38    28    27    1
    39    24    22   ar
    40    31    32    1
    41    32    34   ar
    42    36    34   ar
    43    20    22   ar
    44    20    18   ar
    45    22    21   ar
    46    18    17    1
    47    18    19   ar
    48    21    19   ar
    49    17    14    1
    50    74    73    1
    51    14    15    1
    52    14    13    1
    53    15    16    2
    54    73    75    1
    55    73    72    2
    56    71    72    1
    57    71    70    1
    58    70    69    1
    59    69    66    1
    60    13     3   am
    61     4     3    2
    62     3     2    1
    63    65    66    1
    64    66    67    1
    65     2     1    1
    66     2     5    1
    67    99    98    2
    68    67    68    2
    69    67    76   am
    70    98    97    1
    71     5     6    1
    72    76    77    1
    73   100    97    1
    74   100   101    1
    75    79    78    2
    76    97    96    1
    77   102   101   ar
    78   102   104   ar
    79   101   103   ar
    80     6     8   ar
    81     6     7   ar
    82    78    77    1
    83    78    84   am
    84    77    80    1
    85   104   106   ar
    86    91    93   ar
    87    91    89   ar
    88     8    10   ar
    89    88    89    1
    90    88    85    1
    91     7     9   ar
    92    93    94   ar
    93   103   105   ar
    94    89    90   ar
    95    84    85    1
    96    80    81    1
    97    85    86    1
    98   106   105   ar
    99   106   107    1
   100    10    11   ar
   101    94    95    1
   102    94    92   ar
   103     9    11   ar
   104    90    92   ar
   105    81    82    2
   106    81    83   am
   107    11    12    1
   108    86    87    2
