@<TRIPOS>MOLECULE
tmp/6idpA00.pdb
 81 76 0 0 0
SMALL
GASTEIGER

@<TRIPOS>ATOM
      1  N         -1.9730  -10.6210  -30.8960 N.3    19  LEU19      -0.1245
      2  CA        -2.1630   -9.8510  -29.6750 C.3    19  LEU19       0.1561
      3  C         -3.2760  -10.4590  -28.8310 C.2    19  LEU19       0.2260
      4  O         -3.1010  -10.6980  -27.6360 O.2    19  LEU19      -0.2867
      5  CB        -2.4860   -8.3910  -30.0010 C.3    19  LEU19       0.0270
      6  CG        -2.7480   -7.4780  -28.8020 C.3    19  LEU19       0.0019
      7  CD1       -1.5110   -7.3870  -27.9250 C.3    19  LEU19       0.0001
      8  CD2       -3.1900   -6.0960  -29.2610 C.3    19  LEU19       0.0001
      9  N         -3.0700  -12.3620  -25.2320 N.3    23  LEU23      -0.1245
     10  CA        -3.9010  -11.7960  -24.1710 C.3    23  LEU23       0.1561
     11  C         -4.8890  -12.8090  -23.5990 C.2    23  LEU23       0.2260
     12  O         -5.0820  -12.8780  -22.3840 O.2    23  LEU23      -0.2867
     13  CB        -4.6620  -10.5730  -24.6860 C.3    23  LEU23       0.0270
     14  CG        -3.8710   -9.2710  -24.8050 C.3    23  LEU23       0.0019
     15  CD1       -4.6970   -8.2060  -25.5050 C.3    23  LEU23       0.0001
     16  CD2       -3.4330   -8.7890  -23.4340 C.3    23  LEU23       0.0001
     17  N          4.6350   -6.1630  -15.0140 N.3   272  PHE272     -0.1241
     18  CA         4.1460   -4.9900  -15.7260 C.3   272  PHE272      0.1605
     19  C          4.8830   -4.8020  -17.0520 C.2   272  PHE272      0.2264
     20  O          4.2610   -4.4830  -18.0650 O.2   272  PHE272     -0.2867
     21  CB         4.2820   -3.7260  -14.8740 C.3   272  PHE272      0.0534
     22  CG         3.8000   -2.4810  -15.5680 C.ar  272  PHE272     -0.0203
     23  CD1        4.6770   -1.6850  -16.2880 C.ar  272  PHE272     -0.0042
     24  CD2        2.4650   -2.1150  -15.5120 C.ar  272  PHE272     -0.0042
     25  CE1        4.2320   -0.5500  -16.9350 C.ar  272  PHE272     -0.0003
     26  CE2        2.0170   -0.9740  -16.1560 C.ar  272  PHE272     -0.0003
     27  CZ         2.9010   -0.1940  -16.8680 C.ar  272  PHE272     -0.0000
     28  N          3.4520   -7.1200  -19.7320 N.3   275  PHE275     -0.1227
     29  CA         2.1940   -6.6280  -20.2750 C.3   275  PHE275      0.1736
     30  C          2.3930   -5.3840  -21.1360 C.2   275  PHE275      0.2595
     31  O          1.7520   -5.2400  -22.1760 O.2   275  PHE275     -0.2718
     32  CB         1.2020   -6.3330  -19.1500 C.3   275  PHE275      0.0547
     33  CG         0.3510   -7.5080  -18.7740 C.ar  275  PHE275     -0.0202
     34  CD1       -0.6950   -7.9050  -19.5910 C.ar  275  PHE275     -0.0042
     35  CD2        0.5910   -8.2150  -17.6060 C.ar  275  PHE275     -0.0042
     36  CE1       -1.4850   -8.9880  -19.2530 C.ar  275  PHE275     -0.0003
     37  CE2       -0.1970   -9.2990  -17.2610 C.ar  275  PHE275     -0.0003
     38  CZ        -1.2360   -9.6850  -18.0870 C.ar  275  PHE275     -0.0000
     39  N          3.2850   -4.4940  -20.7110 N.am  276  ALA276     -0.1980
     40  CA         3.5480   -3.2690  -21.4630 C.3   276  ALA276      0.1597
     41  C          4.1340   -3.5690  -22.8410 C.2   276  ALA276      0.2287
     42  O          4.0230   -2.7570  -23.7600 O.2   276  ALA276     -0.2864
     43  CB         4.4830   -2.3550  -20.6810 C.3   276  ALA276      0.0319
     44  N          3.3610   -6.3670  -24.6810 N.3   278  VAL278     -0.1231
     45  CA         2.5870   -7.4420  -25.2870 C.3   278  VAL278      0.1692
     46  C          2.3630   -7.2090  -26.7860 C.2   278  VAL278      0.2591
     47  O          2.2730   -8.1640  -27.5550 O.2   278  VAL278     -0.2718
     48  CB         1.2230   -7.6330  -24.5650 C.3   278  VAL278      0.0266
     49  CG1        0.3110   -6.4370  -24.7850 C.3   278  VAL278      0.0020
     50  CG2        0.5520   -8.9230  -25.0160 C.3   278  VAL278      0.0020
     51  N          2.3000   -5.9510  -27.2090 N.am  279  ALA279     -0.1980
     52  CA         2.1200   -5.6550  -28.6280 C.3   279  ALA279      0.1597
     53  C          3.4010   -5.9460  -29.3990 C.2   279  ALA279      0.2287
     54  O          3.3570   -6.4060  -30.5440 O.2   279  ALA279     -0.2864
     55  CB         1.6960   -4.2130  -28.8310 C.3   279  ALA279      0.0319
     56  N          4.4970    3.6930  -29.5970 N.3   317  PHE317     -0.1241
     57  CA         3.5400    3.0150  -28.7300 C.3   317  PHE317      0.1605
     58  C          4.0630    2.8660  -27.2980 C.2   317  PHE317      0.2264
     59  O          3.3340    3.1190  -26.3360 O.2   317  PHE317     -0.2867
     60  CB         3.1940    1.6460  -29.3260 C.3   317  PHE317      0.0534
     61  CG         2.1150    0.9050  -28.5930 C.ar  317  PHE317     -0.0203
     62  CD1        0.8030    1.3530  -28.6150 C.ar  317  PHE317     -0.0042
     63  CD2        2.4080   -0.2670  -27.9150 C.ar  317  PHE317     -0.0042
     64  CE1       -0.1930    0.6560  -27.9490 C.ar  317  PHE317     -0.0003
     65  CE2        1.4190   -0.9690  -27.2500 C.ar  317  PHE317     -0.0003
     66  CZ         0.1170   -0.5070  -27.2650 C.ar  317  PHE317     -0.0000
     67  N          2.7240    4.5190  -23.5950 N.3   321  ILE321     -0.1245
     68  CA         2.5490    3.6670  -22.4270 C.3   321  ILE321      0.1561
     69  C          3.3750    4.1810  -21.2480 C.2   321  ILE321      0.2260
     70  O          2.8890    4.2460  -20.1190 O.2   321  ILE321     -0.2867
     71  CB         2.9380    2.2070  -22.7420 C.3   321  ILE321      0.0252
     72  CG1        1.9380    1.5950  -23.7220 C.3   321  ILE321      0.0019
     73  CG2        3.0040    1.3730  -21.4700 C.3   321  ILE321      0.0019
     74  CD1        2.2590    0.1700  -24.0970 C.3   321  ILE321      0.0001
     75  N          1.8860    5.5920  -17.7870 N.3   325  THR325     -0.1218
     76  CA         2.3740    4.9270  -16.5840 C.3   325  THR325      0.1862
     77  C          3.0540    5.9130  -15.6370 C.2   325  THR325      0.2287
     78  O          2.9060    5.8210  -14.4190 O.2   325  THR325     -0.2866
     79  CB         3.3630    3.7970  -16.9300 C.3   325  THR325      0.1770
     80  OG1        2.7460    2.8850  -17.8470 O.3   325  THR325     -0.2211
     81  CG2        3.7790    3.0440  -15.6750 C.3   325  THR325      0.0375
@<TRIPOS>BOND
     1     1     2    1
     2    54    53    2
     3     5     2    1
     4     5     6    1
     5     2     3    1
     6    56    57    1
     7    53    52    1
     8    60    57    1
     9    60    61    1
    10     8     6    1
    11     3     4    2
    12    55    52    1
    13     6     7    1
    14    57    58    1
    15    52    51    1
    16    62    61   ar
    17    62    64   ar
    18    61    63   ar
    19    64    66   ar
    20    63    65   ar
    21    47    46    2
    22    58    59    2
    23    66    65   ar
    24    51    46   am
    25    46    45    1
    26    15    14    1
    27    45    44    1
    28    45    48    1
    29     9    10    1
    30    50    48    1
    31    14    13    1
    32    14    16    1
    33    49    48    1
    34    13    10    1
    35    10    11    1
    36    74    72    1
    37    42    41    2
    38    72    71    1
    39    11    12    2
    40    67    68    1
    41    41    40    1
    42    71    68    1
    43    71    73    1
    44    68    69    1
    45    31    30    2
    46    40    39    1
    47    40    43    1
    48    69    70    2
    49    30    39   am
    50    30    29    1
    51    29    28    1
    52    29    32    1
    53    34    36   ar
    54    34    33   ar
    55    36    38   ar
    56    32    33    1
    57    33    35   ar
    58    38    37   ar
    59    20    19    2
    60    80    79    1
    61    75    76    1
    62    35    37   ar
    63    19    18    1
    64    25    27   ar
    65    25    23   ar
    66    79    76    1
    67    79    81    1
    68    27    26   ar
    69    76    77    1
    70    23    22   ar
    71    26    24   ar
    72    18    17    1
    73    18    21    1
    74    77    78    2
    75    22    24   ar
    76    22    21    1
