@<TRIPOS>MOLECULE
tmp/6idpA01.pdb
 111 106 0 0 0
SMALL
GASTEIGER

@<TRIPOS>ATOM
      1  N          1.5480    2.7320  -46.6660 N.3     5  SER5       -0.1217
      2  CA         0.2290    2.6120  -46.0610 C.3     5  SER5        0.1889
      3  C         -0.2820    1.1790  -46.1470 C.2     5  SER5        0.2288
      4  O         -0.9270    0.6820  -45.2250 O.2     5  SER5       -0.2866
      5  CB        -0.7560    3.5690  -46.7370 C.3     5  SER5        0.2089
      6  OG        -2.0780    3.3460  -46.2810 O.3     5  SER5       -0.2183
      7  N          1.7620   -1.0690  -43.7150 N.3     8  ALA8       -0.1231
      8  CA         1.3450   -0.8010  -42.3440 C.3     8  ALA8        0.1694
      9  C          0.0370   -1.5140  -42.0190 C.2     8  ALA8        0.2591
     10  O         -0.1150   -2.0870  -40.9390 O.2     8  ALA8       -0.2718
     11  CB         1.2070    0.6980  -42.1130 C.3     8  ALA8        0.0304
     12  N         -0.9050   -1.4760  -42.9580 N.am    9  LYS9       -0.1980
     13  CA        -2.1880   -2.1510  -42.7770 C.3     9  LYS9        0.1596
     14  C         -2.0380   -3.6690  -42.7690 C.2     9  LYS9        0.2287
     15  O         -2.7540   -4.3650  -42.0500 O.2     9  LYS9       -0.2864
     16  CB        -3.1750   -1.7280  -43.8670 C.3     9  LYS9        0.0298
     17  CG        -3.7450   -0.3340  -43.6770 C.3     9  LYS9        0.0038
     18  CD        -4.7710   -0.0070  -44.7480 C.3     9  LYS9        0.0206
     19  CE        -5.4710    1.3110  -44.4580 C.3     9  LYS9        0.1093
     20  NZ        -4.5130    2.4480  -44.3870 N.3     9  LYS9       -0.1314
     21  N          0.6570   -5.3200  -41.7420 N.3    11  LEU11      -0.1231
     22  CA         1.2660   -5.6550  -40.4600 C.3    11  LEU11       0.1693
     23  C          0.2290   -5.6210  -39.3410 C.2    11  LEU11       0.2592
     24  O          0.2290   -6.4830  -38.4650 O.2    11  LEU11      -0.2718
     25  CB         2.4260   -4.7060  -40.1420 C.3    11  LEU11       0.0284
     26  CG         3.1100   -4.8970  -38.7830 C.3    11  LEU11       0.0019
     27  CD1        3.7640   -6.2690  -38.6780 C.3    11  LEU11       0.0001
     28  CD2        4.1250   -3.7900  -38.5220 C.3    11  LEU11       0.0001
     29  N         -0.6610   -4.6330  -39.3800 N.am   12  PHE12      -0.1976
     30  CA        -1.7150   -4.5260  -38.3740 C.3    12  PHE12       0.1639
     31  C         -2.6430   -5.7380  -38.4000 C.2    12  PHE12       0.2290
     32  O         -2.9510   -6.3120  -37.3560 O.2    12  PHE12      -0.2864
     33  CB        -2.5310   -3.2440  -38.5670 C.3    12  PHE12       0.0560
     34  CG        -3.7370   -3.1610  -37.6760 C.ar   12  PHE12      -0.0200
     35  CD1       -3.6010   -2.8740  -36.3270 C.ar   12  PHE12      -0.0042
     36  CD2       -5.0090   -3.3780  -38.1830 C.ar   12  PHE12      -0.0042
     37  CE1       -4.7110   -2.8010  -35.5000 C.ar   12  PHE12      -0.0003
     38  CE2       -6.1230   -3.3070  -37.3600 C.ar   12  PHE12      -0.0003
     39  CZ        -5.9710   -3.0170  -36.0180 C.ar   12  PHE12      -0.0000
     40  N         -0.9000   -8.7390  -37.0400 N.3    15  THR15      -0.1203
     41  CA        -0.4440   -8.6690  -35.6560 C.3    15  THR15       0.1994
     42  C         -1.5650   -8.7560  -34.6170 C.2    15  THR15       0.2617
     43  O         -1.4260   -9.4680  -33.6230 O.2    15  THR15      -0.2717
     44  CB         0.3620   -7.3750  -35.4040 C.3    15  THR15       0.1784
     45  OG1        1.5060   -7.3530  -36.2660 O.3    15  THR15      -0.2211
     46  CG2        0.8290   -7.3030  -33.9580 C.3    15  THR15       0.0376
     47  N         -2.6750   -8.0560  -34.8360 N.am   16  TRP16      -0.1975
     48  CA        -3.7210   -8.0130  -33.8120 C.3    16  TRP16       0.1640
     49  C         -4.3110   -9.3890  -33.4270 C.2    16  TRP16       0.2290
     50  O         -4.6900   -9.5700  -32.2710 O.2    16  TRP16      -0.2864
     51  CB        -4.8470   -7.0420  -34.2220 C.3    16  TRP16       0.0576
     52  CG        -5.8000   -7.5250  -35.2760 C.ar   16  TRP16       0.0006
     53  CD1       -5.7920   -7.1980  -36.6020 C.ar   16  TRP16       0.0946
     54  CD2       -6.9230   -8.3980  -35.0870 C.ar   16  TRP16       0.0152
     55  NE1       -6.8290   -7.8230  -37.2510 N.ar   16  TRP16      -0.2442
     56  CE2       -7.5360   -8.5670  -36.3440 C.ar   16  TRP16       0.0810
     57  CE3       -7.4620   -9.0590  -33.9790 C.ar   16  TRP16       0.0012
     58  CZ2       -8.6610   -9.3700  -36.5220 C.ar   16  TRP16       0.0191
     59  CZ3       -8.5750   -9.8550  -34.1590 C.ar   16  TRP16       0.0001
     60  CH2       -9.1640  -10.0040  -35.4200 C.ar   16  TRP16       0.0015
     61  N         -1.9730  -10.6210  -30.8960 N.3    19  LEU19      -0.1245
     62  CA        -2.1630   -9.8510  -29.6750 C.3    19  LEU19       0.1561
     63  C         -3.2760  -10.4590  -28.8310 C.2    19  LEU19       0.2260
     64  O         -3.1010  -10.6980  -27.6360 O.2    19  LEU19      -0.2867
     65  CB        -2.4860   -8.3910  -30.0010 C.3    19  LEU19       0.0270
     66  CG        -2.7480   -7.4780  -28.8020 C.3    19  LEU19       0.0019
     67  CD1       -1.5110   -7.3870  -27.9250 C.3    19  LEU19       0.0001
     68  CD2       -3.1900   -6.0960  -29.2610 C.3    19  LEU19       0.0001
     69  N          2.3000   -5.9510  -27.2090 N.3   279  ALA279     -0.1245
     70  CA         2.1200   -5.6550  -28.6280 C.3   279  ALA279      0.1562
     71  C          3.4010   -5.9460  -29.3990 C.2   279  ALA279      0.2260
     72  O          3.3570   -6.4060  -30.5440 O.2   279  ALA279     -0.2867
     73  CB         1.6960   -4.2130  -28.8310 C.3   279  ALA279      0.0290
     74  N          4.1470   -8.8470  -32.3020 N.3   283  MET283     -0.1245
     75  CA         4.8060   -8.4880  -33.5550 C.3   283  MET283      0.1570
     76  C          5.9590   -9.4370  -33.8850 C.2   283  MET283      0.2261
     77  O          6.2680   -9.6590  -35.0530 O.2   283  MET283     -0.2867
     78  CB         5.3150   -7.0440  -33.4950 C.3   283  MET283      0.0387
     79  CG         5.2940   -6.3160  -34.8320 C.3   283  MET283      0.0595
     80  SD         5.4720   -4.5240  -34.6600 S.3   283  MET283     -0.1393
     81  CE         4.6530   -4.2680  -33.0880 C.3   283  MET283      0.0692
     82  N          8.6710    0.7100  -40.4260 N.3   309  ILE309     -0.1245
     83  CA         7.2970    0.9080  -39.9710 C.3   309  ILE309      0.1561
     84  C          7.0990    0.2630  -38.6020 C.2   309  ILE309      0.2260
     85  O          6.5580    0.8810  -37.6870 O.2   309  ILE309     -0.2867
     86  CB         6.2720    0.3250  -40.9680 C.3   309  ILE309      0.0252
     87  CG1        6.2580    1.1390  -42.2590 C.3   309  ILE309      0.0019
     88  CG2        4.8770    0.3030  -40.3590 C.3   309  ILE309      0.0019
     89  CD1        5.3320    0.5760  -43.3210 C.3   309  ILE309      0.0001
     90  N          6.2890    2.1720  -34.9170 N.3   313  PHE313     -0.1241
     91  CA         5.1800    1.8440  -34.0340 C.3   313  PHE313      0.1605
     92  C          5.6770    1.5450  -32.6230 C.2   313  PHE313      0.2264
     93  O          5.1670    2.0990  -31.6540 O.2   313  PHE313     -0.2867
     94  CB         4.3780    0.6530  -34.5650 C.3   313  PHE313      0.0534
     95  CG         3.3700    0.1240  -33.5820 C.ar  313  PHE313     -0.0203
     96  CD1        2.1420    0.7470  -33.4220 C.ar  313  PHE313     -0.0042
     97  CD2        3.6560   -0.9860  -32.8070 C.ar  313  PHE313     -0.0042
     98  CE1        1.2170    0.2660  -32.5090 C.ar  313  PHE313     -0.0003
     99  CE2        2.7320   -1.4730  -31.8890 C.ar  313  PHE313     -0.0003
    100  CZ         1.5130   -0.8450  -31.7430 C.ar  313  PHE313     -0.0000
    101  N          4.4970    3.6930  -29.5970 N.3   317  PHE317     -0.1241
    102  CA         3.5400    3.0150  -28.7300 C.3   317  PHE317      0.1605
    103  C          4.0630    2.8660  -27.2980 C.2   317  PHE317      0.2264
    104  O          3.3340    3.1190  -26.3360 O.2   317  PHE317     -0.2867
    105  CB         3.1940    1.6460  -29.3260 C.3   317  PHE317      0.0534
    106  CG         2.1150    0.9050  -28.5930 C.ar  317  PHE317     -0.0203
    107  CD1        0.8030    1.3530  -28.6150 C.ar  317  PHE317     -0.0042
    108  CD2        2.4080   -0.2670  -27.9150 C.ar  317  PHE317     -0.0042
    109  CE1       -0.1930    0.6560  -27.9490 C.ar  317  PHE317     -0.0003
    110  CE2        1.4190   -0.9690  -27.2500 C.ar  317  PHE317     -0.0003
    111  CZ         0.1170   -0.5070  -27.2650 C.ar  317  PHE317     -0.0000
@<TRIPOS>BOND
     1     5     6    1
     2     5     2    1
     3     1     2    1
     4     3     2    1
     5     3     4    2
     6    18    19    1
     7    18    17    1
     8    19    20    1
     9    16    17    1
    10    16    13    1
    11     7     8    1
    12    89    87    1
    13    12    13    1
    14    12     9   am
    15    13    14    1
    16    14    15    2
    17     8    11    1
    18     8     9    1
    19    87    86    1
    20     9    10    2
    21    21    22    1
    22    86    88    1
    23    86    83    1
    24    22    25    1
    25    22    23    1
    26    82    83    1
    27    25    26    1
    28    83    84    1
    29    29    23   am
    30    29    30    1
    31    23    24    2
    32    26    27    1
    33    26    28    1
    34    84    85    2
    35    33    30    1
    36    33    34    1
    37    31    30    1
    38    31    32    2
    39    36    34   ar
    40    36    38   ar
    41    34    35   ar
    42    38    39   ar
    43    55    53   ar
    44    55    56   ar
    45    40    41    1
    46    53    52   ar
    47    58    56   ar
    48    58    60   ar
    49    56    54   ar
    50    35    37   ar
    51    45    44    1
    52    39    37   ar
    53    41    44    1
    54    41    42    1
    55    60    59   ar
    56    44    46    1
    57    52    54   ar
    58    52    51    1
    59    54    57   ar
    60    77    76    2
    61    90    91    1
    62    47    42   am
    63    47    48    1
    64    79    80    1
    65    79    78    1
    66    80    81    1
    67    42    43    2
    68    94    91    1
    69    94    95    1
    70    51    48    1
    71    59    57   ar
    72    91    92    1
    73    76    75    1
    74    48    49    1
    75    95    96   ar
    76    95    97   ar
    77    75    78    1
    78    75    74    1
    79    49    50    2
    80    96    98   ar
    81    97    99   ar
    82    92    93    2
    83    98   100   ar
    84    99   100   ar
    85    61    62    1
    86    72    71    2
    87    65    62    1
    88    65    66    1
    89    62    63    1
    90   101   102    1
    91    71    70    1
    92   105   102    1
    93   105   106    1
    94    68    66    1
    95    63    64    2
    96    73    70    1
    97    66    67    1
    98   102   103    1
    99    70    69    1
   100   107   106   ar
   101   107   109   ar
   102   106   108   ar
   103   109   111   ar
   104   108   110   ar
   105   103   104    2
   106   111   110   ar
