@<TRIPOS>MOLECULE
tmp/6idpA03.pdb
 84 80 0 0 0
SMALL
GASTEIGER

@<TRIPOS>ATOM
      1  N          8.7380  -35.7650  -27.6100 N.3   100  ALA100     -0.1245
      2  CA         8.4370  -37.0490  -26.9770 C.3   100  ALA100      0.1562
      3  C          9.6830  -37.6490  -26.3330 C.2   100  ALA100      0.2260
      4  O          9.6360  -38.1270  -25.1980 O.2   100  ALA100     -0.2867
      5  CB         7.8470  -38.0180  -27.9890 C.3   100  ALA100      0.0290
      6  N         10.5340  -35.4920  -23.2910 N.3   103  ALA103     -0.1231
      7  CA         9.6140  -35.7770  -22.1950 C.3   103  ALA103      0.1694
      8  C          9.9580  -37.0890  -21.4920 C.2   103  ALA103      0.2591
      9  O          9.8710  -37.1870  -20.2680 O.2   103  ALA103     -0.2718
     10  CB         8.1810  -35.8120  -22.7080 C.3   103  ALA103      0.0304
     11  N         10.3550  -38.0880  -22.2740 N.am  104  LEU104     -0.1980
     12  CA        10.7080  -39.4010  -21.7410 C.3   104  LEU104      0.1596
     13  C         11.9250  -39.3470  -20.8200 C.2   104  LEU104      0.2287
     14  O         11.9020  -39.9020  -19.7210 O.2   104  LEU104     -0.2864
     15  CB        10.9690  -40.3860  -22.8850 C.3   104  LEU104      0.0297
     16  CG        11.5760  -41.7430  -22.5160 C.3   104  LEU104      0.0022
     17  CD1       10.6950  -42.4880  -21.5250 C.3   104  LEU104      0.0001
     18  CD2       11.8110  -42.5830  -23.7620 C.3   104  LEU104      0.0001
     19  N         11.2700  -37.4010  -17.3890 N.3   107  TYR107     -0.1227
     20  CA        10.5740  -38.1680  -16.3660 C.3   107  TYR107      0.1736
     21  C         11.4860  -39.2540  -15.8060 C.2   107  TYR107      0.2595
     22  O         11.4140  -39.5890  -14.6240 O.2   107  TYR107     -0.2718
     23  CB         9.2880  -38.7900  -16.9170 C.3   107  TYR107      0.0548
     24  CG         8.4500  -39.4440  -15.8420 C.ar  107  TYR107     -0.0200
     25  CD1        7.5400  -38.7040  -15.1010 C.ar  107  TYR107     -0.0009
     26  CD2        8.5830  -40.7970  -15.5560 C.ar  107  TYR107     -0.0009
     27  CE1        6.7790  -39.2920  -14.1110 C.ar  107  TYR107      0.0417
     28  CE2        7.8260  -41.3970  -14.5660 C.ar  107  TYR107      0.0417
     29  CZ         6.9260  -40.6390  -13.8470 C.ar  107  TYR107      0.1957
     30  OH         6.1690  -41.2300  -12.8630 O.3   107  TYR107     -0.2866
     31  N         12.3430  -39.7980  -16.6630 N.am  108  LEU108     -0.1980
     32  CA        13.2940  -40.8260  -16.2520 C.3   108  LEU108      0.1596
     33  C         14.2980  -40.2920  -15.2360 C.2   108  LEU108      0.2287
     34  O         14.7090  -41.0040  -14.3210 O.2   108  LEU108     -0.2864
     35  CB        14.0340  -41.3840  -17.4710 C.3   108  LEU108      0.0297
     36  CG        13.6740  -42.8010  -17.9250 C.3   108  LEU108      0.0022
     37  CD1       12.1750  -43.0420  -17.8390 C.3   108  LEU108      0.0001
     38  CD2       14.1910  -43.0580  -19.3340 C.3   108  LEU108      0.0001
     39  N         13.8520  -37.5820  -13.2060 N.3   110  ARG110     -0.1245
     40  CA        13.1680  -36.6050  -12.3650 C.3   110  ARG110      0.1563
     41  C         13.8380  -36.4610  -10.9950 C.2   110  ARG110      0.2260
     42  O         14.0400  -35.3440  -10.5240 O.2   110  ARG110     -0.2867
     43  CB        11.6850  -36.9680  -12.2060 C.3   110  ARG110      0.0307
     44  CG        11.4030  -38.3290  -11.5890 C.3   110  ARG110      0.0489
     45  CD         9.9320  -38.7030  -11.7110 C.3   110  ARG110      0.2205
     46  NE         9.6530  -39.9700  -11.0450 N.pl3 110  ARG110     -0.0865
     47  CZ         9.9400  -41.1590  -11.5620 C.cat 110  ARG110      0.5346
     48  NH1       10.5130  -41.2410  -12.7550 N.pl3 110  ARG110      0.1354
     49  NH2        9.6590  -42.2660  -10.8880 N.pl3 110  ARG110      0.1354
     50  N          3.6190  -37.0540  -15.2080 N.3   132  LEU132     -0.1245
     51  CA         3.0210  -37.9070  -16.2280 C.3   132  LEU132      0.1561
     52  C          1.9880  -37.1170  -17.0210 C.2   132  LEU132      0.2260
     53  O          2.0730  -37.0120  -18.2480 O.2   132  LEU132     -0.2867
     54  CB         2.3800  -39.1450  -15.5980 C.3   132  LEU132      0.0270
     55  CG         3.3670  -40.1790  -15.0550 C.3   132  LEU132      0.0019
     56  CD1        2.6380  -41.3240  -14.3710 C.3   132  LEU132      0.0001
     57  CD2        4.2530  -40.6940  -16.1780 C.3   132  LEU132      0.0001
     58  N          3.7810  -33.5720  -18.4860 N.3   135  LEU135     -0.1231
     59  CA         4.6310  -33.7410  -19.6630 C.3   135  LEU135      0.1693
     60  C          3.7820  -34.0550  -20.8900 C.2   135  LEU135      0.2591
     61  O          4.1130  -33.6520  -22.0070 O.2   135  LEU135     -0.2718
     62  CB         5.6720  -34.8420  -19.4390 C.3   135  LEU135      0.0284
     63  CG         6.8970  -34.4340  -18.6150 C.3   135  LEU135      0.0019
     64  CD1        7.7270  -35.6480  -18.2270 C.3   135  LEU135      0.0001
     65  CD2        7.7400  -33.4310  -19.3920 C.3   135  LEU135      0.0001
     66  N          2.6800  -34.7660  -20.6720 N.am  136  ALA136     -0.1980
     67  CA         1.7350  -35.0670  -21.7420 C.3   136  ALA136      0.1597
     68  C          1.0810  -33.7880  -22.2580 C.2   136  ALA136      0.2287
     69  O          0.8330  -33.6430  -23.4530 O.2   136  ALA136     -0.2864
     70  CB         0.6790  -36.0430  -21.2550 C.3   136  ALA136      0.0319
     71  N          3.6840  -31.8640  -24.3300 N.3   139  TRP139     -0.1241
     72  CA         3.8320  -32.4040  -25.6750 C.3   139  TRP139      0.1605
     73  C          2.6890  -31.9400  -26.5670 C.2   139  TRP139      0.2264
     74  O          2.9060  -31.5160  -27.7010 O.2   139  TRP139     -0.2867
     75  CB         3.8910  -33.9350  -25.6490 C.3   139  TRP139      0.0550
     76  CG         4.1520  -34.5390  -27.0020 C.ar  139  TRP139      0.0003
     77  CD1        5.3680  -34.8470  -27.5410 C.ar  139  TRP139      0.0946
     78  CD2        3.1750  -34.8980  -27.9880 C.ar  139  TRP139      0.0152
     79  NE1        5.2090  -35.3770  -28.7980 N.ar  139  TRP139     -0.2442
     80  CE2        3.8730  -35.4180  -29.0970 C.ar  139  TRP139      0.0810
     81  CE3        1.7790  -34.8290  -28.0410 C.ar  139  TRP139      0.0012
     82  CZ2        3.2200  -35.8700  -30.2460 C.ar  139  TRP139      0.0191
     83  CZ3        1.1340  -35.2770  -29.1820 C.ar  139  TRP139      0.0001
     84  CH2        1.8540  -35.7900  -30.2680 C.ar  139  TRP139      0.0015
@<TRIPOS>BOND
     1    84    82   ar
     2    84    83   ar
     3    82    80   ar
     4    83    81   ar
     5    80    79   ar
     6    80    78   ar
     7    79    77   ar
     8    81    78   ar
     9     5     2    1
    10    78    76   ar
    11    74    73    2
    12     1     2    1
    13    77    76   ar
    14    76    75    1
    15     2     3    1
    16    73    72    1
    17     3     4    2
    18    72    75    1
    19    72    71    1
    20    18    16    1
    21    69    68    2
    22     6     7    1
    23    15    16    1
    24    15    12    1
    25    10     7    1
    26    16    17    1
    27    11    12    1
    28    11     8   am
    29    68    67    1
    30     7     8    1
    31    61    60    2
    32    67    70    1
    33    67    66    1
    34    12    13    1
    35     8     9    2
    36    60    66   am
    37    60    59    1
    38    13    14    2
    39    59    62    1
    40    59    58    1
    41    62    63    1
    42    65    63    1
    43    38    36    1
    44    63    64    1
    45    53    52    2
    46    36    37    1
    47    36    35    1
    48    35    32    1
    49    19    20    1
    50    52    51    1
    51    23    20    1
    52    23    24    1
    53    31    32    1
    54    31    21   am
    55    20    21    1
    56    32    33    1
    57    51    54    1
    58    51    50    1
    59    57    55    1
    60    24    26   ar
    61    24    25   ar
    62    21    22    2
    63    54    55    1
    64    26    28   ar
    65    33    34    2
    66    25    27   ar
    67    55    56    1
    68    28    29   ar
    69    27    29   ar
    70    29    30    1
    71    39    40    1
    72    48    47    1
    73    40    43    1
    74    40    41    1
    75    43    44    1
    76    45    44    1
    77    45    46    1
    78    47    46    2
    79    47    49    1
    80    41    42    2
