@<TRIPOS>MOLECULE
tmp/6idpA11.pdb
 87 83 0 0 0
SMALL
GASTEIGER

@<TRIPOS>ATOM
      1  N         11.0990   -0.6100  -40.7270 N.3   308  ARG308     -0.1245
      2  CA        11.0950    0.7590  -40.2270 C.3   308  ARG308      0.1563
      3  C          9.7090    1.1530  -39.7230 C.2   308  ARG308      0.2260
      4  O          9.5880    1.8440  -38.7120 O.2   308  ARG308     -0.2867
      5  CB        11.5740    1.7280  -41.3110 C.3   308  ARG308      0.0307
      6  CG        13.0830    1.7130  -41.5050 C.3   308  ARG308      0.0489
      7  CD        13.5160    2.5410  -42.7020 C.3   308  ARG308      0.2205
      8  NE        14.9690    2.6750  -42.7650 N.pl3 308  ARG308     -0.0865
      9  CZ        15.6420    3.7360  -42.3300 C.cat 308  ARG308      0.5346
     10  NH1       14.9930    4.7660  -41.8060 N.pl3 308  ARG308      0.1354
     11  NH2       16.9640    3.7690  -42.4240 N.pl3 308  ARG308      0.1354
     12  N          9.4030   -0.4800  -36.3950 N.3   311  CYS311     -0.1221
     13  CA        10.2040    0.2250  -35.4000 C.3   311  CYS311      0.1808
     14  C          9.5400    1.5300  -34.9770 C.2   311  CYS311      0.2601
     15  O          9.5890    1.9030  -33.8050 O.2   311  CYS311     -0.2717
     16  CB        11.6120    0.5010  -35.9320 C.3   311  CYS311      0.0970
     17  SG        12.6790   -0.9550  -36.0050 S.3   311  CYS311     -0.0800
     18  N          8.9230    2.2200  -35.9320 N.am  312  GLN312     -0.1979
     19  CA         8.2150    3.4600  -35.6360 C.3   312  GLN312      0.1601
     20  C          7.0680    3.2190  -34.6660 C.2   312  GLN312      0.2287
     21  O          6.8930    3.9710  -33.7060 O.2   312  GLN312     -0.2864
     22  CB         7.6840    4.1050  -36.9150 C.3   312  GLN312      0.0394
     23  CG         8.7560    4.7230  -37.7880 C.3   312  GLN312      0.0908
     24  CD         8.2190    5.1630  -39.1340 C.2   312  GLN312      0.2608
     25  OE1        7.0520    5.5350  -39.2580 O.2   312  GLN312     -0.2717
     26  NE2        9.0680    5.1140  -40.1530 N.am  312  GLN312     -0.0878
     27  N          8.4880    2.3110  -31.0020 N.3   315  LEU315     -0.1245
     28  CA         8.9880    3.4970  -30.3160 C.3   315  LEU315      0.1561
     29  C          7.8530    4.4160  -29.8710 C.2   315  LEU315      0.2260
     30  O          7.8310    4.8760  -28.7310 O.2   315  LEU315     -0.2867
     31  CB         9.9570    4.2630  -31.2180 C.3   315  LEU315      0.0270
     32  CG        11.2760    3.5340  -31.4610 C.3   315  LEU315      0.0019
     33  CD1       12.1860    4.3460  -32.3650 C.3   315  LEU315      0.0001
     34  CD2       11.9470    3.2410  -30.1300 C.3   315  LEU315      0.0001
     35  N         13.0770    0.9740  -26.5210 N.3   359  ALA359     -0.1245
     36  CA        14.3910    0.5230  -26.9580 C.3   359  ALA359      0.1562
     37  C         14.5440   -0.9900  -26.7920 C.2   359  ALA359      0.2260
     38  O         15.1710   -1.6480  -27.6190 O.2   359  ALA359     -0.2867
     39  CB        15.4770    1.2560  -26.1900 C.3   359  ALA359      0.0290
     40  N         12.7210   -2.6530  -29.5440 N.3   362  ILE362     -0.1245
     41  CA        13.5170   -2.6270  -30.7690 C.3   362  ILE362      0.1561
     42  C         14.4740   -3.8150  -30.7990 C.2   362  ILE362      0.2260
     43  O         14.6260   -4.4830  -31.8250 O.2   362  ILE362     -0.2867
     44  CB        14.3240   -1.3200  -30.9040 C.3   362  ILE362      0.0252
     45  CG1       13.3890   -0.1290  -31.1380 C.3   362  ILE362      0.0019
     46  CG2       15.3400   -1.4300  -32.0400 C.3   362  ILE362      0.0019
     47  CD1       12.5820   -0.2240  -32.4270 C.3   362  ILE362      0.0001
     48  N         18.3000    0.8980  -23.1990 N.3   416  ILE416     -0.1245
     49  CA        18.4880    1.8950  -24.2430 C.3   416  ILE416      0.1561
     50  C         19.7110    1.5840  -25.0970 C.2   416  ILE416      0.2260
     51  O         19.6490    1.6430  -26.3290 O.2   416  ILE416     -0.2867
     52  CB        18.6230    3.3020  -23.6420 C.3   416  ILE416      0.0252
     53  CG1       17.2610    3.7810  -23.1390 C.3   416  ILE416      0.0019
     54  CG2       19.1950    4.2810  -24.6670 C.3   416  ILE416      0.0019
     55  CD1       17.2860    5.1640  -22.5330 C.3   416  ILE416      0.0001
     56  N         19.0360   -1.5560  -27.3310 N.3   419  GLY419     -0.1210
     57  CA        18.1890   -1.2780  -28.4760 C.3   419  GLY419      0.1956
     58  C         18.9440   -0.5620  -29.5800 C.2   419  GLY419      0.2611
     59  O         18.7730   -0.8570  -30.7660 O.2   419  GLY419     -0.2717
     60  N         19.7840    0.3870  -29.1810 N.am  420  TRP420     -0.1976
     61  CA        20.6100    1.1290  -30.1170 C.3   420  TRP420      0.1640
     62  C         21.6230    0.1970  -30.7770 C.2   420  TRP420      0.2290
     63  O         21.8560    0.2690  -31.9850 O.2   420  TRP420     -0.2864
     64  CB        21.3050    2.2880  -29.3960 C.3   420  TRP420      0.0576
     65  CG        22.1880    3.1290  -30.2680 C.ar  420  TRP420      0.0006
     66  CD1       23.5140    3.3970  -30.0740 C.ar  420  TRP420      0.0946
     67  CD2       21.8120    3.8160  -31.4690 C.ar  420  TRP420      0.0152
     68  NE1       23.9850    4.2080  -31.0770 N.ar  420  TRP420     -0.2442
     69  CE2       22.9620    4.4780  -31.9470 C.ar  420  TRP420      0.0810
     70  CE3       20.6180    3.9360  -32.1860 C.ar  420  TRP420      0.0012
     71  CZ2       22.9500    5.2480  -33.1090 C.ar  420  TRP420      0.0191
     72  CZ3       20.6100    4.6990  -33.3390 C.ar  420  TRP420      0.0001
     73  CH2       21.7670    5.3440  -33.7890 C.ar  420  TRP420      0.0015
     74  N         19.8570   -2.1600  -33.3740 N.3   423  TRP423     -0.1241
     75  CA        19.5850   -1.4620  -34.6200 C.3   423  TRP423      0.1605
     76  C         20.8470   -1.3290  -35.4760 C.2   423  TRP423      0.2264
     77  O         20.7870   -1.4390  -36.6990 O.2   423  TRP423     -0.2867
     78  CB        18.9830   -0.0810  -34.3370 C.3   423  TRP423      0.0550
     79  CG        18.9230    0.7910  -35.5520 C.ar  423  TRP423      0.0003
     80  CD1       19.7490    1.8340  -35.8520 C.ar  423  TRP423      0.0946
     81  CD2       17.9930    0.6910  -36.6340 C.ar  423  TRP423      0.0152
     82  NE1       19.3880    2.3920  -37.0530 N.ar  423  TRP423     -0.2442
     83  CE2       18.3130    1.7080  -37.5540 C.ar  423  TRP423      0.0810
     84  CE3       16.9200   -0.1610  -36.9150 C.ar  423  TRP423      0.0012
     85  CZ2       17.5970    1.8970  -38.7360 C.ar  423  TRP423      0.0191
     86  CZ3       16.2110    0.0280  -38.0890 C.ar  423  TRP423      0.0001
     87  CH2       16.5520    1.0480  -38.9840 C.ar  423  TRP423      0.0015
@<TRIPOS>BOND
     1     8     7    1
     2     8     9    2
     3     7     6    1
     4    11     9    1
     5     9    10    1
     6     6     5    1
     7     5     2    1
     8     1     2    1
     9     2     3    1
    10    26    24   am
    11     3     4    2
    12    25    24    2
    13    24    23    1
    14    87    85   ar
    15    87    86   ar
    16    85    83   ar
    17    86    84   ar
    18    23    22    1
    19    83    82   ar
    20    83    81   ar
    21    82    80   ar
    22    84    81   ar
    23    22    19    1
    24    77    76    2
    25    81    79   ar
    26    12    13    1
    27    17    16    1
    28    18    19    1
    29    18    14   am
    30    16    13    1
    31    80    79   ar
    32    19    20    1
    33    79    78    1
    34    76    75    1
    35    13    14    1
    36    14    15    2
    37    20    21    2
    38    75    78    1
    39    75    74    1
    40    73    72   ar
    41    73    71   ar
    42    72    70   ar
    43    71    69   ar
    44    47    45    1
    45    33    32    1
    46    70    67   ar
    47    46    44    1
    48    63    62    2
    49    69    67   ar
    50    69    68   ar
    51    43    42    2
    52    67    65   ar
    53    32    31    1
    54    32    34    1
    55    31    28    1
    56    45    44    1
    57    68    66   ar
    58    27    28    1
    59    44    41    1
    60    42    41    1
    61    62    61    1
    62    41    40    1
    63    59    58    2
    64    28    29    1
    65    65    66   ar
    66    65    64    1
    67    61    64    1
    68    61    60    1
    69    29    30    2
    70    58    60   am
    71    58    57    1
    72    57    56    1
    73    38    37    2
    74    36    37    1
    75    36    35    1
    76    36    39    1
    77    51    50    2
    78    50    49    1
    79    54    52    1
    80    49    52    1
    81    49    48    1
    82    52    53    1
    83    53    55    1
