@<TRIPOS>MOLECULE
tmp/6idpA12.pdb
 94 88 0 0 0
SMALL
GASTEIGER

@<TRIPOS>ATOM
      1  N         13.0420   -6.6760  -51.4680 N.3   300  ILE300     -0.1231
      2  CA        13.9870   -6.1380  -50.4930 C.3   300  ILE300      0.1692
      3  C         13.6320   -4.7190  -50.0350 C.2   300  ILE300      0.2592
      4  O         13.8260   -4.3770  -48.8660 O.2   300  ILE300     -0.2718
      5  CB        15.4280   -6.1550  -51.0530 C.3   300  ILE300      0.0266
      6  CG1       15.7750   -7.5530  -51.5800 C.3   300  ILE300      0.0019
      7  CG2       16.4300   -5.7240  -49.9870 C.3   300  ILE300      0.0020
      8  CD1       15.5340   -8.6690  -50.5710 C.3   300  ILE300      0.0001
      9  N         13.1100   -3.8990  -50.9450 N.am  301  THR301     -0.1953
     10  CA        12.6560   -2.5590  -50.5810 C.3   301  THR301      0.1897
     11  C         11.5720   -2.6330  -49.5120 C.2   301  THR301      0.2313
     12  O         11.6150   -1.9080  -48.5140 O.2   301  THR301     -0.2863
     13  CB        12.0980   -1.7870  -51.7890 C.3   301  THR301      0.1794
     14  OG1       13.1190   -1.6390  -52.7810 O.3   301  THR301     -0.2208
     15  CG2       11.6080   -0.4050  -51.3620 C.3   301  THR301      0.0378
     16  N         12.8500   -3.4790  -45.9290 N.3   304  ARG304     -0.1231
     17  CA        13.3830   -2.3130  -45.2360 C.3   304  ARG304      0.1694
     18  C         12.2650   -1.3760  -44.7810 C.2   304  ARG304      0.2591
     19  O         12.2850   -0.8860  -43.6500 O.2   304  ARG304     -0.2718
     20  CB        14.3790   -1.5710  -46.1290 C.3   304  ARG304      0.0321
     21  CG        15.6660   -2.3420  -46.3640 C.3   304  ARG304      0.0489
     22  CD        16.8790   -1.5000  -46.0230 C.3   304  ARG304      0.2205
     23  NE        17.2150   -0.5810  -47.1000 N.pl3 304  ARG304     -0.0865
     24  CZ        17.9120    0.5380  -46.9380 C.cat 304  ARG304      0.5346
     25  NH1       18.3420    0.8870  -45.7350 N.pl3 304  ARG304      0.1354
     26  NH2       18.1740    1.3110  -47.9820 N.pl3 304  ARG304      0.1354
     27  N         11.2840   -1.1500  -45.6490 N.am  305  GLN305     -0.1979
     28  CA        10.1460   -0.2990  -45.3100 C.3   305  GLN305      0.1601
     29  C          9.3260   -0.8650  -44.1410 C.2   305  GLN305      0.2287
     30  O          9.0250   -0.1510  -43.1870 O.2   305  GLN305     -0.2864
     31  CB         9.2490   -0.0920  -46.5380 C.3   305  GLN305      0.0394
     32  CG         9.9180    0.7060  -47.6520 C.3   305  GLN305      0.0908
     33  CD         8.9900    1.0140  -48.8160 C.2   305  GLN305      0.2608
     34  OE1        8.1430    0.2010  -49.1910 O.2   305  GLN305     -0.2717
     35  NE2        9.1550    2.1940  -49.4000 N.am  305  GLN305     -0.0878
     36  N         11.0990   -0.6100  -40.7270 N.3   308  ARG308     -0.1245
     37  CA        11.0950    0.7590  -40.2270 C.3   308  ARG308      0.1563
     38  C          9.7090    1.1530  -39.7230 C.2   308  ARG308      0.2260
     39  O          9.5880    1.8440  -38.7120 O.2   308  ARG308     -0.2867
     40  CB        11.5740    1.7280  -41.3110 C.3   308  ARG308      0.0307
     41  CG        13.0830    1.7130  -41.5050 C.3   308  ARG308      0.0489
     42  CD        13.5160    2.5410  -42.7020 C.3   308  ARG308      0.2205
     43  NE        14.9690    2.6750  -42.7650 N.pl3 308  ARG308     -0.0865
     44  CZ        15.6420    3.7360  -42.3300 C.cat 308  ARG308      0.5346
     45  NH1       14.9930    4.7660  -41.8060 N.pl3 308  ARG308      0.1354
     46  NH2       16.9640    3.7690  -42.4240 N.pl3 308  ARG308      0.1354
     47  N         21.6980   -3.0820  -39.1410 N.3   427  GLN427     -0.1245
     48  CA        22.1600   -2.2950  -40.2750 C.3   427  GLN427      0.1566
     49  C         23.4620   -2.8500  -40.8400 C.2   427  GLN427      0.2260
     50  O         23.6700   -2.8450  -42.0520 O.2   427  GLN427     -0.2867
     51  CB        22.3320   -0.8300  -39.8800 C.3   427  GLN427      0.0367
     52  CG        21.0190   -0.1140  -39.6450 C.3   427  GLN427      0.0905
     53  CD        21.1080    1.3740  -39.9140 C.2   427  GLN427      0.2608
     54  OE1       20.3490    1.9150  -40.7170 O.2   427  GLN427     -0.2717
     55  NE2       22.0350    2.0450  -39.2390 N.am  427  GLN427     -0.0878
     56  N         22.7050   -5.9860  -42.9350 N.3   430  LEU430     -0.1231
     57  CA        22.2040   -5.7120  -44.2800 C.3   430  LEU430      0.1693
     58  C         23.3540   -5.3720  -45.2290 C.2   430  LEU430      0.2591
     59  O         23.3290   -5.7430  -46.4040 O.2   430  LEU430     -0.2718
     60  CB        21.1800   -4.5710  -44.2660 C.3   430  LEU430      0.0284
     61  CG        19.8310   -4.7870  -43.5680 C.3   430  LEU430      0.0019
     62  CD1       18.9800   -3.5250  -43.6570 C.3   430  LEU430      0.0001
     63  CD2       19.0880   -5.9740  -44.1610 C.3   430  LEU430      0.0001
     64  N         24.3590   -4.6680  -44.7120 N.am  431  ARG431     -0.1980
     65  CA        25.5330   -4.3060  -45.5000 C.3   431  ARG431      0.1597
     66  C         26.4610   -5.4930  -45.7370 C.2   431  ARG431      0.2287
     67  O         27.2630   -5.4810  -46.6700 O.2   431  ARG431     -0.2864
     68  CB        26.3230   -3.1800  -44.8170 C.3   431  ARG431      0.0334
     69  CG        25.5700   -1.8680  -44.6530 C.3   431  ARG431      0.0492
     70  CD        26.5030   -0.7320  -44.2440 C.3   431  ARG431      0.2205
     71  NE        27.1290   -0.9550  -42.9410 N.pl3 431  ARG431     -0.0865
     72  CZ        26.6170   -0.5460  -41.7830 C.cat 431  ARG431      0.5346
     73  NH1       25.4630    0.1070  -41.7580 N.pl3 431  ARG431      0.1354
     74  NH2       27.2590   -0.7900  -40.6490 N.pl3 431  ARG431      0.1354
     75  N         24.6230   -8.4850  -49.9490 N.3   434  ASN434     -0.1240
     76  CA        23.5860   -7.9270  -50.7990 C.3   434  ASN434      0.1653
     77  C         22.4110   -8.8960  -50.8700 C.2   434  ASN434      0.2266
     78  O         22.5080   -9.9570  -51.4910 O.2   434  ASN434     -0.2867
     79  CB        24.1290   -7.6370  -52.1990 C.3   434  ASN434      0.1155
     80  CG        23.2230   -6.7190  -52.9980 C.2   434  ASN434      0.2627
     81  OD1       22.0060   -6.7010  -52.8070 O.2   434  ASN434     -0.2716
     82  ND2       23.8170   -5.9440  -53.9000 N.am  434  ASN434     -0.0877
     83  N         19.8160   -8.7900  -52.5370 N.3   436  TYR436     -0.1241
     84  CA        19.2770   -8.9760  -53.8800 C.3   436  TYR436      0.1605
     85  C         19.8160  -10.2490  -54.5240 C.2   436  TYR436      0.2264
     86  O         19.1250  -10.8950  -55.3120 O.2   436  TYR436     -0.2867
     87  CB        19.5940   -7.7730  -54.7680 C.3   436  TYR436      0.0534
     88  CG        18.7360   -6.5570  -54.5060 C.ar  436  TYR436     -0.0201
     89  CD1       17.3570   -6.6120  -54.6530 C.ar  436  TYR436     -0.0009
     90  CD2       19.3090   -5.3470  -54.1400 C.ar  436  TYR436     -0.0009
     91  CE1       16.5690   -5.4990  -54.4260 C.ar  436  TYR436      0.0417
     92  CE2       18.5320   -4.2290  -53.9130 C.ar  436  TYR436      0.0417
     93  CZ        17.1630   -4.3120  -54.0560 C.ar  436  TYR436      0.1957
     94  OH        16.3830   -3.2040  -53.8300 O.3   436  TYR436     -0.2866
@<TRIPOS>BOND
     1    86    85    2
     2    87    88    1
     3    87    84    1
     4    89    88   ar
     5    89    91   ar
     6    85    84    1
     7    88    90   ar
     8    91    93   ar
     9    90    92   ar
    10    93    92   ar
    11    93    94    1
    12    82    80   am
    13    84    83    1
    14    80    81    2
    15    80    79    1
    16    14    13    1
    17    79    76    1
    18    13    15    1
    19    13    10    1
    20     6     5    1
    21     6     8    1
    22    78    77    2
    23     1     2    1
    24     5     2    1
    25     5     7    1
    26     9    10    1
    27     9     3   am
    28    77    76    1
    29    76    75    1
    30    10    11    1
    31     2     3    1
    32     3     4    2
    33    11    12    2
    34    35    33   am
    35    34    33    2
    36    33    32    1
    37    26    24    1
    38    32    31    1
    39    23    24    2
    40    23    22    1
    41    24    25    1
    42    67    66    2
    43    31    28    1
    44    59    58    2
    45    21    20    1
    46    21    22    1
    47    20    17    1
    48    16    17    1
    49    66    65    1
    50    27    28    1
    51    27    18   am
    52    65    68    1
    53    65    64    1
    54    28    29    1
    55    17    18    1
    56    58    64   am
    57    58    57    1
    58    68    69    1
    59    18    19    2
    60    69    70    1
    61    57    60    1
    62    57    56    1
    63    60    61    1
    64    70    71    1
    65    63    61    1
    66    29    30    2
    67    62    61    1
    68    71    72    2
    69    43    42    1
    70    43    44    2
    71    42    41    1
    72    46    44    1
    73    44    45    1
    74    50    49    2
    75    72    73    1
    76    72    74    1
    77    41    40    1
    78    40    37    1
    79    49    48    1
    80    36    37    1
    81    54    53    2
    82    48    51    1
    83    48    47    1
    84    37    38    1
    85    53    52    1
    86    53    55   am
    87    51    52    1
    88    38    39    2
