@<TRIPOS>MOLECULE
tmp/6idpA06.pdb
 126 116 0 0 0
SMALL
GASTEIGER

@<TRIPOS>ATOM
      1  N         -2.3010  -13.9760  -27.4080 N.3    22  VAL22      -0.1245
      2  CA        -1.4480  -13.8770  -26.2300 C.3    22  VAL22       0.1561
      3  C         -2.2360  -13.3770  -25.0170 C.2    22  VAL22       0.2260
      4  O         -2.0980  -13.9100  -23.9170 O.2    22  VAL22      -0.2867
      5  CB        -0.2460  -12.9460  -26.4930 C.3    22  VAL22       0.0252
      6  CG1        0.5220  -12.6740  -25.2080 C.3    22  VAL22       0.0019
      7  CG2        0.6670  -13.5560  -27.5380 C.3    22  VAL22       0.0019
      8  N         -4.4780  -15.9750  -23.6970 N.3    25  LEU25      -0.1245
      9  CA        -3.6060  -16.9340  -23.0350 C.3    25  LEU25       0.1561
     10  C         -3.2530  -16.4980  -21.6120 C.2    25  LEU25       0.2260
     11  O         -3.3500  -17.2860  -20.6710 O.2    25  LEU25      -0.2867
     12  CB        -2.3320  -17.1360  -23.8620 C.3    25  LEU25       0.0270
     13  CG        -1.2300  -18.0210  -23.2860 C.3    25  LEU25       0.0019
     14  CD1       -1.7860  -19.3820  -22.9190 C.3    25  LEU25       0.0001
     15  CD2       -0.0870  -18.1570  -24.2820 C.3    25  LEU25       0.0001
     16  N         -4.1040  -18.0910  -17.6720 N.3    29  GLN29      -0.1245
     17  CA        -2.9810  -18.4020  -16.7910 C.3    29  GLN29       0.1566
     18  C         -3.0700  -17.6950  -15.4410 C.2    29  GLN29       0.2260
     19  O         -2.7240  -18.2730  -14.4110 O.2    29  GLN29      -0.2867
     20  CB        -1.6590  -18.0400  -17.4750 C.3    29  GLN29       0.0367
     21  CG        -1.3380  -18.8800  -18.7040 C.3    29  GLN29       0.0905
     22  CD        -0.0750  -18.4240  -19.4140 C.2    29  GLN29       0.2608
     23  OE1        0.2550  -17.2380  -19.4210 O.2    29  GLN29      -0.2717
     24  NE2        0.6410  -19.3700  -20.0130 N.am   29  GLN29      -0.0878
     25  N          9.5560  -25.0160  -23.4370 N.3    58  ILE58      -0.1245
     26  CA         9.1020  -23.8320  -24.1540 C.3    58  ILE58       0.1561
     27  C         10.2260  -23.2650  -25.0170 C.2    58  ILE58       0.2260
     28  O         10.0100  -22.9280  -26.1810 O.2    58  ILE58      -0.2867
     29  CB         8.5870  -22.7480  -23.1870 C.3    58  ILE58       0.0252
     30  CG1        7.3570  -23.2570  -22.4340 C.3    58  ILE58       0.0019
     31  CG2        8.2430  -21.4740  -23.9440 C.3    58  ILE58       0.0019
     32  CD1        6.2440  -23.7410  -23.3380 C.3    58  ILE58       0.0001
     33  N         10.5230  -25.5670  -28.1230 N.3    61  GLN61      -0.1231
     34  CA         9.4470  -25.4710  -29.1020 C.3    61  GLN61       0.1698
     35  C          9.4300  -24.1030  -29.7890 C.2    61  GLN61       0.2592
     36  O          9.0490  -23.9980  -30.9560 O.2    61  GLN61      -0.2718
     37  CB         8.0880  -25.7630  -28.4500 C.3    61  GLN61       0.0381
     38  CG         7.4980  -24.6270  -27.6310 C.3    61  GLN61       0.0905
     39  CD         6.1990  -25.0190  -26.9540 C.2    61  GLN61       0.2608
     40  OE1        6.1660  -25.9310  -26.1280 O.2    61  GLN61      -0.2717
     41  NE2        5.1210  -24.3320  -27.3020 N.am   61  GLN61      -0.0878
     42  N          9.8500  -23.0620  -29.0750 N.am   62  VAL62      -0.1980
     43  CA         9.9200  -21.7300  -29.6680 C.3    62  VAL62       0.1595
     44  C         11.0580  -21.6810  -30.6860 C.2    62  VAL62       0.2287
     45  O         10.8930  -21.1470  -31.7830 O.2    62  VAL62      -0.2864
     46  CB        10.1080  -20.6330  -28.6000 C.3    62  VAL62       0.0276
     47  CG1       10.5190  -19.3180  -29.2450 C.3    62  VAL62       0.0022
     48  CG2        8.8200  -20.4460  -27.8130 C.3    62  VAL62       0.0022
     49  N          0.8250  -29.3210  -26.1500 N.3   141  GLY141     -0.1225
     50  CA         0.9770  -27.8910  -26.3490 C.3   141  GLY141      0.1811
     51  C          2.0320  -27.5500  -27.3840 C.2   141  GLY141      0.2280
     52  O          1.8520  -26.6370  -28.1900 O.2   141  GLY141     -0.2866
     53  N          0.5870  -28.3410  -30.9160 N.3   144  LEU144     -0.1231
     54  CA        -0.3410  -27.2930  -31.3240 C.3   144  LEU144      0.1693
     55  C          0.4430  -26.0590  -31.7640 C.2   144  LEU144      0.2592
     56  O          0.1030  -25.4170  -32.7570 O.2   144  LEU144     -0.2718
     57  CB        -1.3070  -26.9440  -30.1880 C.3   144  LEU144      0.0284
     58  CG        -2.3870  -25.8970  -30.4760 C.3   144  LEU144      0.0019
     59  CD1       -3.2220  -26.2990  -31.6830 C.3   144  LEU144      0.0001
     60  CD2       -3.2790  -25.6880  -29.2620 C.3   144  LEU144      0.0001
     61  N          1.5060  -25.7480  -31.0260 N.am  145  TYR145     -0.1976
     62  CA         2.3550  -24.6090  -31.3480 C.3   145  TYR145      0.1639
     63  C          3.0520  -24.7890  -32.6980 C.2   145  TYR145      0.2290
     64  O          3.2180  -23.8270  -33.4500 O.2   145  TYR145     -0.2864
     65  CB         3.3940  -24.3810  -30.2440 C.3   145  TYR145      0.0560
     66  CG         4.2380  -23.1430  -30.4640 C.ar  145  TYR145     -0.0198
     67  CD1        3.7610  -21.8860  -30.1180 C.ar  145  TYR145     -0.0009
     68  CD2        5.5080  -23.2290  -31.0240 C.ar  145  TYR145     -0.0009
     69  CE1        4.5210  -20.7490  -30.3200 C.ar  145  TYR145      0.0417
     70  CE2        6.2780  -22.0950  -31.2300 C.ar  145  TYR145      0.0417
     71  CZ         5.7780  -20.8590  -30.8750 C.ar  145  TYR145      0.1957
     72  OH         6.5350  -19.7270  -31.0730 O.3   145  TYR145     -0.2866
     73  N          0.6700  -24.0420  -35.3120 N.3   148  TYR148     -0.1241
     74  CA         0.5480  -22.5870  -35.3490 C.3   148  TYR148      0.1605
     75  C          1.6840  -21.9690  -36.1550 C.2   148  TYR148      0.2264
     76  O          1.4860  -20.9910  -36.8750 O.2   148  TYR148     -0.2867
     77  CB         0.5460  -21.9950  -33.9330 C.3   148  TYR148      0.0534
     78  CG        -0.7230  -22.2220  -33.1450 C.ar  148  TYR148     -0.0201
     79  CD1       -1.8710  -22.7150  -33.7540 C.ar  148  TYR148     -0.0009
     80  CD2       -0.7750  -21.9310  -31.7870 C.ar  148  TYR148     -0.0009
     81  CE1       -3.0340  -22.9170  -33.0250 C.ar  148  TYR148      0.0417
     82  CE2       -1.9300  -22.1320  -31.0540 C.ar  148  TYR148      0.0417
     83  CZ        -3.0540  -22.6220  -31.6760 C.ar  148  TYR148      0.1957
     84  OH        -4.1990  -22.8200  -30.9420 O.3   148  TYR148     -0.2866
     85  N         -6.0490  -19.8130  -30.0730 N.3   164  MET164     -0.1245
     86  CA        -5.4650  -19.5140  -28.7700 C.3   164  MET164      0.1570
     87  C         -6.5410  -18.9840  -27.8320 C.2   164  MET164      0.2261
     88  O         -6.5410  -19.2950  -26.6430 O.2   164  MET164     -0.2867
     89  CB        -4.3170  -18.5090  -28.8940 C.3   164  MET164      0.0387
     90  CG        -3.0650  -19.0830  -29.5300 C.3   164  MET164      0.0595
     91  SD        -1.8300  -17.8220  -29.9050 S.3   164  MET164     -0.1393
     92  CE        -1.2550  -17.4120  -28.2620 C.3   164  MET164      0.0692
     93  N         -8.8730  -22.2040  -26.9810 N.3   167  THR167     -0.1218
     94  CA        -8.2720  -23.1280  -26.0260 C.3   167  THR167      0.1862
     95  C         -8.1170  -22.4860  -24.6460 C.2   167  THR167      0.2287
     96  O         -8.2050  -23.1710  -23.6280 O.2   167  THR167     -0.2866
     97  CB        -6.9000  -23.6410  -26.5140 C.3   167  THR167      0.1770
     98  OG1       -6.0140  -22.5340  -26.7170 O.3   167  THR167     -0.2211
     99  CG2       -7.0520  -24.4170  -27.8180 C.3   167  THR167      0.0375
    100  N         -5.8370  -28.1080  -25.3890 N.3   197  PHE197     -0.1241
    101  CA        -4.8780  -28.1280  -26.4870 C.3   197  PHE197      0.1605
    102  C         -5.1950  -29.2420  -27.4790 C.2   197  PHE197      0.2264
    103  O         -4.8860  -29.1340  -28.6660 O.2   197  PHE197     -0.2867
    104  CB        -3.4540  -28.2950  -25.9580 C.3   197  PHE197      0.0534
    105  CG        -2.8810  -27.0480  -25.3500 C.ar  197  PHE197     -0.0203
    106  CD1       -3.4470  -25.8080  -25.6010 C.ar  197  PHE197     -0.0042
    107  CD2       -1.7670  -27.1160  -24.5320 C.ar  197  PHE197     -0.0042
    108  CE1       -2.9110  -24.6600  -25.0390 C.ar  197  PHE197     -0.0003
    109  CE2       -1.2240  -25.9730  -23.9740 C.ar  197  PHE197     -0.0003
    110  CZ        -1.7960  -24.7460  -24.2290 C.ar  197  PHE197     -0.0000
    111  N          5.5830   -8.1790  -28.4240 N.3   281  LEU281     -0.1245
    112  CA         5.6200   -9.6360  -28.3830 C.3   281  LEU281      0.1561
    113  C          4.7990  -10.2400  -29.5250 C.2   281  LEU281      0.2260
    114  O          5.2530  -11.1590  -30.2080 O.2   281  LEU281     -0.2867
    115  CB         5.1110  -10.1380  -27.0310 C.3   281  LEU281      0.0270
    116  CG         5.5400  -11.5330  -26.5670 C.3   281  LEU281      0.0019
    117  CD1        4.5980  -12.6220  -27.0730 C.3   281  LEU281      0.0001
    118  CD2        6.9840  -11.8220  -26.9720 C.3   281  LEU281      0.0001
    119  N          5.8770  -12.4440  -33.6570 N.3   285  MET285     -0.1245
    120  CA         5.2820  -13.6480  -34.2170 C.3   285  MET285      0.1570
    121  C          4.6130  -13.3760  -35.5650 C.2   285  MET285      0.2261
    122  O          4.4240  -14.2900  -36.3640 O.2   285  MET285     -0.2867
    123  CB         4.2730  -14.2460  -33.2370 C.3   285  MET285      0.0387
    124  CG         4.9150  -14.8580  -32.0060 C.3   285  MET285      0.0595
    125  SD         3.7040  -15.4690  -30.8230 S.3   285  MET285     -0.1393
    126  CE         2.9500  -13.9320  -30.3030 C.3   285  MET285      0.0692
@<TRIPOS>BOND
     1    76    75    2
     2   122   121    2
     3    75    74    1
     4   121   120    1
     5    74    73    1
     6    74    77    1
     7   120   119    1
     8   120   123    1
     9    77    78    1
    10    79    78   ar
    11    79    81   ar
    12    64    63    2
    13   123   124    1
    14    78    80   ar
    15    81    83   ar
    16    56    55    2
    17    63    62    1
    18   124   125    1
    19    80    82   ar
    20    45    44    2
    21    55    54    1
    22    55    61   am
    23    59    58    1
    24    83    82   ar
    25    83    84    1
    26    62    61    1
    27    62    65    1
    28    54    53    1
    29    54    57    1
    30    70    68   ar
    31    70    71   ar
    32    72    71    1
    33    68    66   ar
    34    36    35    2
    35    71    69   ar
    36   125   126    1
    37    44    43    1
    38    58    57    1
    39    58    60    1
    40    66    65    1
    41    66    67   ar
    42    69    67   ar
    43   114   113    2
    44    85    86    1
    45    91    90    1
    46    91    92    1
    47    35    34    1
    48    35    42   am
    49    43    42    1
    50    43    46    1
    51    90    89    1
    52   113   112    1
    53    47    46    1
    54    34    37    1
    55    34    33    1
    56    89    86    1
    57    86    87    1
    58   103   102    2
    59    46    48    1
    60    37    38    1
    61   111   112    1
    62   112   115    1
    63    52    51    2
    64    87    88    2
    65    99    97    1
    66    38    39    1
    67     7     5    1
    68   102   101    1
    69     1     2    1
    70    51    50    1
    71    41    39   am
    72   117   116    1
    73   115   116    1
    74    93    94    1
    75   118   116    1
    76    39    40    2
    77    98    97    1
    78    97    94    1
    79     5     2    1
    80     5     6    1
    81   101   104    1
    82   101   100    1
    83    50    49    1
    84     2     3    1
    85    28    27    2
    86    94    95    1
    87   104   105    1
    88   106   105   ar
    89   106   108   ar
    90   105   107   ar
    91   108   110   ar
    92     3     4    2
    93    27    26    1
    94    95    96    2
    95   107   109   ar
    96    15    13    1
    97   110   109   ar
    98    26    25    1
    99    26    29    1
   100    31    29    1
   101    12    13    1
   102    12     9    1
   103     8     9    1
   104    32    30    1
   105    13    14    1
   106    29    30    1
   107     9    10    1
   108    10    11    2
   109    24    22   am
   110    23    22    2
   111    22    21    1
   112    21    20    1
   113    16    17    1
   114    20    17    1
   115    17    18    1
   116    18    19    2
