@<TRIPOS>MOLECULE
tmp/6idrA02.pdb
 107 101 0 0 0
SMALL
GASTEIGER

@<TRIPOS>ATOM
      1  N        -18.5400   20.6000  -27.7270 N.3   244  PRO244     -0.2116
      2  CA       -18.0960   21.5140  -28.7910 C.3   244  PRO244      0.1372
      3  C        -18.1130   20.9310  -30.2160 C.2   244  PRO244      0.2244
      4  O        -18.5460   21.6480  -31.1190 O.2   244  PRO244     -0.2868
      5  CB       -16.6640   21.8710  -28.3740 C.3   244  PRO244      0.0268
      6  CG       -16.6400   21.6720  -26.9090 C.3   244  PRO244      0.0207
      7  CD       -17.5360   20.4990  -26.6500 C.3   244  PRO244      0.0892
      8  N        -21.5570   20.7800  -31.3220 N.3   247  SER247     -0.1202
      9  CA       -22.0570   22.1330  -31.5270 C.3   247  SER247      0.2020
     10  C        -21.6340   22.6630  -32.8960 C.2   247  SER247      0.2619
     11  O        -22.3700   23.4150  -33.5350 O.2   247  SER247     -0.2717
     12  CB       -21.5570   23.0650  -30.4200 C.3   247  SER247      0.2103
     13  OG       -22.0230   24.3890  -30.6140 O.3   247  SER247     -0.2182
     14  N        -20.4450   22.2640  -33.3410 N.am  248  SER248     -0.1951
     15  CA       -19.9350   22.6740  -34.6460 C.3   248  SER248      0.1924
     16  C        -20.7860   22.1190  -35.7830 C.2   248  SER248      0.2314
     17  O        -20.9780   22.7820  -36.8000 O.2   248  SER248     -0.2863
     18  CB       -18.4820   22.2290  -34.8230 C.3   248  SER248      0.2116
     19  OG       -17.6180   22.9340  -33.9480 O.3   248  SER248     -0.2180
     20  N        -23.2690   24.5300  -36.0120 N.3   251  ALA251     -0.1245
     21  CA       -22.6970   25.8350  -36.3180 C.3   251  ALA251      0.1562
     22  C        -22.1890   25.9320  -37.7550 C.2   251  ALA251      0.2260
     23  O        -22.2270   27.0050  -38.3590 O.2   251  ALA251     -0.2867
     24  CB       -21.5700   26.1490  -35.3410 C.3   251  ALA251      0.0290
     25  N        -13.9390   31.9680  -40.2350 N.3   266  TRP266     -0.1241
     26  CA       -14.4040   31.4810  -38.9420 C.3   266  TRP266      0.1605
     27  C        -13.4090   30.4930  -38.3450 C.2   266  TRP266      0.2264
     28  O        -13.2120   30.4510  -37.1320 O.2   266  TRP266     -0.2867
     29  CB       -15.7790   30.8300  -39.0860 C.3   266  TRP266      0.0550
     30  CG       -16.3540   30.3260  -37.8020 C.ar  266  TRP266      0.0003
     31  CD1      -16.2840   29.0530  -37.3140 C.ar  266  TRP266      0.0946
     32  CD2      -17.0980   31.0840  -36.8410 C.ar  266  TRP266      0.0152
     33  NE1      -16.9370   28.9720  -36.1080 N.ar  266  TRP266     -0.2442
     34  CE2      -17.4450   30.2050  -35.7950 C.ar  266  TRP266      0.0810
     35  CE3      -17.5020   32.4200  -36.7620 C.ar  266  TRP266      0.0012
     36  CZ2      -18.1780   30.6200  -34.6860 C.ar  266  TRP266      0.0191
     37  CZ3      -18.2270   32.8290  -35.6590 C.ar  266  TRP266      0.0001
     38  CH2      -18.5590   31.9320  -34.6360 C.ar  266  TRP266      0.0015
     39  N        -11.4760   31.1160  -34.8420 N.3   270  SER270     -0.1217
     40  CA       -11.4810   30.1790  -33.7250 C.3   270  SER270      0.1889
     41  C        -10.0620   29.8870  -33.2600 C.2   270  SER270      0.2288
     42  O         -9.8010   29.7720  -32.0620 O.2   270  SER270     -0.2866
     43  CB       -12.1780   28.8750  -34.1160 C.3   270  SER270      0.2089
     44  OG       -13.4600   29.1240  -34.6650 O.3   270  SER270     -0.2183
     45  N         -8.9290   32.7890  -31.0890 N.3   273  GLU273     -0.1245
     46  CA        -9.5560   32.8040  -29.7700 C.3   273  GLU273      0.1567
     47  C         -8.8700   31.8240  -28.8300 C.2   273  GLU273      0.2260
     48  O         -8.7310   32.0860  -27.6360 O.2   273  GLU273     -0.2867
     49  CB       -11.0440   32.4690  -29.8690 C.3   273  GLU273      0.0388
     50  CG       -11.8710   33.4770  -30.6410 C.3   273  GLU273      0.1160
     51  CD       -13.3520   33.1660  -30.5790 C.2   273  GLU273      0.3649
     52  OE1      -13.7340   32.2580  -29.8110 O.co2 273  GLU273     -0.2457
     53  OE2      -14.1330   33.8270  -31.2940 O.co2 273  GLU273     -0.2457
     54  N        -14.3310   40.0960  -37.3540 N.3   349  HIS349     -0.1241
     55  CA       -14.3540   39.1760  -36.2260 C.3   349  HIS349      0.1621
     56  C        -13.4320   39.6500  -35.1030 C.2   349  HIS349      0.2264
     57  O        -13.7810   39.5660  -33.9260 O.2   349  HIS349     -0.2867
     58  CB       -13.9550   37.7710  -36.6920 C.3   349  HIS349      0.0745
     59  CG       -13.7960   36.7810  -35.5790 C.ar  349  HIS349      0.0817
     60  ND1      -14.8180   35.9540  -35.1640 N.ar  349  HIS349     -0.2268
     61  CD2      -12.7290   36.4800  -34.8010 C.ar  349  HIS349      0.1154
     62  CE1      -14.3880   35.1890  -34.1760 C.ar  349  HIS349      0.1986
     63  NE2      -13.1240   35.4890  -33.9360 N.ar  349  HIS349     -0.2212
     64  N        -16.2070   34.4970  -21.5080 N.3   360  LEU360     -0.1245
     65  CA       -16.0650   33.1100  -21.9350 C.3   360  LEU360      0.1561
     66  C        -15.0040   32.3950  -21.1050 C.2   360  LEU360      0.2260
     67  O        -15.1290   31.2060  -20.8110 O.2   360  LEU360     -0.2867
     68  CB       -15.7110   33.0390  -23.4230 C.3   360  LEU360      0.0270
     69  CG       -15.5710   31.6430  -24.0360 C.3   360  LEU360      0.0019
     70  CD1      -16.8670   30.8560  -23.8900 C.3   360  LEU360      0.0001
     71  CD2      -15.1570   31.7370  -25.4970 C.3   360  LEU360      0.0001
     72  N        -23.8090   26.7790  -22.0810 N.3   386  ARG386     -0.1231
     73  CA       -22.9730   27.7040  -22.8340 C.3   386  ARG386      0.1694
     74  C        -23.2010   27.5770  -24.3350 C.2   386  ARG386      0.2591
     75  O        -23.3800   28.5760  -25.0280 O.2   386  ARG386     -0.2718
     76  CB       -21.4930   27.4750  -22.5070 C.3   386  ARG386      0.0321
     77  CG       -20.5570   28.5220  -23.0990 C.3   386  ARG386      0.0489
     78  CD       -19.8920   28.0360  -24.3750 C.3   386  ARG386      0.2205
     79  NE       -19.5680   29.1360  -25.2780 N.pl3 386  ARG386     -0.0865
     80  CZ       -18.7510   29.0280  -26.3200 C.cat 386  ARG386      0.5346
     81  NH1      -18.1650   27.8690  -26.5840 N.pl3 386  ARG386      0.1354
     82  NH2      -18.5130   30.0780  -27.0930 N.pl3 386  ARG386      0.1354
     83  N        -23.2070   26.3430  -24.8280 N.am  387  LEU387     -0.1980
     84  CA       -23.2480   26.0900  -26.2630 C.3   387  LEU387      0.1596
     85  C        -24.6600   26.0320  -26.8400 C.2   387  LEU387      0.2287
     86  O        -24.9130   26.5590  -27.9230 O.2   387  LEU387     -0.2864
     87  CB       -22.5140   24.7850  -26.5800 C.3   387  LEU387      0.0297
     88  CG       -20.9880   24.8420  -26.4810 C.3   387  LEU387      0.0022
     89  CD1      -20.3950   23.4480  -26.5700 C.3   387  LEU387      0.0001
     90  CD2      -20.4280   25.7300  -27.5800 C.3   387  LEU387      0.0001
     91  N        -24.8940   30.2650  -26.7840 N.3   391  TYR391     -0.1241
     92  CA       -24.0230   30.5340  -27.9300 C.3   391  TYR391      0.1605
     93  C        -24.7190   30.3620  -29.2810 C.2   391  TYR391      0.2264
     94  O        -24.9030   31.3340  -30.0140 O.2   391  TYR391     -0.2867
     95  CB       -22.7840   29.6380  -27.8740 C.3   391  TYR391      0.0534
     96  CG       -21.6780   30.0730  -28.8090 C.ar  391  TYR391     -0.0201
     97  CD1      -21.2030   31.3780  -28.7900 C.ar  391  TYR391     -0.0009
     98  CD2      -21.1010   29.1780  -29.6990 C.ar  391  TYR391     -0.0009
     99  CE1      -20.1930   31.7830  -29.6380 C.ar  391  TYR391      0.0417
    100  CE2      -20.0870   29.5730  -30.5490 C.ar  391  TYR391      0.0417
    101  CZ       -19.6380   30.8770  -30.5160 C.ar  391  TYR391      0.1957
    102  OH       -18.6310   31.2790  -31.3620 O.3   391  TYR391     -0.2866
    103  N        -22.0720   36.1510  -31.1500 N.3   411  ALA411     -0.1245
    104  CA       -21.0100   35.4620  -30.4280 C.3   411  ALA411      0.1562
    105  C        -20.6190   36.2450  -29.1820 C.2   411  ALA411      0.2260
    106  O        -20.3400   35.6670  -28.1320 O.2   411  ALA411     -0.2867
    107  CB       -19.8020   35.2560  -31.3280 C.3   411  ALA411      0.0290
@<TRIPOS>BOND
     1    25    26    1
     2    29    26    1
     3    29    30    1
     4    26    27    1
     5    23    22    2
     6    27    28    2
     7    30    31   ar
     8    30    32   ar
     9    22    21    1
    10    54    55    1
    11    31    33   ar
    12    32    35   ar
    13    32    34   ar
    14    17    16    2
    15    35    37   ar
    16    58    55    1
    17    58    59    1
    18    21    20    1
    19    21    24    1
    20    55    56    1
    21    33    34   ar
    22    34    36   ar
    23    16    15    1
    24    37    38   ar
    25    59    60   ar
    26    59    61   ar
    27    60    62   ar
    28    56    57    2
    29    39    40    1
    30    18    15    1
    31    18    19    1
    32    61    63   ar
    33    36    38   ar
    34    44    43    1
    35    15    14    1
    36    62    63   ar
    37    43    40    1
    38    40    41    1
    39    11    10    2
    40    14    10   am
    41    41    42    2
    42    10     9    1
    43     9     8    1
    44     9    12    1
    45   102   101    1
    46   107   104    1
    47    53    51   ar
    48   103   104    1
    49     4     3    2
    50    45    46    1
    51    50    51    1
    52    50    49    1
    53    13    12    1
    54    51    52   ar
    55   100   101   ar
    56   100    98   ar
    57   101    99   ar
    58   104   105    1
    59     3     2    1
    60    94    93    2
    61    49    46    1
    62    46    47    1
    63    98    96   ar
    64    99    97   ar
    65    93    92    1
    66   105   106    2
    67    47    48    2
    68    96    97   ar
    69    96    95    1
    70     2     5    1
    71     2     1    1
    72     5     6    1
    73    92    95    1
    74    92    91    1
    75    86    85    2
    76     1     7    1
    77    90    88    1
    78    82    80    1
    79     6     7    1
    80    85    84    1
    81    81    80    1
    82    87    88    1
    83    87    84    1
    84    89    88    1
    85    80    79    2
    86    84    83    1
    87    71    69    1
    88    79    78    1
    89    75    74    2
    90    83    74   am
    91    78    77    1
    92    74    73    1
    93    69    70    1
    94    69    68    1
    95    68    65    1
    96    77    76    1
    97    73    76    1
    98    73    72    1
    99    65    64    1
   100    65    66    1
   101    66    67    2
