@<TRIPOS>MOLECULE
tmp/6idsA01.pdb
 87 83 0 0 0
SMALL
GASTEIGER

@<TRIPOS>ATOM
      1  N         11.1730   -0.2760  -41.5840 N.3   308  ARG308     -0.1245
      2  CA        11.1760    1.1060  -41.1100 C.3   308  ARG308      0.1563
      3  C          9.7940    1.5530  -40.6340 C.2   308  ARG308      0.2260
      4  O          9.6830    2.3200  -39.6790 O.2   308  ARG308     -0.2867
      5  CB        11.6930    2.0470  -42.2030 C.3   308  ARG308      0.0307
      6  CG        13.2100    2.0520  -42.3280 C.3   308  ARG308      0.0489
      7  CD        13.6960    2.9190  -43.4800 C.3   308  ARG308      0.2205
      8  NE        15.1500    3.0670  -43.4610 N.pl3 308  ARG308     -0.0865
      9  CZ        15.7870    4.1590  -43.0490 C.cat 308  ARG308      0.5346
     10  NH1       15.0990    5.2130  -42.6300 N.pl3 308  ARG308      0.1354
     11  NH2       17.1130    4.2010  -43.0640 N.pl3 308  ARG308      0.1354
     12  N          9.4440   -0.1210  -37.3410 N.3   311  CYS311     -0.1221
     13  CA        10.3110    0.5320  -36.3640 C.3   311  CYS311      0.1808
     14  C          9.7040    1.8360  -35.8600 C.2   311  CYS311      0.2601
     15  O          9.7600    2.1300  -34.6680 O.2   311  CYS311     -0.2717
     16  CB        11.6970    0.7960  -36.9580 C.3   311  CYS311      0.0970
     17  SG        12.8270   -0.6180  -36.9100 S.3   311  CYS311     -0.0800
     18  N          9.1250    2.6150  -36.7690 N.am  312  GLN312     -0.1979
     19  CA         8.5020    3.8820  -36.4000 C.3   312  GLN312      0.1601
     20  C          7.3220    3.6630  -35.4650 C.2   312  GLN312      0.2287
     21  O          7.1200    4.4280  -34.5220 O.2   312  GLN312     -0.2864
     22  CB         8.0410    4.6440  -37.6420 C.3   312  GLN312      0.0394
     23  CG         9.1690    5.2000  -38.4890 C.3   312  GLN312      0.0908
     24  CD         8.6850    5.6770  -39.8430 C.2   312  GLN312      0.2608
     25  OE1        7.4840    5.6910  -40.1150 O.2   312  GLN312     -0.2717
     26  NE2        9.6180    6.0630  -40.7020 N.am  312  GLN312     -0.0878
     27  N          8.7100    2.5410  -31.8300 N.3   315  LEU315     -0.1245
     28  CA         9.2920    3.6810  -31.1230 C.3   315  LEU315      0.1561
     29  C          8.2310    4.6540  -30.6120 C.2   315  LEU315      0.2260
     30  O          8.2810    5.0880  -29.4600 O.2   315  LEU315     -0.2867
     31  CB        10.2810    4.4230  -32.0250 C.3   315  LEU315      0.0270
     32  CG        11.6610    3.7810  -32.1630 C.3   315  LEU315      0.0019
     33  CD1       12.5310    4.5750  -33.1260 C.3   315  LEU315      0.0001
     34  CD2       12.3250    3.6660  -30.7990 C.3   315  LEU315      0.0001
     35  N         13.2120    1.1730  -27.1980 N.3   359  ALA359     -0.1245
     36  CA        14.5350    0.7790  -27.6590 C.3   359  ALA359      0.1562
     37  C         14.7100   -0.7350  -27.5740 C.2   359  ALA359      0.2260
     38  O         15.3210   -1.3450  -28.4500 O.2   359  ALA359     -0.2867
     39  CB        15.6110    1.4870  -26.8520 C.3   359  ALA359      0.0290
     40  N         12.8630   -2.3960  -30.4500 N.3   362  ILE362     -0.1245
     41  CA        13.6430   -2.3600  -31.6780 C.3   362  ILE362      0.1561
     42  C         14.6280   -3.5230  -31.6850 C.2   362  ILE362      0.2260
     43  O         14.7740   -4.2180  -32.6910 O.2   362  ILE362     -0.2867
     44  CB        14.4010   -1.0290  -31.8370 C.3   362  ILE362      0.0252
     45  CG1       13.4120    0.1240  -32.0120 C.3   362  ILE362      0.0019
     46  CG2       15.3400   -1.0890  -33.0290 C.3   362  ILE362      0.0019
     47  CD1       12.5180   -0.0210  -33.2270 C.3   362  ILE362      0.0001
     48  N         18.5090    1.2530  -24.0490 N.3   416  ILE416     -0.1245
     49  CA        18.7240    2.2870  -25.0580 C.3   416  ILE416      0.1561
     50  C         19.9140    1.9410  -25.9530 C.2   416  ILE416      0.2260
     51  O         19.8280    2.0330  -27.1780 O.2   416  ILE416     -0.2867
     52  CB        18.9580    3.6700  -24.4160 C.3   416  ILE416      0.0252
     53  CG1       17.7780    4.0560  -23.5200 C.3   416  ILE416      0.0019
     54  CG2       19.1840    4.7260  -25.4890 C.3   416  ILE416      0.0019
     55  CD1       16.4470    4.0880  -24.2410 C.3   416  ILE416      0.0001
     56  N         19.1330   -1.2790  -28.2110 N.3   419  GLY419     -0.1210
     57  CA        18.3000   -0.9650  -29.3590 C.3   419  GLY419      0.1956
     58  C         19.0450   -0.2130  -30.4460 C.2   419  GLY419      0.2611
     59  O         18.8640   -0.4830  -31.6350 O.2   419  GLY419     -0.2717
     60  N         19.8850    0.7350  -30.0400 N.am  420  TRP420     -0.1976
     61  CA        20.6870    1.4980  -30.9890 C.3   420  TRP420      0.1640
     62  C         21.7650    0.6210  -31.6130 C.2   420  TRP420      0.2290
     63  O         22.1290    0.8060  -32.7720 O.2   420  TRP420     -0.2864
     64  CB        21.3200    2.7180  -30.3130 C.3   420  TRP420      0.0576
     65  CG        22.3010    3.4540  -31.1860 C.ar  420  TRP420      0.0006
     66  CD1       23.6440    3.5890  -30.9770 C.ar  420  TRP420      0.0946
     67  CD2       22.0150    4.1470  -32.4080 C.ar  420  TRP420      0.0152
     68  NE1       24.2090    4.3270  -31.9900 N.ar  420  TRP420     -0.2442
     69  CE2       23.2310    4.6800  -32.8820 C.ar  420  TRP420      0.0810
     70  CE3       20.8490    4.3710  -33.1470 C.ar  420  TRP420      0.0012
     71  CZ2       23.3120    5.4220  -34.0610 C.ar  420  TRP420      0.0191
     72  CZ3       20.9320    5.1070  -34.3160 C.ar  420  TRP420      0.0001
     73  CH2       22.1540    5.6230  -34.7620 C.ar  420  TRP420      0.0015
     74  N         20.0150   -1.7260  -34.1980 N.3   423  TRP423     -0.1241
     75  CA        19.7320   -1.0440  -35.4520 C.3   423  TRP423      0.1605
     76  C         20.9740   -0.9910  -36.3370 C.2   423  TRP423      0.2264
     77  O         20.8860   -1.1640  -37.5510 O.2   423  TRP423     -0.2867
     78  CB        19.1990    0.3700  -35.1840 C.3   423  TRP423      0.0550
     79  CG        19.0210    1.1800  -36.4290 C.ar  423  TRP423      0.0003
     80  CD1       19.7930    2.2250  -36.8430 C.ar  423  TRP423      0.0946
     81  CD2       18.0140    1.0010  -37.4340 C.ar  423  TRP423      0.0152
     82  NE1       19.3270    2.7100  -38.0390 N.ar  423  TRP423     -0.2442
     83  CE2       18.2370    1.9750  -38.4240 C.ar  423  TRP423      0.0810
     84  CE3       16.9480    0.1100  -37.5890 C.ar  423  TRP423      0.0012
     85  CZ2       17.4320    2.0860  -39.5570 C.ar  423  TRP423      0.0191
     86  CZ3       16.1490    0.2230  -38.7140 C.ar  423  TRP423      0.0001
     87  CH2       16.3950    1.2030  -39.6830 C.ar  423  TRP423      0.0015
@<TRIPOS>BOND
     1     7     8    1
     2     7     6    1
     3     8     9    2
     4    11     9    1
     5     9    10    1
     6     6     5    1
     7     5     2    1
     8     1     2    1
     9     2     3    1
    10    26    24   am
    11     3     4    2
    12    25    24    2
    13    24    23    1
    14    87    85   ar
    15    87    86   ar
    16    85    83   ar
    17    86    84   ar
    18    23    22    1
    19    83    82   ar
    20    83    81   ar
    21    82    80   ar
    22    22    19    1
    23    84    81   ar
    24    77    76    2
    25    81    79   ar
    26    12    13    1
    27    16    17    1
    28    16    13    1
    29    80    79   ar
    30    18    19    1
    31    18    14   am
    32    79    78    1
    33    19    20    1
    34    13    14    1
    35    76    75    1
    36    14    15    2
    37    20    21    2
    38    75    78    1
    39    75    74    1
    40    73    72   ar
    41    73    71   ar
    42    72    70   ar
    43    71    69   ar
    44    47    45    1
    45    70    67   ar
    46    33    32    1
    47    46    44    1
    48    69    67   ar
    49    69    68   ar
    50    63    62    2
    51    43    42    2
    52    67    65   ar
    53    32    31    1
    54    32    34    1
    55    31    28    1
    56    45    44    1
    57    68    66   ar
    58    44    41    1
    59    27    28    1
    60    42    41    1
    61    41    40    1
    62    59    58    2
    63    62    61    1
    64    65    66   ar
    65    65    64    1
    66    28    29    1
    67    61    64    1
    68    61    60    1
    69    29    30    2
    70    58    60   am
    71    58    57    1
    72    57    56    1
    73    38    37    2
    74    36    37    1
    75    36    35    1
    76    36    39    1
    77    51    50    2
    78    50    49    1
    79    54    52    1
    80    49    52    1
    81    49    48    1
    82    52    53    1
    83    55    53    1
