@<TRIPOS>MOLECULE
tmp/6idwC00.pdb
 114 110 0 0 0
SMALL
GASTEIGER

@<TRIPOS>ATOM
      1  N         80.1300  -10.6730   38.4410 N.3    73  TYR73      -0.1241
      2  CA        79.9400   -9.4140   39.1650 C.3    73  TYR73       0.1605
      3  C         80.2660   -9.5600   40.6650 C.2    73  TYR73       0.2264
      4  O         79.3870   -9.4100   41.5420 O.2    73  TYR73      -0.2867
      5  CB        78.4960   -8.9730   38.9560 C.3    73  TYR73       0.0534
      6  CG        78.1780   -7.5950   39.4740 C.ar   73  TYR73      -0.0201
      7  CD1       78.8320   -6.4640   38.9570 C.ar   73  TYR73      -0.0009
      8  CD2       77.1930   -7.4080   40.4670 C.ar   73  TYR73      -0.0009
      9  CE1       78.5080   -5.2020   39.4240 C.ar   73  TYR73       0.0417
     10  CE2       76.8670   -6.1550   40.9270 C.ar   73  TYR73       0.0417
     11  CZ        77.5310   -5.0700   40.4100 C.ar   73  TYR73       0.1957
     12  OH        77.2210   -3.8460   40.8890 O.3    73  TYR73      -0.2866
     13  N         81.9890   -2.2380   44.8320 N.3    78  ARG78      -0.1245
     14  CA        81.2930   -1.6130   43.6770 C.3    78  ARG78       0.1563
     15  C         81.7660   -0.1880   43.3650 C.2    78  ARG78       0.2260
     16  O         82.0310    0.1430   42.2060 O.2    78  ARG78      -0.2867
     17  CB        79.7770   -1.6230   43.8930 C.3    78  ARG78       0.0307
     18  CG        78.9790   -1.0340   42.7340 C.3    78  ARG78       0.0489
     19  CD        77.4860   -1.0300   43.0230 C.3    78  ARG78       0.2205
     20  NE        77.1510   -0.1550   44.1500 N.pl3  78  ARG78      -0.0865
     21  CZ        75.9120    0.0750   44.5670 C.cat  78  ARG78       0.5346
     22  NH1       75.7010    0.8860   45.5990 N.pl3  78  ARG78       0.1354
     23  NH2       74.8840   -0.5050   43.9540 N.pl3  78  ARG78       0.1354
     24  N         80.4870   -1.9870   35.1840 N.3   121  ASP121     -0.1239
     25  CA        80.8180   -0.7350   35.9270 C.3   121  ASP121      0.1674
     26  C         82.2710   -0.5310   36.3180 C.2   121  ASP121      0.2266
     27  O         82.6300    0.5420   36.7430 O.2   121  ASP121     -0.2867
     28  CB        79.9700   -0.5480   37.1770 C.3   121  ASP121      0.1410
     29  CG        78.4910   -0.5400   36.8770 C.2   121  ASP121      0.3668
     30  OD1       78.1450   -0.5080   35.6690 O.co2 121  ASP121     -0.2456
     31  OD2       77.6820   -0.5870   37.8500 O.co2 121  ASP121     -0.2456
     32  N         84.2310    3.1270   36.0740 N.3   125  ASN125     -0.1240
     33  CA        84.8150    3.7230   37.2710 C.3   125  ASN125      0.1653
     34  C         86.2990    4.0130   37.0600 C.2   125  ASN125      0.2266
     35  O         86.7660    5.1080   37.3700 O.2   125  ASN125     -0.2867
     36  CB        84.5800    2.8230   38.4870 C.3   125  ASN125      0.1155
     37  CG        83.1070    2.6130   38.7780 C.2   125  ASN125      0.2627
     38  OD1       82.2420    3.1510   38.0870 O.2   125  ASN125     -0.2716
     39  ND2       82.8150    1.8250   39.8110 N.am  125  ASN125     -0.0877
     40  N         86.4020    7.2870   34.9700 N.3   128  THR128     -0.1218
     41  CA        85.8450    8.4770   35.5870 C.3   128  THR128      0.1862
     42  C         85.9650    8.5080   37.1090 C.2   128  THR128      0.2287
     43  O         85.0930    9.0280   37.8080 O.2   128  THR128     -0.2866
     44  CB        84.3560    8.6670   35.1850 C.3   128  THR128      0.1770
     45  OG1       83.5440    7.7170   35.8840 O.3   128  THR128     -0.2211
     46  CG2       84.1810    8.4740   33.6840 C.3   128  THR128      0.0375
     47  N         78.7390    2.5230   28.9730 N.3   166  HIS166     -0.1241
     48  CA        77.8560    2.9590   27.8850 C.3   166  HIS166      0.1621
     49  C         78.2170    4.3430   27.3270 C.2   166  HIS166      0.2264
     50  O         79.0070    5.0850   27.9120 O.2   166  HIS166     -0.2867
     51  CB        76.3890    2.9070   28.2940 C.3   166  HIS166      0.0745
     52  CG        76.0460    3.8720   29.3970 C.ar  166  HIS166      0.0817
     53  ND1       75.8890    5.2260   29.1850 N.ar  166  HIS166     -0.2268
     54  CD2       75.8520    3.6790   30.7250 C.ar  166  HIS166      0.1154
     55  CE1       75.6040    5.8220   30.3290 C.ar  166  HIS166      0.1986
     56  NE2       75.5770    4.9080   31.2810 N.ar  166  HIS166     -0.2212
     57  N         76.6230    7.2970   27.0260 N.3   168  GLY168     -0.1210
     58  CA        76.3900    8.4050   27.9260 C.3   168  GLY168      0.1956
     59  C         77.4550    8.5800   28.9860 C.2   168  GLY168      0.2611
     60  O         77.5390    9.6330   29.6110 O.2   168  GLY168     -0.2717
     61  N         78.2690    7.5600   29.2020 N.am  169  TRP169     -0.1976
     62  CA        79.2450    7.5670   30.2820 C.3   169  TRP169      0.1640
     63  C         80.6550    7.8230   29.7350 C.2   169  TRP169      0.2290
     64  O         81.3640    8.6330   30.2720 O.2   169  TRP169     -0.2864
     65  CB        79.1310    6.2470   31.0690 C.3   169  TRP169      0.0576
     66  CG        79.8950    6.0940   32.3670 C.ar  169  TRP169      0.0006
     67  CD1       80.8930    6.8910   32.8430 C.ar  169  TRP169      0.0946
     68  CD2       79.7800    5.0030   33.3050 C.ar  169  TRP169      0.0152
     69  NE1       81.3910    6.3850   34.0250 N.ar  169  TRP169     -0.2442
     70  CE2       80.7180    5.2350   34.3410 C.ar  169  TRP169      0.0810
     71  CE3       78.9750    3.8600   33.3770 C.ar  169  TRP169      0.0012
     72  CZ2       80.8620    4.3700   35.4540 C.ar  169  TRP169      0.0191
     73  CZ3       79.1170    2.9980   34.4980 C.ar  169  TRP169      0.0001
     74  CH2       80.0610    3.2590   35.5060 C.ar  169  TRP169      0.0015
     75  N         75.0440   -2.0020   29.8820 N.3   200  VAL200     -0.1231
     76  CA        74.6140   -3.0210   30.8420 C.3   200  VAL200      0.1692
     77  C         73.9470   -2.2970   31.9900 C.2   200  VAL200      0.2593
     78  O         74.5620   -1.4220   32.6180 O.2   200  VAL200     -0.2718
     79  CB        75.7580   -3.9580   31.2910 C.3   200  VAL200      0.0266
     80  CG1       75.3020   -4.9110   32.3950 C.3   200  VAL200      0.0020
     81  CG2       76.1560   -4.7900   30.1080 C.3   200  VAL200      0.0020
     82  N         72.6720   -2.6290   32.2070 N.am  201  SER201     -0.1938
     83  CA        71.8220   -2.0180   33.2440 C.3   201  SER201      0.2055
     84  C         71.5270   -0.5540   32.9330 C.2   201  SER201      0.2643
     85  O         71.1860    0.2270   33.8270 O.2   201  SER201     -0.2714
     86  CB        72.4670   -2.1020   34.6340 C.3   201  SER201      0.2130
     87  OG        72.5540   -3.4400   35.1020 O.3   201  SER201     -0.2179
     88  N         71.7270   -0.1540   31.6820 N.am  202  ASN202     -0.1971
     89  CA        71.3550    1.1670   31.3060 C.3   202  ASN202      0.1688
     90  C         70.3720    1.2870   30.1020 C.2   202  ASN202      0.2292
     91  O         69.8990    0.2800   29.5110 O.2   202  ASN202     -0.2864
     92  CB        72.5730    2.0250   30.9970 C.3   202  ASN202      0.1181
     93  CG        72.3200    3.5050   31.3230 C.2   202  ASN202      0.2629
     94  OD1       71.6770    4.1930   30.5530 O.2   202  ASN202     -0.2716
     95  ND2       72.7800    3.9650   32.4650 N.am  202  ASN202     -0.0877
     96  N         70.0820   11.1390   32.9780 N.3   244  ALA244     -0.1245
     97  CA        71.1550   10.2150   33.3600 C.3   244  ALA244      0.1562
     98  C         70.8640    9.4050   34.6560 C.2   244  ALA244      0.2260
     99  O         71.7920    8.7380   35.1920 O.2   244  ALA244     -0.2867
    100  CB        72.4690   10.9640   33.4650 C.3   244  ALA244      0.0290
    101  N         70.1700    6.3760   36.7180 N.3   246  TRP246     -0.1241
    102  CA        70.5280    5.0170   36.3430 C.3   246  TRP246      0.1605
    103  C         69.6090    4.0550   37.1250 C.2   246  TRP246      0.2264
    104  O         69.2710    2.9480   36.6720 O.2   246  TRP246     -0.2867
    105  CB        72.0470    4.7380   36.5400 C.3   246  TRP246      0.0550
    106  CG        72.4560    4.9950   37.9300 C.ar  246  TRP246      0.0003
    107  CD1       72.9460    6.1740   38.4270 C.ar  246  TRP246      0.0946
    108  CD2       72.3410    4.1050   39.0520 C.ar  246  TRP246      0.0152
    109  NE1       73.1590    6.0660   39.7780 N.ar  246  TRP246     -0.2442
    110  CE2       72.8010    4.8130   40.1960 C.ar  246  TRP246      0.0810
    111  CE3       71.9170    2.7870   39.2080 C.ar  246  TRP246      0.0012
    112  CZ2       72.8390    4.2390   41.4950 C.ar  246  TRP246      0.0191
    113  CZ3       71.9540    2.2090   40.5320 C.ar  246  TRP246      0.0001
    114  CH2       72.4130    2.9430   41.6390 C.ar  246  TRP246      0.0015
@<TRIPOS>BOND
     1    57    58    1
     2    49    48    1
     3    49    50    2
     4    48    51    1
     5    48    47    1
     6    58    59    1
     7    51    52    1
     8    59    61   am
     9    59    60    2
    10    53    52   ar
    11    53    55   ar
    12    61    62    1
    13    52    54   ar
    14    91    90    2
    15    63    64    2
    16    63    62    1
    17    75    76    1
    18    90    89    1
    19    81    79    1
    20    62    65    1
    21    55    56   ar
    22    94    93    2
    23    54    56   ar
    24    76    79    1
    25    76    77    1
    26    92    89    1
    27    92    93    1
    28    65    66    1
    29    79    80    1
    30    89    88    1
    31    93    95   am
    32    88    84   am
    33    77    82   am
    34    77    78    2
    35    82    83    1
    36    66    67   ar
    37    66    68   ar
    38    67    69   ar
    39    84    83    1
    40    84    85    2
    41    96    97    1
    42    83    86    1
    43    68    71   ar
    44    68    70   ar
    45    97   100    1
    46    97    98    1
    47    71    73   ar
    48    46    44    1
    49    69    70   ar
    50    70    72   ar
    51    73    74   ar
    52    86    87    1
    53    98    99    2
    54    40    41    1
    55    24    25    1
    56    44    41    1
    57    44    45    1
    58    72    74   ar
    59    41    42    1
    60    30    29   ar
    61    25    26    1
    62    25    28    1
    63    32    33    1
    64    26    27    2
    65   102   105    1
    66   102   101    1
    67   102   103    1
    68   105   106    1
    69   104   103    2
    70    29    28    1
    71    29    31   ar
    72    34    33    1
    73    34    35    2
    74    42    43    2
    75    33    36    1
    76   106   107   ar
    77   106   108   ar
    78    38    37    2
    79   107   109   ar
    80     1     2    1
    81    36    37    1
    82    37    39   am
    83     5     2    1
    84     5     6    1
    85     7     9   ar
    86     7     6   ar
    87   108   111   ar
    88   108   110   ar
    89     2     3    1
    90   111   113   ar
    91     9    11   ar
    92     6     8   ar
    93   109   110   ar
    94   110   112   ar
    95    11    12    1
    96    11    10   ar
    97     8    10   ar
    98   113   114   ar
    99     3     4    2
   100   112   114   ar
   101    16    15    2
   102    18    19    1
   103    18    17    1
   104    19    20    1
   105    15    14    1
   106    14    17    1
   107    14    13    1
   108    23    21    1
   109    20    21    2
   110    21    22    1
