@<TRIPOS>MOLECULE
tmp/6iedA02.pdb
 100 94 0 0 0
SMALL
GASTEIGER

@<TRIPOS>ATOM
      1  N         25.8750  -19.3060   -7.2870 N.3    16  VAL16      -0.1245
      2  CA        25.5860  -20.5080   -6.5200 C.3    16  VAL16       0.1561
      3  C         25.9140  -20.3050   -5.0440 C.2    16  VAL16       0.2260
      4  O         25.1130  -20.6390   -4.1650 O.2    16  VAL16      -0.2867
      5  CB        26.4050  -21.7000   -7.0380 C.3    16  VAL16       0.0252
      6  CG1       26.1970  -22.9100   -6.1470 C.3    16  VAL16       0.0019
      7  CG2       25.9990  -22.0120   -8.4560 C.3    16  VAL16       0.0019
      8  N         23.4600  -17.7580   -3.3910 N.3    19  THR19      -0.1203
      9  CA        22.1300  -18.3500   -3.2590 C.3    19  THR19       0.1994
     10  C         22.1760  -19.2430   -2.0230 C.2    19  THR19       0.2617
     11  O         21.2950  -19.1870   -1.1690 O.2    19  THR19      -0.2717
     12  CB        21.7260  -19.2310   -4.5020 C.3    19  THR19       0.1784
     13  OG1       21.6780  -18.4390   -5.6960 O.3    19  THR19      -0.2211
     14  CG2       20.3540  -19.8080   -4.3000 C.3    19  THR19       0.0376
     15  N         23.2270  -20.0560   -1.9420 N.am   20  PHE20      -0.1975
     16  CA        23.4460  -20.9770   -0.8310 C.3    20  PHE20       0.1639
     17  C         23.5810  -20.2620    0.5260 C.2    20  PHE20       0.2290
     18  O         22.9970  -20.6970    1.5330 O.2    20  PHE20      -0.2864
     19  CB        24.6990  -21.8120   -1.0920 C.3    20  PHE20       0.0560
     20  CG        25.1370  -22.6030    0.0960 C.ar   20  PHE20      -0.0200
     21  CD1       24.3920  -23.6960    0.5320 C.ar   20  PHE20      -0.0042
     22  CD2       26.2600  -22.2160    0.8330 C.ar   20  PHE20      -0.0042
     23  CE1       24.7600  -24.3920    1.6920 C.ar   20  PHE20      -0.0003
     24  CE2       26.6390  -22.9010    1.9950 C.ar   20  PHE20      -0.0003
     25  CZ        25.8940  -23.9850    2.4260 C.ar   20  PHE20      -0.0000
     26  N         20.3210  -18.9250    1.5930 N.3    23  LEU23      -0.1245
     27  CA        19.4320  -19.9950    2.0220 C.3    23  LEU23       0.1561
     28  C         19.7820  -20.3290    3.4810 C.2    23  LEU23       0.2260
     29  O         18.9020  -20.5720    4.3120 O.2    23  LEU23      -0.2867
     30  CB        19.5990  -21.2440    1.1390 C.3    23  LEU23       0.0270
     31  CG        18.6850  -22.4190    1.5450 C.3    23  LEU23       0.0019
     32  CD1       17.2250  -22.0970    1.1950 C.3    23  LEU23       0.0001
     33  CD2       19.1260  -23.6970    0.8550 C.3    23  LEU23       0.0001
     34  N         18.2490  -16.3500   -5.8460 N.3   141  LEU141     -0.1245
     35  CA        18.0750  -17.6390   -6.4960 C.3   141  LEU141      0.1561
     36  C         17.7110  -17.4650   -7.9770 C.2   141  LEU141      0.2260
     37  O         18.3260  -18.0730   -8.8490 O.2   141  LEU141     -0.2867
     38  CB        16.9670  -18.4030   -5.7750 C.3   141  LEU141      0.0270
     39  CG        16.4400  -19.6660   -6.4360 C.3   141  LEU141      0.0019
     40  CD1       17.4360  -20.7700   -6.2980 C.3   141  LEU141      0.0001
     41  CD2       15.1570  -20.0650   -5.7700 C.3   141  LEU141      0.0001
     42  N         20.4960  -15.9000  -10.0160 N.3   144  THR144     -0.1203
     43  CA        21.4890  -16.9450  -10.3290 C.3   144  THR144      0.1994
     44  C         20.9930  -17.8120  -11.4950 C.2   144  THR144      0.2617
     45  O         21.7770  -18.2220  -12.3500 O.2   144  THR144     -0.2717
     46  CB        21.7710  -17.8770   -9.1010 C.3   144  THR144      0.1784
     47  OG1       22.3410  -17.0990   -8.0400 O.3   144  THR144     -0.2211
     48  CG2       22.7350  -19.0170   -9.4640 C.3   144  THR144      0.0376
     49  N         19.6900  -18.0910  -11.5190 N.am  145  LEU145     -0.1979
     50  CA        19.0900  -18.8870  -12.5820 C.3   145  LEU145      0.1596
     51  C         19.2730  -18.1820  -13.9200 C.2   145  LEU145      0.2287
     52  O         19.5400  -18.8180  -14.9400 O.2   145  LEU145     -0.2864
     53  CB        17.5860  -19.0960  -12.3230 C.3   145  LEU145      0.0297
     54  CG        16.7090  -19.5780  -13.5030 C.3   145  LEU145      0.0022
     55  CD1       17.1440  -20.9550  -13.9950 C.3   145  LEU145      0.0001
     56  CD2       15.2500  -19.6080  -13.0670 C.3   145  LEU145      0.0001
     57  N         22.8570  -18.4370  -15.2990 N.3   148  PHE148     -0.1227
     58  CA        23.1420  -19.6720  -15.9940 C.3   148  PHE148      0.1736
     59  C         22.4750  -19.6800  -17.3790 C.2   148  PHE148      0.2595
     60  O         23.1220  -19.9630  -18.4000 O.2   148  PHE148     -0.2718
     61  CB        22.6550  -20.8450  -15.1500 C.3   148  PHE148      0.0547
     62  CG        23.6080  -21.2240  -14.0460 C.ar  148  PHE148     -0.0202
     63  CD1       23.6530  -20.5040  -12.8480 C.ar  148  PHE148     -0.0042
     64  CD2       24.5020  -22.2830  -14.2200 C.ar  148  PHE148     -0.0042
     65  CE1       24.5850  -20.8380  -11.8390 C.ar  148  PHE148     -0.0003
     66  CE2       25.4240  -22.6160  -13.2260 C.ar  148  PHE148     -0.0003
     67  CZ        25.4650  -21.8940  -12.0370 C.ar  148  PHE148     -0.0000
     68  N         21.1820  -19.3600  -17.4100 N.am  149  GLU149     -0.1979
     69  CA        20.4110  -19.3240  -18.6510 C.3   149  GLU149      0.1602
     70  C         21.0030  -18.3790  -19.6740 C.2   149  GLU149      0.2287
     71  O         20.8920  -18.6060  -20.8740 O.2   149  GLU149     -0.2864
     72  CB        18.9630  -18.9230  -18.3480 C.3   149  GLU149      0.0415
     73  CG        18.1940  -19.9710  -17.5740 C.3   149  GLU149      0.1163
     74  CD        17.9870  -21.2720  -18.3740 C.2   149  GLU149      0.3649
     75  OE1       18.9690  -21.8510  -18.8960 O.co2 149  GLU149     -0.2457
     76  OE2       16.8320  -21.7380  -18.4740 O.co2 149  GLU149     -0.2457
     77  N         23.3760  -20.1170  -22.1560 N.3   152  LYS152     -0.1245
     78  CA        22.8880  -21.2600  -22.9170 C.3   152  LYS152      0.1561
     79  C         22.0660  -20.7910  -24.1080 C.2   152  LYS152      0.2260
     80  O         21.3030  -19.8270  -23.9840 O.2   152  LYS152     -0.2867
     81  CB        22.0150  -22.1520  -22.0360 C.3   152  LYS152      0.0271
     82  CG        22.7280  -22.7100  -20.8430 C.3   152  LYS152      0.0035
     83  CD        21.8840  -23.7180  -20.1150 C.3   152  LYS152      0.0206
     84  CE        22.7060  -24.3250  -18.9940 C.3   152  LYS152      0.1093
     85  NZ        21.9680  -25.3920  -18.2580 N.3   152  LYS152     -0.1314
     86  N         17.0200  -24.0440  -20.5410 N.3   156  THR156     -0.1203
     87  CA        16.3760  -25.1680  -19.8980 C.3   156  THR156      0.1994
     88  C         15.0520  -24.7700  -19.2340 C.2   156  THR156      0.2617
     89  O         14.0030  -25.3510  -19.5230 O.2   156  THR156     -0.2717
     90  CB        17.3450  -25.8130  -18.8570 C.3   156  THR156      0.1784
     91  OG1       17.6950  -24.8510  -17.8460 O.3   156  THR156     -0.2211
     92  CG2       18.6260  -26.2700  -19.5510 C.3   156  THR156      0.0376
     93  N         15.0930  -23.7670  -18.3630 N.am  157  LEU157     -0.1979
     94  CA        13.8940  -23.3640  -17.6450 C.3   157  LEU157      0.1596
     95  C         13.2760  -22.0490  -18.0800 C.2   157  LEU157      0.2287
     96  O         12.0570  -21.9410  -18.1790 O.2   157  LEU157     -0.2864
     97  CB        14.1940  -23.3280  -16.1480 C.3   157  LEU157      0.0297
     98  CG        14.6680  -24.6350  -15.4970 C.3   157  LEU157      0.0022
     99  CD1       14.9550  -24.3780  -14.0400 C.3   157  LEU157      0.0001
    100  CD2       13.6140  -25.7250  -15.6340 C.3   157  LEU157      0.0001
@<TRIPOS>BOND
     1    79    80    2
     2    79    78    1
     3    78    77    1
     4    78    81    1
     5    81    82    1
     6    71    70    2
     7    82    83    1
     8    86    87    1
     9    83    84    1
    10    87    88    1
    11    87    90    1
    12    70    69    1
    13    92    90    1
    14    89    88    2
    15    88    93   am
    16    84    85    1
    17    75    74   ar
    18    90    91    1
    19    69    72    1
    20    69    68    1
    21    76    74   ar
    22    60    59    2
    23    74    73    1
    24    93    94    1
    25    72    73    1
    26    96    95    2
    27    95    94    1
    28    94    97    1
    29    68    59   am
    30    59    58    1
    31    97    98    1
    32    58    57    1
    33    58    61    1
    34   100    98    1
    35    98    99    1
    36    61    62    1
    37    52    51    2
    38    64    62   ar
    39    64    66   ar
    40    62    63   ar
    41    55    54    1
    42    51    50    1
    43    54    56    1
    44    54    53    1
    45    66    67   ar
    46    63    65   ar
    47    50    53    1
    48    50    49    1
    49    45    44    2
    50    67    65   ar
    51    49    44   am
    52    44    43    1
    53    43    42    1
    54    43    46    1
    55    48    46    1
    56    46    47    1
    57    37    36    2
    58     7     5    1
    59    36    35    1
    60     1     2    1
    61     5     2    1
    62     5     6    1
    63     2     3    1
    64    35    34    1
    65    35    38    1
    66    39    40    1
    67    39    38    1
    68    39    41    1
    69    13    12    1
    70     3     4    2
    71    12    14    1
    72    12     9    1
    73     8     9    1
    74     9    10    1
    75    10    15   am
    76    10    11    2
    77    15    16    1
    78    19    16    1
    79    19    20    1
    80    16    17    1
    81    20    21   ar
    82    20    22   ar
    83    17    18    2
    84    21    23   ar
    85    22    24   ar
    86    33    31    1
    87    30    31    1
    88    30    27    1
    89    32    31    1
    90    26    27    1
    91    23    25   ar
    92    24    25   ar
    93    27    28    1
    94    28    29    2
