@<TRIPOS>MOLECULE
tmp/6iedA01.pdb
 159 150 0 0 0
SMALL
GASTEIGER

@<TRIPOS>ATOM
      1  N         16.4570   -8.5000  -19.3540 N.3    93  ARG93      -0.1231
      2  CA        16.1420   -7.1990  -18.8280 C.3    93  ARG93       0.1694
      3  C         15.7240   -7.3130  -17.3660 C.2    93  ARG93       0.2591
      4  O         15.8960   -6.3680  -16.5960 O.2    93  ARG93      -0.2718
      5  CB        15.0170   -6.5340  -19.6200 C.3    93  ARG93       0.0321
      6  CG        13.6290   -7.1270  -19.3930 C.3    93  ARG93       0.0489
      7  CD        12.5530   -6.4860  -20.2970 C.3    93  ARG93       0.2205
      8  NE        12.7310   -6.8010  -21.7240 N.pl3  93  ARG93      -0.0865
      9  CZ        13.5170   -6.1210  -22.5810 C.cat  93  ARG93       0.5346
     10  NH1       14.2210   -5.0520  -22.1770 N.pl3  93  ARG93       0.1354
     11  NH2       13.6110   -6.5200  -23.8580 N.pl3  93  ARG93       0.1354
     12  N         15.1760   -8.4720  -17.0000 N.am   94  GLU94      -0.1979
     13  CA        14.7130   -8.7140  -15.6310 C.3    94  GLU94       0.1602
     14  C         15.8560   -8.6750  -14.6310 C.2    94  GLU94       0.2287
     15  O         15.6350   -8.5310  -13.4290 O.2    94  GLU94      -0.2864
     16  CB        14.0410  -10.0840  -15.4940 C.3    94  GLU94       0.0415
     17  CG        12.7260  -10.2870  -16.2250 C.3    94  GLU94       0.1163
     18  CD        12.9010  -10.5640  -17.7220 C.2    94  GLU94       0.3649
     19  OE1       14.0220  -10.9500  -18.1740 O.co2  94  GLU94      -0.2457
     20  OE2       11.8820  -10.4030  -18.4450 O.co2  94  GLU94      -0.2457
     21  N         17.9870   -6.4610  -13.7960 N.3    96  THR96      -0.1203
     22  CA        18.0370   -5.2700  -12.9440 C.3    96  THR96       0.1994
     23  C         17.0110   -5.2700  -11.8100 C.2    96  THR96       0.2618
     24  O         17.3260   -4.8730  -10.6900 O.2    96  THR96      -0.2717
     25  CB        17.9190   -3.9690  -13.7950 C.3    96  THR96       0.1784
     26  OG1       19.0930   -3.8550  -14.6100 O.3    96  THR96      -0.2211
     27  CG2       17.8100   -2.7060  -12.9040 C.3    96  THR96       0.0376
     28  N         15.7920   -5.7180  -12.0880 N.am   97  PHE97      -0.1961
     29  CA        14.7720   -5.7780  -11.0470 C.3    97  PHE97       0.1771
     30  C         15.2210   -6.7380   -9.9410 C.2    97  PHE97       0.2619
     31  O         15.0660   -6.4550   -8.7470 O.2    97  PHE97      -0.2715
     32  CB        13.4460   -6.2320  -11.6590 C.3    97  PHE97       0.0574
     33  CG        12.4120   -6.6510  -10.6480 C.ar   97  PHE97      -0.0200
     34  CD1       12.3970   -7.9510  -10.1380 C.ar   97  PHE97      -0.0042
     35  CD2       11.4470   -5.7500  -10.2040 C.ar   97  PHE97      -0.0042
     36  CE1       11.4350   -8.3510   -9.1970 C.ar   97  PHE97      -0.0003
     37  CE2       10.4740   -6.1400   -9.2570 C.ar   97  PHE97      -0.0003
     38  CZ        10.4740   -7.4460   -8.7560 C.ar   97  PHE97      -0.0000
     39  N         15.7880   -7.8720  -10.3480 N.am   98  LEU98      -0.1977
     40  CA        16.2820   -8.8790   -9.4190 C.3    98  LEU98       0.1596
     41  C         17.4650   -8.3740   -8.6130 C.2    98  LEU98       0.2287
     42  O         17.5070   -8.5330   -7.3960 O.2    98  LEU98      -0.2864
     43  CB        16.6760  -10.1280  -10.1850 C.3    98  LEU98       0.0297
     44  CG        15.4330  -10.9220  -10.5700 C.3    98  LEU98       0.0022
     45  CD1       15.7570  -11.8730  -11.6840 C.3    98  LEU98       0.0001
     46  CD2       14.9080  -11.6550   -9.3570 C.3    98  LEU98       0.0001
     47  N         16.0140   -6.0300   -6.1430 N.3   101  MET101     -0.1245
     48  CA        15.2330   -6.7690   -5.1540 C.3   101  MET101      0.1570
     49  C         16.1470   -7.4530   -4.1400 C.2   101  MET101      0.2261
     50  O         15.8660   -7.4580   -2.9420 O.2   101  MET101     -0.2867
     51  CB        14.3870   -7.8300   -5.8490 C.3   101  MET101      0.0387
     52  CG        13.0800   -7.3360   -6.4430 C.3   101  MET101      0.0595
     53  SD        11.8350   -6.9890   -5.1860 S.3   101  MET101     -0.1393
     54  CE        11.1360   -8.5430   -4.9370 C.3   101  MET101      0.0692
     55  N         12.2340  -13.6880    0.5910 N.3   135  ILE135     -0.1245
     56  CA        12.2780  -12.9520   -0.6740 C.3   135  ILE135      0.1561
     57  C         13.7190  -12.5370   -0.9920 C.2   135  ILE135      0.2260
     58  O         14.1010  -12.3810   -2.1550 O.2   135  ILE135     -0.2867
     59  CB        11.3890  -11.6920   -0.6190 C.3   135  ILE135      0.0252
     60  CG1        9.9160  -12.0980   -0.6130 C.3   135  ILE135      0.0019
     61  CG2       11.7130  -10.7790   -1.7850 C.3   135  ILE135      0.0019
     62  CD1        8.9810  -10.9680   -0.2720 C.3   135  ILE135      0.0001
     63  N         15.0040  -15.7990   -2.4950 N.3   138  ALA138     -0.1231
     64  CA        14.3430  -16.0560   -3.7800 C.3   138  ALA138      0.1694
     65  C         14.7870  -15.1040   -4.8960 C.2   138  ALA138      0.2592
     66  O         14.7840  -15.4720   -6.0740 O.2   138  ALA138     -0.2718
     67  CB        12.8100  -15.9730   -3.6010 C.3   138  ALA138      0.0304
     68  N         15.1450  -13.8760   -4.5190 N.am  139  SER139     -0.1952
     69  CA        15.6120  -12.8550   -5.4590 C.3   139  SER139      0.1924
     70  C         16.9800  -13.2570   -6.0190 C.2   139  SER139      0.2314
     71  O         17.2250  -13.1800   -7.2310 O.2   139  SER139     -0.2863
     72  CB        15.7140  -11.4880   -4.7490 C.3   139  SER139      0.2116
     73  OG        14.4320  -10.9760   -4.3740 O.3   139  SER139     -0.2180
     74  N         16.7060  -16.6330   -8.2540 N.3   142  ILE142     -0.1245
     75  CA        16.2550  -16.4040   -9.6290 C.3   142  ILE142      0.1561
     76  C         17.2730  -15.6260  -10.4490 C.2   142  ILE142      0.2260
     77  O         17.3910  -15.8300  -11.6540 O.2   142  ILE142     -0.2867
     78  CB        14.8690  -15.6920   -9.6820 C.3   142  ILE142      0.0252
     79  CG1       13.8210  -16.5370   -8.9490 C.3   142  ILE142      0.0019
     80  CG2       14.4100  -15.5330  -11.1330 C.3   142  ILE142      0.0019
     81  CD1       13.5830  -17.9210   -9.5540 C.3   142  ILE142      0.0001
     82  N          1.3570  -18.0940   -5.1470 N.3   175  LEU175     -0.1231
     83  CA         2.5520  -17.3720   -4.6960 C.3   175  LEU175      0.1693
     84  C          2.2100  -16.3880   -3.5530 C.2   175  LEU175      0.2591
     85  O          2.8540  -16.3890   -2.4930 O.2   175  LEU175     -0.2718
     86  CB         3.1810  -16.6030   -5.8660 C.3   175  LEU175      0.0284
     87  CG         4.3980  -15.7280   -5.5260 C.3   175  LEU175      0.0019
     88  CD1        5.5630  -16.5590   -4.9760 C.3   175  LEU175      0.0001
     89  CD2        4.8130  -14.9860   -6.7820 C.3   175  LEU175      0.0001
     90  N          1.1990  -15.5560   -3.7850 N.am  176  ILE176     -0.1980
     91  CA         0.7390  -14.5700   -2.8040 C.3   176  ILE176      0.1595
     92  C          0.1700  -15.2110   -1.5270 C.2   176  ILE176      0.2287
     93  O          0.4680  -14.7790   -0.4060 O.2   176  ILE176     -0.2864
     94  CB        -0.3240  -13.6490   -3.4500 C.3   176  ILE176      0.0276
     95  CG1        0.3650  -12.7950   -4.5240 C.3   176  ILE176      0.0022
     96  CG2       -1.0470  -12.8140   -2.3860 C.3   176  ILE176      0.0022
     97  CD1       -0.5850  -12.0050   -5.3880 C.3   176  ILE176      0.0001
     98  N          2.7910  -16.7230    0.6980 N.3   179  TYR179     -0.1241
     99  CA         3.4580  -15.7200    1.4940 C.3   179  TYR179      0.1605
    100  C          2.6420  -15.4190    2.7710 C.2   179  TYR179      0.2264
    101  O          3.2150  -15.1860    3.8510 O.2   179  TYR179     -0.2867
    102  CB         3.6510  -14.4540    0.6760 C.3   179  TYR179      0.0534
    103  CG         4.6750  -13.5340    1.3040 C.ar  179  TYR179     -0.0201
    104  CD1        6.0390  -13.8420    1.2370 C.ar  179  TYR179     -0.0009
    105  CD2        4.2890  -12.3610    1.9790 C.ar  179  TYR179     -0.0009
    106  CE1        7.0070  -12.9990    1.8200 C.ar  179  TYR179      0.0417
    107  CE2        5.2390  -11.5160    2.5660 C.ar  179  TYR179      0.0417
    108  CZ         6.6050  -11.8340    2.4800 C.ar  179  TYR179      0.1957
    109  OH         7.5720  -10.9830    2.9960 O.3   179  TYR179     -0.2866
    110  N          8.6340  -21.8430   -2.5520 N.3   292  PHE292     -0.1241
    111  CA         8.5900  -20.4270   -2.8960 C.3   292  PHE292      0.1605
    112  C          9.5220  -20.1330   -4.0710 C.2   292  PHE292      0.2264
    113  O          9.1830  -19.3340   -4.9460 O.2   292  PHE292     -0.2867
    114  CB         8.9920  -19.5820   -1.6940 C.3   292  PHE292      0.0534
    115  CG         8.5930  -18.1410   -1.8110 C.ar  292  PHE292     -0.0203
    116  CD1        7.2500  -17.7640   -1.7160 C.ar  292  PHE292     -0.0042
    117  CD2        9.5560  -17.1530   -2.0050 C.ar  292  PHE292     -0.0042
    118  CE1        6.8750  -16.4210   -1.8080 C.ar  292  PHE292     -0.0003
    119  CE2        9.1850  -15.8120   -2.0970 C.ar  292  PHE292     -0.0003
    120  CZ         7.8420  -15.4480   -1.9960 C.ar  292  PHE292     -0.0000
    121  N          8.4770  -18.4530   -7.4860 N.3   296  CYS296     -0.1235
    122  CA         9.0740  -17.2370   -8.0240 C.3   296  CYS296      0.1677
    123  C          9.5600  -17.4790   -9.4500 C.2   296  CYS296      0.2270
    124  O          9.5860  -16.5590  -10.2770 O.2   296  CYS296     -0.2867
    125  CB        10.2190  -16.7740   -7.1570 C.3   296  CYS296      0.0956
    126  SG         9.5840  -16.3120   -5.5630 S.3   296  CYS296     -0.0801
    127  N          6.6760  -16.9800  -11.5380 N.3   299  LEU299     -0.1231
    128  CA         6.3970  -15.5590  -11.6890 C.3   299  LEU299      0.1693
    129  C          7.2590  -14.9260  -12.7860 C.2   299  LEU299      0.2591
    130  O          6.7930  -14.0680  -13.5310 O.2   299  LEU299     -0.2718
    131  CB         6.6300  -14.8420  -10.3750 C.3   299  LEU299      0.0284
    132  CG         6.3440  -13.3470  -10.4920 C.3   299  LEU299      0.0019
    133  CD1        4.8530  -13.0730  -10.7500 C.3   299  LEU299      0.0001
    134  CD2        6.7960  -12.7150   -9.2110 C.3   299  LEU299      0.0001
    135  N          8.5170  -15.3500  -12.8720 N.am  300  LEU300     -0.1980
    136  CA         9.4280  -14.8590  -13.9030 C.3   300  LEU300      0.1596
    137  C          8.8920  -15.2630  -15.2890 C.2   300  LEU300      0.2287
    138  O          8.9680  -14.4970  -16.2480 O.2   300  LEU300     -0.2864
    139  CB        10.8300  -15.4570  -13.6960 C.3   300  LEU300      0.0297
    140  CG        11.8070  -15.3430  -14.8730 C.3   300  LEU300      0.0022
    141  CD1       12.1930  -13.8900  -15.0260 C.3   300  LEU300      0.0001
    142  CD2       13.0390  -16.2070  -14.6470 C.3   300  LEU300      0.0001
    143  N          6.0770  -12.9510  -16.0280 N.3   303  ALA303     -0.1245
    144  CA         6.6100  -11.6190  -16.2870 C.3   303  ALA303      0.1562
    145  C          7.1460  -11.5090  -17.7130 C.2   303  ALA303      0.2260
    146  O          6.9380  -10.4950  -18.3890 O.2   303  ALA303     -0.2867
    147  CB         7.7040  -11.3120  -15.2940 C.3   303  ALA303      0.0290
    148  N          5.3850   -9.7300  -21.1270 N.3   307  TYR307     -0.1241
    149  CA         6.1600   -8.7840  -21.9230 C.3   307  TYR307      0.1605
    150  C          6.1670   -9.2220  -23.4140 C.2   307  TYR307      0.2264
    151  O          5.9860   -8.4000  -24.3150 O.2   307  TYR307     -0.2867
    152  CB         7.5950   -8.7110  -21.4180 C.3   307  TYR307      0.0534
    153  CG         8.3900   -7.5770  -22.0200 C.ar  307  TYR307     -0.0201
    154  CD1        8.2270   -6.2700  -21.5710 C.ar  307  TYR307     -0.0009
    155  CD2        9.3150   -7.8110  -23.0390 C.ar  307  TYR307     -0.0009
    156  CE1        8.9710   -5.2250  -22.1180 C.ar  307  TYR307      0.0417
    157  CE2       10.0550   -6.7770  -23.5930 C.ar  307  TYR307      0.0417
    158  CZ         9.8810   -5.4890  -23.1270 C.ar  307  TYR307      0.1957
    159  OH        10.6240   -4.4640  -23.6600 O.3   307  TYR307     -0.2866
@<TRIPOS>BOND
     1   151   150    2
     2    11     9    1
     3   159   158    1
     4   157   158   ar
     5   157   155   ar
     6   150   149    1
     7   158   156   ar
     8   155   153   ar
     9     9    10    1
    10     9     8    2
    11   156   154   ar
    12   153   154   ar
    13   153   152    1
    14   149   152    1
    15   149   148    1
    16     8     7    1
    17     7     6    1
    18     5     6    1
    19     5     2    1
    20     1     2    1
    21     2     3    1
    22    20    18   ar
    23   146   145    2
    24    19    18   ar
    25    18    17    1
    26   145   144    1
    27     3    12   am
    28     3     4    2
    29    12    13    1
    30   144   143    1
    31   144   147    1
    32   138   137    2
    33    17    16    1
    34    13    16    1
    35    13    14    1
    36   137   136    1
    37   141   140    1
    38   140   142    1
    39   140   139    1
    40    14    15    2
    41    26    25    1
    42   136   139    1
    43   136   135    1
    44    21    22    1
    45    25    22    1
    46    25    27    1
    47   130   129    2
    48    22    23    1
    49   135   129   am
    50   129   128    1
    51    28    23   am
    52    28    29    1
    53    23    24    2
    54   128   127    1
    55   128   131    1
    56    45    44    1
    57    32    29    1
    58    32    33    1
    59    77    76    2
    60    80    78    1
    61    29    30    1
    62   133   132    1
    63    33    35   ar
    64    33    34   ar
    65    44    43    1
    66    44    46    1
    67   132   131    1
    68   132   134    1
    69    76    75    1
    70    39    30   am
    71    39    40    1
    72   124   123    2
    73    35    37   ar
    74    43    40    1
    75    34    36   ar
    76    30    31    2
    77    78    75    1
    78    78    79    1
    79    75    74    1
    80    81    79    1
    81   123   122    1
    82    40    41    1
    83    37    38   ar
    84    36    38   ar
    85    41    42    2
    86   122   121    1
    87   122   125    1
    88    71    70    2
    89   125   126    1
    90    89    87    1
    91    52    51    1
    92    52    53    1
    93    47    48    1
    94    66    65    2
    95    70    69    1
    96    86    87    1
    97    86    83    1
    98    51    48    1
    99    87    88    1
   100    69    72    1
   101    69    68    1
   102    97    95    1
   103    53    54    1
   104    48    49    1
   105    82    83    1
   106   113   112    2
   107    65    68   am
   108    65    64    1
   109    72    73    1
   110    83    84    1
   111    95    94    1
   112    49    50    2
   113   112   111    1
   114    90    84   am
   115    90    91    1
   116    64    67    1
   117    64    63    1
   118    84    85    2
   119    94    91    1
   120    94    96    1
   121   111   110    1
   122   111   114    1
   123    91    92    1
   124    58    57    2
   125   119   117   ar
   126   119   120   ar
   127   117   115   ar
   128   120   118   ar
   129   115   116   ar
   130   115   114    1
   131   118   116   ar
   132    61    59    1
   133    92    93    2
   134    57    56    1
   135    56    59    1
   136    56    55    1
   137    59    60    1
   138    60    62    1
   139   102   103    1
   140   102    99    1
   141    98    99    1
   142   104   103   ar
   143   104   106   ar
   144   103   105   ar
   145    99   100    1
   146   106   108   ar
   147   105   107   ar
   148   108   107   ar
   149   108   109    1
   150   100   101    2
