@<TRIPOS>MOLECULE
tmp/6iemC00.pdb
 75 69 0 0 0
SMALL
GASTEIGER

@<TRIPOS>ATOM
      1  N         44.4030   24.4710   36.0230 N.3   122  LEU122     -0.1245
      2  CA        43.7670   24.2470   37.3370 C.3   122  LEU122      0.1561
      3  C         43.2510   25.5060   37.9950 C.2   122  LEU122      0.2260
      4  O         42.1870   25.4720   38.6010 O.2   122  LEU122     -0.2867
      5  CB        44.7050   23.5220   38.2890 C.3   122  LEU122      0.0270
      6  CG        44.9470   22.0780   37.8420 C.3   122  LEU122      0.0019
      7  CD1       46.2110   21.5100   38.4870 C.3   122  LEU122      0.0001
      8  CD2       43.7420   21.1990   38.1250 C.3   122  LEU122      0.0001
      9  N         39.9680   26.3870   36.0840 N.3   125  VAL125     -0.1231
     10  CA        38.9900   25.3870   36.4930 C.3   125  VAL125      0.1692
     11  C         38.5010   25.6890   37.9230 C.2   125  VAL125      0.2592
     12  O         37.2920   25.6520   38.1980 O.2   125  VAL125     -0.2718
     13  CB        39.5810   23.9600   36.3760 C.3   125  VAL125      0.0266
     14  CG1       38.6940   22.9400   37.0680 C.3   125  VAL125      0.0020
     15  CG2       39.7730   23.5730   34.9040 C.3   125  VAL125      0.0020
     16  N         39.4440   26.0250   38.8030 N.am  126  GLY126     -0.1957
     17  CA        39.1250   26.4490   40.1640 C.3   126  GLY126      0.1869
     18  C         38.2330   27.6690   40.1920 C.2   126  GLY126      0.2309
     19  O         37.2590   27.6950   40.9230 O.2   126  GLY126     -0.2863
     20  N         34.7200   26.6160   38.9700 N.3   129  ALA129     -0.1245
     21  CA        34.0800   25.8370   40.0330 C.3   129  ALA129      0.1562
     22  C         33.5750   26.6990   41.2030 C.2   129  ALA129      0.2260
     23  O         32.5050   26.4270   41.7750 O.2   129  ALA129     -0.2867
     24  CB        35.0500   24.7930   40.5610 C.3   129  ALA129      0.0290
     25  N         29.8650   18.9280   39.7540 N.3   434  LEU434     -0.1231
     26  CA        30.8310   19.7940   40.4090 C.3   434  LEU434      0.1693
     27  C         31.7620   18.9830   41.3140 C.2   434  LEU434      0.2592
     28  O         32.9980   19.1330   41.2860 O.2   434  LEU434     -0.2718
     29  CB        30.1030   20.8630   41.2090 C.3   434  LEU434      0.0284
     30  CG        30.8850   21.8680   42.0680 C.3   434  LEU434      0.0019
     31  CD1       31.8600   22.6860   41.2480 C.3   434  LEU434      0.0001
     32  CD2       29.9070   22.7870   42.7750 C.3   434  LEU434      0.0001
     33  N         31.1720   18.0980   42.1010 N.am  435  ASN435     -0.1974
     34  CA        31.9830   17.2360   42.9110 C.3   435  ASN435      0.1688
     35  C         32.9470   16.3800   42.0740 C.2   435  ASN435      0.2292
     36  O         34.1290   16.2830   42.4020 O.2   435  ASN435     -0.2864
     37  CB        31.1160   16.3620   43.7870 C.3   435  ASN435      0.1181
     38  CG        31.9210   15.7020   44.8590 C.2   435  ASN435      0.2629
     39  OD1       32.3290   16.3520   45.8200 O.2   435  ASN435     -0.2716
     40  ND2       32.2100   14.4140   44.6820 N.am  435  ASN435     -0.0877
     41  N         34.2300   17.0460   39.1410 N.3   437  ILE437     -0.1231
     42  CA        35.2780   17.9190   38.6320 C.3   437  ILE437      0.1692
     43  C         36.4220   18.0500   39.6470 C.2   437  ILE437      0.2593
     44  O         37.6050   18.0370   39.2830 O.2   437  ILE437     -0.2718
     45  CB        34.7040   19.2920   38.2200 C.3   437  ILE437      0.0266
     46  CG1       34.0080   19.1670   36.8640 C.3   437  ILE437      0.0019
     47  CG2       35.7930   20.3640   38.1370 C.3   437  ILE437      0.0020
     48  CD1       32.9860   20.2550   36.6150 C.3   437  ILE437      0.0001
     49  N         36.0750   18.1530   40.9240 N.am  438  GLY438     -0.1942
     50  CA        37.0940   18.2290   41.9490 C.3   438  GLY438      0.2014
     51  C         37.9270   16.9700   42.0040 C.2   438  GLY438      0.2638
     52  O         39.1490   17.0370   42.1120 O.2   438  GLY438     -0.2714
     53  N         37.2620   15.8240   41.9140 N.am  439  GLU439     -0.1977
     54  CA        37.9360   14.5410   41.9490 C.3   439  GLU439      0.1602
     55  C         38.8370   14.3540   40.7320 C.2   439  GLU439      0.2287
     56  O         39.9900   13.9360   40.8680 O.2   439  GLU439     -0.2864
     57  CB        36.9250   13.4090   42.0200 C.3   439  GLU439      0.0415
     58  CG        36.3610   13.2320   43.4480 C.3   439  GLU439      0.1163
     59  CD        35.1950   12.2700   43.4610 C.2   439  GLU439      0.3649
     60  OE1       35.0890   11.5710   42.4270 O.co2 439  GLU439     -0.2457
     61  OE2       34.4820   12.2640   44.4540 O.co2 439  GLU439     -0.2457
     62  N         40.1200   16.6800   38.8410 N.3   441  ALA441     -0.1231
     63  CA        41.2100   17.6280   38.8550 C.3   441  ALA441      0.1694
     64  C         42.3310   17.1830   39.7640 C.2   441  ALA441      0.2591
     65  O         43.5000   17.3800   39.4400 O.2   441  ALA441     -0.2718
     66  CB        40.7290   19.0080   39.2480 C.3   441  ALA441      0.0304
     67  N         41.9750   16.5790   40.9020 N.am  442  GLU442     -0.1979
     68  CA        42.9640   16.1420   41.8660 C.3   442  GLU442      0.1602
     69  C         43.6890   14.8960   41.3560 C.2   442  GLU442      0.2287
     70  O         44.9110   14.7980   41.4570 O.2   442  GLU442     -0.2864
     71  CB        42.3310   15.9580   43.2610 C.3   442  GLU442      0.0415
     72  CG        43.2430   15.3850   44.3560 C.3   442  GLU442      0.1163
     73  CD        44.5310   16.1910   44.6360 C.2   442  GLU442      0.3649
     74  OE1       44.6220   17.3980   44.3110 O.co2 442  GLU442     -0.2457
     75  OE2       45.4730   15.6060   45.2080 O.co2 442  GLU442     -0.2457
@<TRIPOS>BOND
     1    15    13    1
     2     1     2    1
     3     9    10    1
     4    13    10    1
     5    13    14    1
     6    10    11    1
     7    48    46    1
     8    46    45    1
     9     2     3    1
    10     2     5    1
    11     6     8    1
    12     6     5    1
    13     6     7    1
    14    11    12    2
    15    11    16   am
    16     3     4    2
    17    47    45    1
    18    45    42    1
    19    42    41    1
    20    42    43    1
    21    16    17    1
    22    62    63    1
    23    63    66    1
    24    63    64    1
    25    20    21    1
    26    44    43    2
    27    65    64    2
    28    43    49   am
    29    25    26    1
    30    64    67   am
    31    21    24    1
    32    21    22    1
    33    17    18    1
    34    18    19    2
    35    26    29    1
    36    26    27    1
    37    55    56    2
    38    55    54    1
    39    67    68    1
    40    49    50    1
    41    22    23    2
    42    29    30    1
    43    31    30    1
    44    28    27    2
    45    27    33   am
    46    69    70    2
    47    69    68    1
    48    68    71    1
    49    53    54    1
    50    53    51   am
    51    54    57    1
    52    50    51    1
    53    51    52    2
    54    57    58    1
    55    30    32    1
    56    35    36    2
    57    35    34    1
    58    33    34    1
    59    60    59   ar
    60    34    37    1
    61    71    72    1
    62    58    59    1
    63    59    61   ar
    64    37    38    1
    65    74    73   ar
    66    72    73    1
    67    73    75   ar
    68    40    38   am
    69    38    39    2
