@<TRIPOS>MOLECULE
tmp/6iemE00.pdb
 132 125 0 0 0
SMALL
GASTEIGER

@<TRIPOS>ATOM
      1  N         45.4460    6.3390   80.9570 N.3   122  LEU122     -0.1231
      2  CA        44.7350    5.0680   80.8990 C.3   122  LEU122      0.1693
      3  C         44.1110    4.6970   82.2330 C.2   122  LEU122      0.2592
      4  O         43.0010    4.1700   82.2660 O.2   122  LEU122     -0.2718
      5  CB        45.6500    3.9540   80.3820 C.3   122  LEU122      0.0284
      6  CG        45.8670    4.0260   78.8570 C.3   122  LEU122      0.0019
      7  CD1       47.0480    3.1660   78.4070 C.3   122  LEU122      0.0001
      8  CD2       44.6000    3.6440   78.1130 C.3   122  LEU122      0.0001
      9  N         44.8030    4.9950   83.3320 N.am  123  ASP123     -0.1974
     10  CA        44.2480    4.7470   84.6600 C.3   123  ASP123      0.1709
     11  C         42.9960    5.5590   84.9430 C.2   123  ASP123      0.2293
     12  O         42.0450    5.0220   85.4820 O.2   123  ASP123     -0.2864
     13  CB        45.2680    5.0300   85.7510 C.3   123  ASP123      0.1436
     14  CG        46.2900    3.9370   85.8850 C.2   123  ASP123      0.3671
     15  OD1       46.0470    2.8220   85.3460 O.co2 123  ASP123     -0.2456
     16  OD2       47.3440    4.1990   86.5300 O.co2 123  ASP123     -0.2456
     17  N         40.9940    6.8260   82.6500 N.3   125  VAL125     -0.1231
     18  CA        39.9850    6.2890   81.7760 C.3   125  VAL125      0.1692
     19  C         39.4470    4.9830   82.3640 C.2   125  VAL125      0.2593
     20  O         38.2340    4.7640   82.3900 O.2   125  VAL125     -0.2718
     21  CB        40.5210    6.0790   80.3420 C.3   125  VAL125      0.0266
     22  CG1       39.5910    5.1700   79.5540 C.3   125  VAL125      0.0020
     23  CG2       40.6840    7.4130   79.6430 C.3   125  VAL125      0.0020
     24  N         40.3440    4.1150   82.8330 N.am  126  GLY126     -0.1942
     25  CA        39.9140    2.8380   83.4390 C.3   126  GLY126      0.2014
     26  C         39.0080    3.0720   84.6340 C.2   126  GLY126      0.2638
     27  O         37.9880    2.3990   84.7900 O.2   126  GLY126     -0.2714
     28  N         39.3610    4.0550   85.4620 N.am  127  ALA127     -0.1977
     29  CA        38.5800    4.3870   86.6660 C.3   127  ALA127      0.1597
     30  C         37.1850    4.9000   86.3160 C.2   127  ALA127      0.2287
     31  O         36.2230    4.5110   86.9640 O.2   127  ALA127     -0.2864
     32  CB        39.3200    5.3770   87.5420 C.3   127  ALA127      0.0319
     33  N         35.6370    4.1240   83.5110 N.3   129  ALA129     -0.1231
     34  CA        34.9450    3.0150   82.9050 C.3   129  ALA129      0.1694
     35  C         34.4140    2.0030   83.9480 C.2   129  ALA129      0.2591
     36  O         33.2950    1.5150   83.7960 O.2   129  ALA129     -0.2718
     37  CB        35.8140    2.3580   81.8550 C.3   129  ALA129      0.0304
     38  N         35.1980    1.6970   84.9810 N.am  130  GLU130     -0.1979
     39  CA        34.7530    0.8570   86.1240 C.3   130  GLU130      0.1602
     40  C         33.5210    1.4240   86.8110 C.2   130  GLU130      0.2287
     41  O         32.6270    0.6760   87.1790 O.2   130  GLU130     -0.2864
     42  CB        35.8190    0.7660   87.2160 C.3   130  GLU130      0.0415
     43  CG        36.9820   -0.1850   86.9920 C.3   130  GLU130      0.1163
     44  CD        38.1020    0.0300   88.0280 C.2   130  GLU130      0.3649
     45  OE1       38.8450   -0.9320   88.3320 O.co2 130  GLU130     -0.2457
     46  OE2       38.2500    1.1650   88.5530 O.co2 130  GLU130     -0.2457
     47  N         41.0030    8.6450  100.2950 N.3   262  TRP262     -0.1241
     48  CA        41.3310    9.4700   99.1320 C.3   262  TRP262      0.1605
     49  C         40.9390   10.9170   99.3120 C.2   262  TRP262      0.2264
     50  O         40.9920   11.6940   98.3680 O.2   262  TRP262     -0.2867
     51  CB        40.6580    8.9020   97.8820 C.3   262  TRP262      0.0550
     52  CG        41.3660    7.6790   97.3700 C.ar  262  TRP262      0.0003
     53  CD1       40.9970    6.3610   97.5410 C.ar  262  TRP262      0.0946
     54  CD2       42.5970    7.6610   96.6390 C.ar  262  TRP262      0.0152
     55  NE1       41.9250    5.5370   96.9470 N.ar  262  TRP262     -0.2442
     56  CE2       42.9120    6.3060   96.3850 C.ar  262  TRP262      0.0810
     57  CE3       43.4510    8.6580   96.1690 C.ar  262  TRP262      0.0012
     58  CZ2       44.0640    5.9220   95.6820 C.ar  262  TRP262      0.0191
     59  CZ3       44.6010    8.2880   95.4840 C.ar  262  TRP262      0.0001
     60  CH2       44.9010    6.9230   95.2450 C.ar  262  TRP262      0.0015
     61  N         47.5240    9.5300   88.7140 N.3   323  PRO323     -0.2116
     62  CA        47.1570    8.4050   89.6150 C.3   323  PRO323      0.1372
     63  C         46.2840    8.8290   90.8000 C.2   323  PRO323      0.2244
     64  O         45.4650    8.0350   91.2600 O.2   323  PRO323     -0.2868
     65  CB        48.5000    7.8660   90.1080 C.3   323  PRO323      0.0268
     66  CG        49.4790    8.9470   89.8340 C.3   323  PRO323      0.0207
     67  CD        48.9770    9.7750   88.6870 C.3   323  PRO323      0.0892
     68  N         42.6700    9.1810   89.3720 N.3   326  ALA326     -0.1231
     69  CA        42.2060    7.8260   89.0870 C.3   326  ALA326      0.1694
     70  C         41.7670    7.1550   90.3750 C.2   326  ALA326      0.2592
     71  O         40.7190    6.5280   90.4230 O.2   326  ALA326     -0.2718
     72  CB        43.2980    7.0110   88.3890 C.3   326  ALA326      0.0304
     73  N         42.5680    7.3320   91.4270 N.am  327  GLY327     -0.1957
     74  CA        42.2510    6.8250   92.7470 C.3   327  GLY327      0.1869
     75  C         40.9890    7.4550   93.2920 C.2   327  GLY327      0.2309
     76  O         40.1250    6.7600   93.8510 O.2   327  GLY327     -0.2863
     77  N         37.9220    6.1770   91.1490 N.3   330  ALA330     -0.1245
     78  CA        37.6040    4.7650   91.3230 C.3   330  ALA330      0.1562
     79  C         36.9980    4.5010   92.6970 C.2   330  ALA330      0.2260
     80  O         36.2830    3.5180   92.8780 O.2   330  ALA330     -0.2867
     81  CB        38.8310    3.8980   91.1220 C.3   330  ALA330      0.0290
     82  N         30.4970    2.0980   76.1620 N.3   432  LEU432     -0.1231
     83  CA        31.4230    1.6000   77.1750 C.3   432  LEU432      0.1693
     84  C         32.3860    0.5340   76.6360 C.2   432  LEU432      0.2592
     85  O         33.6100    0.6100   76.8280 O.2   432  LEU432     -0.2718
     86  CB        30.6840    1.1040   78.4410 C.3   432  LEU432      0.0284
     87  CG        31.5540    0.3590   79.4740 C.3   432  LEU432      0.0019
     88  CD1       32.6250    1.2510   80.0960 C.3   432  LEU432      0.0001
     89  CD2       30.6770   -0.2740   80.5490 C.3   432  LEU432      0.0001
     90  N         31.8470   -0.4660   75.9660 N.am  433  ASN433     -0.1974
     91  CA        32.7110   -1.4580   75.3140 C.3   433  ASN433      0.1688
     92  C         33.7180   -0.8680   74.2870 C.2   433  ASN433      0.2292
     93  O         34.8970   -1.2310   74.2670 O.2   433  ASN433     -0.2864
     94  CB        31.8660   -2.5380   74.6470 C.3   433  ASN433      0.1181
     95  CG        32.7120   -3.5820   73.9590 C.2   433  ASN433      0.2629
     96  OD1       33.4490   -4.3340   74.6000 O.2   433  ASN433     -0.2716
     97  ND2       32.6250   -3.6260   72.6470 N.am  433  ASN433     -0.0877
     98  N         34.9600    2.0820   74.1660 N.3   435  ILE435     -0.1231
     99  CA        36.0040    2.8170   74.8570 C.3   435  ILE435      0.1692
    100  C         37.1650    1.9190   75.2690 C.2   435  ILE435      0.2593
    101  O         38.3250    2.3320   75.1990 O.2   435  ILE435     -0.2718
    102  CB        35.4630    3.5410   76.0990 C.3   435  ILE435      0.0266
    103  CG1       34.7720    4.8350   75.6640 C.3   435  ILE435      0.0019
    104  CG2       36.5870    3.8380   77.1140 C.3   435  ILE435      0.0020
    105  CD1       34.1590    5.6250   76.7980 C.3   435  ILE435      0.0001
    106  N         36.8440    0.7060   75.7140 N.am  436  GLY436     -0.1942
    107  CA        37.8570   -0.2810   76.0980 C.3   436  GLY436      0.2014
    108  C         38.6840   -0.6830   74.8970 C.2   436  GLY436      0.2638
    109  O         39.9170   -0.7820   74.9750 O.2   436  GLY436     -0.2714
    110  N         38.0070   -0.8830   73.7710 N.am  437  GLU437     -0.1977
    111  CA        38.6990   -1.2260   72.5360 C.3   437  GLU437      0.1602
    112  C         39.6220   -0.0980   72.0640 C.2   437  GLU437      0.2287
    113  O         40.7420   -0.3530   71.6680 O.2   437  GLU437     -0.2864
    114  CB        37.7110   -1.6990   71.4400 C.3   437  GLU437      0.0415
    115  CG        37.3020   -3.1610   71.6090 C.3   437  GLU437      0.1163
    116  CD        36.0540   -3.5850   70.8170 C.2   437  GLU437      0.3649
    117  OE1       35.6790   -2.9150   69.8210 O.co2 437  GLU437     -0.2457
    118  OE2       35.4360   -4.6200   71.1880 O.co2 437  GLU437     -0.2457
    119  N         40.9970    2.3230   73.8830 N.3   439  ALA439     -0.1231
    120  CA        42.0970    2.4180   74.8460 C.3   439  ALA439      0.1694
    121  C         43.1550    1.3450   74.5750 C.2   439  ALA439      0.2591
    122  O         44.3440    1.6370   74.5520 O.2   439  ALA439     -0.2718
    123  CB        41.5800    2.3200   76.2710 C.3   439  ALA439      0.0304
    124  N         42.7140    0.1160   74.3350 N.am  440  GLU440     -0.1979
    125  CA        43.6370   -0.9510   73.9910 C.3   440  GLU440      0.1602
    126  C         44.3600   -0.7070   72.6530 C.2   440  GLU440      0.2287
    127  O         45.5630   -0.9120   72.5670 O.2   440  GLU440     -0.2864
    128  CB        42.9060   -2.2990   74.0070 C.3   440  GLU440      0.0415
    129  CG        43.7640   -3.5220   73.6970 C.3   440  GLU440      0.1163
    130  CD        44.8640   -3.8030   74.7170 C.2   440  GLU440      0.3649
    131  OE1       44.7960   -3.3260   75.8790 O.co2 440  GLU440     -0.2457
    132  OE2       45.8150   -4.5360   74.3460 O.co2 440  GLU440     -0.2457
@<TRIPOS>BOND
     1   117   116   ar
     2   116   118   ar
     3   116   115    1
     4   114   115    1
     5   114   111    1
     6   113   112    2
     7   112   111    1
     8   111   110    1
     9   127   126    2
    10    97    95   am
    11   126   125    1
    12   129   128    1
    13   129   130    1
    14   110   108   am
    15   119   120    1
    16    95    96    2
    17    95    94    1
    18   125   128    1
    19   125   124    1
    20    98    99    1
    21    93    92    2
    22    92    91    1
    23   124   121   am
    24   132   130   ar
    25   122   121    2
    26   121   120    1
    27    94    91    1
    28   130   131   ar
    29   120   123    1
    30    99   100    1
    31    99   102    1
    32   108   109    2
    33   108   107    1
    34   101   100    2
    35   100   106   am
    36    91    90    1
    37   103   102    1
    38   103   105    1
    39   106   107    1
    40    90    84   am
    41   102   104    1
    42    82    83    1
    43    84    85    2
    44    84    83    1
    45    83    86    1
    46     8     6    1
    47     7     6    1
    48    86    87    1
    49     6     5    1
    50    87    88    1
    51    87    89    1
    52    22    21    1
    53    23    21    1
    54    21    18    1
    55     5     2    1
    56     2     1    1
    57     2     3    1
    58    18    19    1
    59    18    17    1
    60    37    34    1
    61     3     4    2
    62     3     9   am
    63    19    20    2
    64    19    24   am
    65    24    25    1
    66    34    33    1
    67    34    35    1
    68     9    10    1
    69    25    26    1
    70    36    35    2
    71    35    38   am
    72    26    27    2
    73    26    28   am
    74    10    11    1
    75    10    13    1
    76    11    12    2
    77    38    39    1
    78    15    14   ar
    79    28    29    1
    80    13    14    1
    81    14    16   ar
    82    39    40    1
    83    39    42    1
    84    30    29    1
    85    30    31    2
    86    29    32    1
    87    40    41    2
    88    43    42    1
    89    43    44    1
    90    44    45   ar
    91    44    46   ar
    92    72    69    1
    93    67    61    1
    94    67    66    1
    95    61    62    1
    96    69    68    1
    97    69    70    1
    98    62    65    1
    99    62    63    1
   100    66    65    1
   101    70    71    2
   102    70    73   am
   103    63    64    2
   104    81    78    1
   105    77    78    1
   106    78    79    1
   107    73    74    1
   108    79    80    2
   109    74    75    1
   110    75    76    2
   111    60    59   ar
   112    60    58   ar
   113    59    57   ar
   114    58    56   ar
   115    57    54   ar
   116    56    54   ar
   117    56    55   ar
   118    54    52   ar
   119    55    53   ar
   120    52    53   ar
   121    52    51    1
   122    51    48    1
   123    50    49    2
   124    48    49    1
   125    48    47    1
