@<TRIPOS>MOLECULE
tmp/6iemF00.pdb
 66 60 0 0 0
SMALL
GASTEIGER

@<TRIPOS>ATOM
      1  N         52.3960   26.1520   52.6580 N.3   122  LEU122     -0.1245
      2  CA        53.0690   25.6440   51.4560 C.3   122  LEU122      0.1561
      3  C         53.7010   26.7630   50.6210 C.2   122  LEU122      0.2260
      4  O         54.7740   26.5850   50.0990 O.2   122  LEU122     -0.2867
      5  CB        52.1310   24.7930   50.6020 C.3   122  LEU122      0.0270
      6  CG        51.8860   23.3730   51.1120 C.3   122  LEU122      0.0019
      7  CD1       50.9630   22.6710   50.1260 C.3   122  LEU122      0.0001
      8  CD2       53.1800   22.5820   51.3110 C.3   122  LEU122      0.0001
      9  N         56.9020   27.6300   52.3490 N.3   125  VAL125     -0.1231
     10  CA        57.8420   26.5280   52.0960 C.3   125  VAL125      0.1692
     11  C         58.3380   26.6460   50.6520 C.2   125  VAL125      0.2592
     12  O         59.5460   26.5610   50.3920 O.2   125  VAL125     -0.2718
     13  CB        57.2480   25.1270   52.3820 C.3   125  VAL125      0.0266
     14  CG1       58.1840   24.0130   51.9500 C.3   125  VAL125      0.0020
     15  CG2       56.9860   24.9710   53.8590 C.3   125  VAL125      0.0020
     16  N         57.4130   26.8930   49.7280 N.am  126  GLY126     -0.1957
     17  CA        57.7530   27.0350   48.3060 C.3   126  GLY126      0.1869
     18  C         58.7410   28.1760   48.0910 C.2   126  GLY126      0.2309
     19  O         59.7360   27.9940   47.4090 O.2   126  GLY126     -0.2863
     20  N         62.1390   27.1640   49.4010 N.3   129  ALA129     -0.1245
     21  CA        62.7660   26.1710   48.5350 C.3   129  ALA129      0.1562
     22  C         63.3180   26.8020   47.2420 C.2   129  ALA129      0.2260
     23  O         64.3550   26.3830   46.7400 O.2   129  ALA129     -0.2867
     24  CB        61.7810   25.0520   48.2050 C.3   129  ALA129      0.0290
     25  N         66.6850   19.0810   49.6770 N.3   434  LEU434     -0.1231
     26  CA        65.7410   19.8850   48.9060 C.3   434  LEU434      0.1693
     27  C         64.7160   19.0110   48.2010 C.2   434  LEU434      0.2592
     28  O         63.5150   19.2510   48.3230 O.2   434  LEU434     -0.2718
     29  CB        66.4700   20.7830   47.9180 C.3   434  LEU434      0.0284
     30  CG        65.7190   21.7190   46.9670 C.3   434  LEU434      0.0019
     31  CD1       64.7350   22.6420   47.6500 C.3   434  LEU434      0.0001
     32  CD2       66.7600   22.5320   46.2170 C.3   434  LEU434      0.0001
     33  N         65.1830   17.9900   47.4880 N.am  435  ASN435     -0.1974
     34  CA        64.2800   17.0510   46.8370 C.3   435  ASN435      0.1688
     35  C         63.2640   16.4660   47.8320 C.2   435  ASN435      0.2292
     36  O         62.0730   16.4770   47.5670 O.2   435  ASN435     -0.2864
     37  CB        65.0530   15.9290   46.1120 C.3   435  ASN435      0.1181
     38  CG        64.1400   14.7960   45.6380 C.2   435  ASN435      0.2629
     39  OD1       63.1890   15.0220   44.8850 O.2   435  ASN435     -0.2716
     40  ND2       64.4230   13.5710   46.0810 N.am  435  ASN435     -0.0877
     41  N         62.0930   17.6620   50.5510 N.3   437  ILE437     -0.1231
     42  CA        61.1080   18.6540   51.0020 C.3   437  ILE437      0.1692
     43  C         59.9800   18.7720   49.9960 C.2   437  ILE437      0.2593
     44  O         58.8420   19.0900   50.3590 O.2   437  ILE437     -0.2718
     45  CB        61.7520   20.0270   51.2260 C.3   437  ILE437      0.0266
     46  CG1       62.2960   20.1130   52.6550 C.3   437  ILE437      0.0019
     47  CG2       60.7830   21.1660   50.9320 C.3   437  ILE437      0.0020
     48  CD1       63.3340   21.2060   52.8070 C.3   437  ILE437      0.0001
     49  N         60.3080   18.5180   48.7280 N.am  438  GLY438     -0.1942
     50  CA        59.3120   18.4800   47.6610 C.3   438  GLY438      0.2014
     51  C         58.3880   17.2850   47.8080 C.2   438  GLY438      0.2638
     52  O         57.1810   17.4420   47.7170 O.2   438  GLY438     -0.2714
     53  N         58.9520   16.1020   48.0470 N.am  439  GLU439     -0.1977
     54  CA        58.1620   14.8820   48.2680 C.3   439  GLU439      0.1602
     55  C         57.2450   14.9530   49.5160 C.2   439  GLU439      0.2287
     56  O         56.0550   14.6310   49.4440 O.2   439  GLU439     -0.2864
     57  CB        59.0880   13.6440   48.3490 C.3   439  GLU439      0.0415
     58  CG        59.9900   13.4490   47.1030 C.3   439  GLU439      0.1163
     59  CD        60.9680   12.3140   47.1250 C.2   439  GLU439      0.3649
     60  OE1       61.2240   11.6400   48.0850 O.co2 439  GLU439     -0.2457
     61  OE2       61.5350   12.0970   46.0390 O.co2 439  GLU439     -0.2457
     62  N         56.2070   17.7090   51.0860 N.3   441  ALA441     -0.1245
     63  CA        55.1970   18.7220   50.8020 C.3   441  ALA441      0.1562
     64  C         54.0210   18.1570   50.0090 C.2   441  ALA441      0.2260
     65  O         52.8540   18.4760   50.2940 O.2   441  ALA441     -0.2867
     66  CB        55.8140   19.8580   50.0230 C.3   441  ALA441      0.0290
@<TRIPOS>BOND
     1    39    38    2
     2    38    40   am
     3    38    37    1
     4    61    59   ar
     5    37    34    1
     6    32    30    1
     7    23    22    2
     8    34    33    1
     9    34    35    1
    10    30    31    1
    11    30    29    1
    12    58    59    1
    13    58    57    1
    14    59    60   ar
    15    22    21    1
    16    19    18    2
    17    33    27   am
    18    36    35    2
    19    50    51    1
    20    50    49    1
    21    52    51    2
    22    51    53   am
    23    29    26    1
    24    53    54    1
    25    18    17    1
    26    27    28    2
    27    27    26    1
    28    24    21    1
    29    54    57    1
    30    54    55    1
    31    17    16    1
    32    21    20    1
    33    49    43   am
    34    26    25    1
    35    56    55    2
    36    16    11   am
    37    43    44    2
    38    43    42    1
    39    64    65    2
    40    64    63    1
    41    66    63    1
    42     4     3    2
    43     7     6    1
    44    12    11    2
    45    41    42    1
    46     5     6    1
    47     5     2    1
    48     3     2    1
    49    11    10    1
    50    63    62    1
    51    47    45    1
    52    42    45    1
    53     6     8    1
    54    45    46    1
    55     2     1    1
    56    14    13    1
    57    10     9    1
    58    10    13    1
    59    13    15    1
    60    46    48    1
