@<TRIPOS>MOLECULE
tmp/6iemD00.pdb
 94 87 0 0 0
SMALL
GASTEIGER

@<TRIPOS>ATOM
      1  N         50.3140    0.4580   10.6000 N.3   122  LEU122     -0.1231
      2  CA        50.9360   -0.8030   10.9430 C.3   122  LEU122      0.1693
      3  C         51.4960   -1.4510    9.6930 C.2   122  LEU122      0.2592
      4  O         52.5100   -2.1220    9.7500 O.2   122  LEU122     -0.2718
      5  CB        49.9470   -1.7320   11.6700 C.3   122  LEU122      0.0284
      6  CG        49.7820   -1.4890   13.1740 C.3   122  LEU122      0.0019
      7  CD1       48.5480   -2.1550   13.7690 C.3   122  LEU122      0.0001
      8  CD2       51.0260   -1.9120   13.9270 C.3   122  LEU122      0.0001
      9  N         50.8670   -1.2250    8.5490 N.am  123  ASP123     -0.1974
     10  CA        51.4440   -1.7370    7.2990 C.3   123  ASP123      0.1709
     11  C         52.7310   -1.0090    6.8690 C.2   123  ASP123      0.2293
     12  O         53.6740   -1.6460    6.4070 O.2   123  ASP123     -0.2864
     13  CB        50.4070   -1.7880    6.1830 C.3   123  ASP123      0.1436
     14  CG        49.2130   -2.6390    6.5630 C.2   123  ASP123      0.3671
     15  OD1       49.4110   -3.6970    7.2110 O.co2 123  ASP123     -0.2456
     16  OD2       48.0690   -2.2460    6.2470 O.co2 123  ASP123     -0.2456
     17  N         54.8490    0.4840    8.9860 N.3   125  VAL125     -0.1231
     18  CA        55.8060   -0.0180    9.9660 C.3   125  VAL125      0.1692
     19  C         56.2610   -1.4430    9.6260 C.2   125  VAL125      0.2592
     20  O         57.4460   -1.7500    9.7080 O.2   125  VAL125     -0.2718
     21  CB        55.2440    0.0460   11.4160 C.3   125  VAL125      0.0266
     22  CG1       56.0970   -0.7740   12.3810 C.3   125  VAL125      0.0020
     23  CG2       55.1650    1.4880   11.9000 C.3   125  VAL125      0.0020
     24  N         55.3270   -2.3090    9.2410 N.am  126  GLY126     -0.1957
     25  CA        55.6750   -3.6660    8.7820 C.3   126  GLY126      0.1869
     26  C         56.5440   -3.6400    7.5240 C.2   126  GLY126      0.2309
     27  O         57.4700   -4.4490    7.3870 O.2   126  GLY126     -0.2863
     28  N         60.0210   -2.7160    8.7150 N.3   129  ALA129     -0.1245
     29  CA        60.6530   -3.7860    9.5020 C.3   129  ALA129      0.1562
     30  C         61.1010   -4.9400    8.6160 C.2   129  ALA129      0.2260
     31  O         62.1730   -5.5000    8.8070 O.2   129  ALA129     -0.2867
     32  CB        59.7190   -4.2740   10.6060 C.3   129  ALA129      0.0290
     33  N         64.7090   -4.1720   16.6990 N.3   438  LEU438     -0.1231
     34  CA        63.7930   -4.7130   15.7220 C.3   438  LEU438      0.1693
     35  C         62.7970   -5.6380   16.4090 C.2   438  LEU438      0.2592
     36  O         61.6080   -5.6450   16.0850 O.2   438  LEU438     -0.2718
     37  CB        64.5590   -5.4320   14.6060 C.3   438  LEU438      0.0284
     38  CG        63.7860   -6.2670   13.5970 C.3   438  LEU438      0.0019
     39  CD1       62.7400   -5.4420   12.8710 C.3   438  LEU438      0.0001
     40  CD2       64.7940   -6.8170   12.6200 C.3   438  LEU438      0.0001
     41  N         63.2850   -6.4000   17.3740 N.am  439  ASN439     -0.1974
     42  CA        62.4040   -7.1910   18.2040 C.3   439  ASN439      0.1688
     43  C         61.3890   -6.3480   18.9910 C.2   439  ASN439      0.2292
     44  O         60.1970   -6.6750   19.0310 O.2   439  ASN439     -0.2864
     45  CB        63.2100   -8.0700   19.1670 C.3   439  ASN439      0.1181
     46  CG        62.3340   -9.0690   19.8900 C.2   439  ASN439      0.2629
     47  OD1       61.6900   -9.9110   19.2640 O.2   439  ASN439     -0.2716
     48  ND2       62.2690   -8.9530   21.2120 N.am  439  ASN439     -0.0877
     49  N         60.1680   -3.3210   18.4370 N.3   441  ILE441     -0.1231
     50  CA        59.1850   -2.7010   17.5320 C.3   441  ILE441      0.1692
     51  C         58.0250   -3.6510   17.2420 C.2   441  ILE441      0.2593
     52  O         56.8520   -3.2570   17.2820 O.2   441  ILE441     -0.2718
     53  CB        59.8380   -2.2340   16.2100 C.3   441  ILE441      0.0266
     54  CG1       60.4450   -0.8470   16.3950 C.3   441  ILE441      0.0019
     55  CG2       58.8450   -2.1740   15.0600 C.3   441  ILE441      0.0020
     56  CD1       61.5070   -0.5250   15.3650 C.3   441  ILE441      0.0001
     57  N         58.3460   -4.9060   16.9490 N.am  442  GLY442     -0.1942
     58  CA        57.3040   -5.8930   16.7180 C.3   442  GLY442      0.2014
     59  C         56.4310   -6.0860   17.9470 C.2   442  GLY442      0.2638
     60  O         55.2190   -6.1520   17.8340 O.2   442  GLY442     -0.2714
     61  N         57.0530   -6.1790   19.1200 N.am  443  GLU443     -0.1977
     62  CA        56.3210   -6.3680   20.3680 C.3   443  GLU443      0.1602
     63  C         55.5000   -5.1210   20.7330 C.2   443  GLU443      0.2287
     64  O         54.3810   -5.2340   21.2350 O.2   443  GLU443     -0.2864
     65  CB        57.2710   -6.7840   21.5090 C.3   443  GLU443      0.0415
     66  CG        57.9730   -8.1080   21.2070 C.3   443  GLU443      0.1163
     67  CD        57.1210   -9.2360   21.7550 C.2   443  GLU443      0.3649
     68  OE1       56.0350   -9.0200   22.3460 O.co2 443  GLU443     -0.2457
     69  OE2       57.5070  -10.3920   21.5550 O.co2 443  GLU443     -0.2457
     70  N         54.2580   -3.0250   18.5410 N.3   445  ALA445     -0.1231
     71  CA        53.1630   -3.0140   17.5900 C.3   445  ALA445      0.1694
     72  C         52.0470   -3.9590   18.0100 C.2   445  ALA445      0.2591
     73  O         50.8660   -3.5690   17.9960 O.2   445  ALA445     -0.2718
     74  CB        53.6570   -3.3390   16.1840 C.3   445  ALA445      0.0304
     75  N         52.4100   -5.1870   18.3980 N.am  446  GLU446     -0.1979
     76  CA        51.4230   -6.1480   18.8710 C.3   446  GLU446      0.1602
     77  C         50.7150   -5.5570   20.0670 C.2   446  GLU446      0.2287
     78  O         49.4990   -5.6740   20.2120 O.2   446  GLU446     -0.2864
     79  CB        52.0740   -7.4800   19.2690 C.3   446  GLU446      0.0415
     80  CG        52.4110   -8.3450   18.0330 C.3   446  GLU446      0.1163
     81  CD        53.2570   -9.5390   18.4160 C.2   446  GLU446      0.3649
     82  OE1       53.2750   -9.7890   19.6430 O.co2 446  GLU446     -0.2457
     83  OE2       53.8300  -10.1340   17.5140 O.co2 446  GLU446     -0.2457
     84  N         48.1020   -2.8690   18.8640 N.3   449  ARG449     -0.1245
     85  CA        46.8570   -3.3570   18.2940 C.3   449  ARG449      0.1563
     86  C         45.9650   -4.0880   19.2920 C.2   449  ARG449      0.2260
     87  O         44.7420   -4.0210   19.1930 O.2   449  ARG449     -0.2867
     88  CB        47.0000   -4.0790   16.9520 C.3   449  ARG449      0.0307
     89  CG        48.0600   -5.1310   16.8160 C.3   449  ARG449      0.0489
     90  CD        47.6190   -6.0920   15.7220 C.3   449  ARG449      0.2205
     91  NE        46.4240   -6.8320   16.1440 N.pl3 449  ARG449     -0.0865
     92  CZ        46.4240   -7.8700   16.9890 C.cat 449  ARG449      0.5346
     93  NH1       47.5620   -8.3270   17.5160 N.pl3 449  ARG449      0.1354
     94  NH2       45.2790   -8.4600   17.3110 N.pl3 449  ARG449      0.1354
@<TRIPOS>BOND
     1    13    14    1
     2    13    10    1
     3    16    14   ar
     4    12    11    2
     5    14    15   ar
     6    11    10    1
     7    10     9    1
     8    27    26    2
     9    26    25    1
    10     9     3   am
    11    30    31    2
    12    30    29    1
    13    28    29    1
    14    25    24    1
    15    17    18    1
    16    24    19   am
    17    29    32    1
    18    19    20    2
    19    19    18    1
    20     3     4    2
    21     3     2    1
    22    18    21    1
    23     1     2    1
    24     2     5    1
    25    21    23    1
    26    21    22    1
    27     5     6    1
    28    40    38    1
    29    39    38    1
    30     6     7    1
    31     6     8    1
    32    38    37    1
    33    37    34    1
    34    55    53    1
    35    56    54    1
    36    34    35    1
    37    34    33    1
    38    90    91    1
    39    90    89    1
    40    36    35    2
    41    91    92    2
    42    74    71    1
    43    53    54    1
    44    53    50    1
    45    35    41   am
    46    58    57    1
    47    58    59    1
    48    89    88    1
    49    57    51   am
    50    88    85    1
    51    92    94    1
    52    92    93    1
    53    51    52    2
    54    51    50    1
    55    41    42    1
    56    83    81   ar
    57    50    49    1
    58    71    72    1
    59    71    70    1
    60    60    59    2
    61    59    61   am
    62    73    72    2
    63    72    75   am
    64    80    81    1
    65    80    79    1
    66    42    43    1
    67    42    45    1
    68    85    84    1
    69    85    86    1
    70    75    76    1
    71    81    82   ar
    72    76    79    1
    73    76    77    1
    74    43    44    2
    75    61    62    1
    76    45    46    1
    77    87    86    2
    78    47    46    2
    79    46    48   am
    80    77    78    2
    81    62    63    1
    82    62    65    1
    83    63    64    2
    84    66    65    1
    85    66    67    1
    86    69    67   ar
    87    67    68   ar
