@<TRIPOS>MOLECULE
tmp/6ienC03.pdb
 118 109 0 0 0
SMALL
GASTEIGER

@<TRIPOS>ATOM
      1  N         35.0040   42.6590   42.1960 N.3    11  SER11      -0.1217
      2  CA        34.1010   43.8230   42.2300 C.3    11  SER11       0.1889
      3  C         33.4680   44.0960   43.6030 C.2    11  SER11       0.2288
      4  O         32.8200   45.1430   43.8030 O.2    11  SER11      -0.2866
      5  CB        32.9880   43.6190   41.2100 C.3    11  SER11       0.2089
      6  OG        33.4380   42.8400   40.1080 O.3    11  SER11      -0.2183
      7  N         30.6530   46.8740   44.5200 N.3    15  ASP15      -0.1239
      8  CA        29.3270   46.4510   44.0440 C.3    15  ASP15       0.1674
      9  C         28.4990   45.7420   45.0990 C.2    15  ASP15       0.2266
     10  O         27.3940   45.2800   44.8120 O.2    15  ASP15      -0.2867
     11  CB        29.4150   45.6310   42.7340 C.3    15  ASP15       0.1410
     12  CG        29.7910   44.1310   42.9330 C.2    15  ASP15       0.3668
     13  OD1       30.0210   43.6630   44.0820 O.co2  15  ASP15      -0.2456
     14  OD2       29.8560   43.4250   41.8860 O.co2  15  ASP15      -0.2456
     15  N         32.3050   38.7130   42.7010 N.3    71  ASP71      -0.1239
     16  CA        31.3330   39.7980   42.7850 C.3    71  ASP71       0.1674
     17  C         30.1390   39.4810   43.6870 C.2    71  ASP71       0.2266
     18  O         29.9800   38.3740   44.1840 O.2    71  ASP71      -0.2867
     19  CB        30.8510   40.1820   41.3730 C.3    71  ASP71       0.1410
     20  CG        30.2010   39.0280   40.6330 C.2    71  ASP71       0.3668
     21  OD1       29.5390   38.1970   41.2710 O.co2  71  ASP71      -0.2456
     22  OD2       30.3370   38.9580   39.3970 O.co2  71  ASP71      -0.2456
     23  N         27.2080   39.0280   42.9320 N.3    73  HIS73      -0.1241
     24  CA        26.3570   37.9780   42.3580 C.3    73  HIS73       0.1621
     25  C         26.8230   36.5990   42.8240 C.2    73  HIS73       0.2264
     26  O         26.0280   35.8240   43.3510 O.2    73  HIS73      -0.2867
     27  CB        26.3250   38.0560   40.8220 C.3    73  HIS73       0.0745
     28  CG        26.1610   39.4520   40.2930 C.ar   73  HIS73       0.0817
     29  ND1       25.0290   40.2100   40.5220 N.ar   73  HIS73      -0.2268
     30  CD2       26.9960   40.2340   39.5690 C.ar   73  HIS73       0.1154
     31  CE1       25.1730   41.3960   39.9570 C.ar   73  HIS73       0.1986
     32  NE2       26.3570   41.4350   39.3710 N.ar   73  HIS73      -0.2212
     33  N         24.3700   37.5540   34.4190 N.3    98  ARG98      -0.1231
     34  CA        24.9340   38.6400   35.1950 C.3    98  ARG98       0.1694
     35  C         24.6890   39.9520   34.4300 C.2    98  ARG98       0.2592
     36  O         24.4700   41.0040   35.0410 O.2    98  ARG98      -0.2718
     37  CB        26.4180   38.4070   35.4580 C.3    98  ARG98       0.0321
     38  CG        26.7000   37.3380   36.5170 C.3    98  ARG98       0.0489
     39  CD        28.1670   37.3200   36.9320 C.3    98  ARG98       0.2205
     40  NE        29.0600   36.9530   35.8270 N.pl3  98  ARG98      -0.0865
     41  CZ        30.3810   36.7990   35.9210 C.cat  98  ARG98       0.5346
     42  NH1       31.0120   36.9790   37.0760 N.pl3  98  ARG98       0.1354
     43  NH2       31.0800   36.4610   34.8430 N.pl3  98  ARG98       0.1354
     44  N         24.6760   39.8700   33.0960 N.am   99  ASN99      -0.1974
     45  CA        24.4320   41.0360   32.2410 C.3    99  ASN99       0.1688
     46  C         23.1130   41.8040   32.5400 C.2    99  ASN99       0.2292
     47  O         23.1500   42.9850   32.8850 O.2    99  ASN99      -0.2864
     48  CB        24.4960   40.6360   30.7610 C.3    99  ASN99       0.1181
     49  CG        25.8910   40.2160   30.3110 C.2    99  ASN99       0.2629
     50  OD1       26.8750   40.4860   30.9820 O.2    99  ASN99      -0.2716
     51  ND2       25.9750   39.5560   29.1570 N.am   99  ASN99      -0.0877
     52  N         22.7980   43.0750   36.4720 N.3   102  VAL102     -0.1245
     53  CA        23.6070   44.2610   36.8590 C.3   102  VAL102      0.1561
     54  C         23.0470   45.5390   36.2620 C.2   102  VAL102      0.2260
     55  O         23.0080   46.5670   36.9270 O.2   102  VAL102     -0.2867
     56  CB        25.1190   44.1130   36.5190 C.3   102  VAL102      0.0252
     57  CG1       25.3740   44.1360   35.0220 C.3   102  VAL102      0.0019
     58  CG2       25.9400   45.1950   37.2030 C.3   102  VAL102      0.0019
     59  N         24.4220   52.2370   28.1920 N.3   221  ARG221     -0.1245
     60  CA        24.7390   52.8250   29.5030 C.3   221  ARG221      0.1563
     61  C         24.5570   54.3340   29.5170 C.2   221  ARG221      0.2260
     62  O         24.9950   55.0310   30.4340 O.2   221  ARG221     -0.2867
     63  CB        26.1660   52.4570   29.8980 C.3   221  ARG221      0.0307
     64  CG        26.3670   50.9760   30.2350 C.3   221  ARG221      0.0489
     65  CD        25.5800   50.5870   31.4750 C.3   221  ARG221      0.2205
     66  NE        25.8710   49.2600   32.0170 N.pl3 221  ARG221     -0.0865
     67  CZ        25.3340   48.1110   31.6020 C.cat 221  ARG221      0.5346
     68  NH1       24.4940   48.0640   30.5770 N.pl3 221  ARG221      0.1354
     69  NH2       25.6660   46.9770   32.2110 N.pl3 221  ARG221      0.1354
     70  N         26.9410   43.4650   25.3700 N.3   306  TYR306     -0.1241
     71  CA        27.7450   43.6190   26.5970 C.3   306  TYR306      0.1605
     72  C         29.2650   43.3990   26.4060 C.2   306  TYR306      0.2264
     73  O         29.7070   42.4900   25.7110 O.2   306  TYR306     -0.2867
     74  CB        27.2460   42.6970   27.7270 C.3   306  TYR306      0.0534
     75  CG        28.0810   42.7870   29.0210 C.ar  306  TYR306     -0.0201
     76  CD1       27.8000   43.7500   29.9930 C.ar  306  TYR306     -0.0009
     77  CD2       29.1400   41.9260   29.2490 C.ar  306  TYR306     -0.0009
     78  CE1       28.5480   43.8370   31.1490 C.ar  306  TYR306      0.0417
     79  CE2       29.8960   42.0040   30.3970 C.ar  306  TYR306      0.0417
     80  CZ        29.6020   42.9560   31.3490 C.ar  306  TYR306      0.1957
     81  OH        30.3680   43.0400   32.5040 O.3   306  TYR306     -0.2866
     82  N         32.9790   43.7540   29.0450 N.3   308  ARG308     -0.1245
     83  CA        33.4080   43.9270   30.4480 C.3   308  ARG308      0.1563
     84  C         33.6740   45.3800   30.8230 C.2   308  ARG308      0.2260
     85  O         33.4930   45.7650   31.9700 O.2   308  ARG308     -0.2867
     86  CB        34.6400   43.0740   30.7830 C.3   308  ARG308      0.0307
     87  CG        34.8820   42.8850   32.2870 C.3   308  ARG308      0.0489
     88  CD        33.7600   42.0780   32.9440 C.3   308  ARG308      0.2205
     89  NE        33.7830   42.0550   34.4150 N.pl3 308  ARG308     -0.0865
     90  CZ        34.6050   41.3210   35.1520 C.cat 308  ARG308      0.5346
     91  NH1       35.5240   40.5670   34.5770 N.pl3 308  ARG308      0.1354
     92  NH2       34.5310   41.3670   36.4700 N.pl3 308  ARG308      0.1354
     93  N         31.9130   47.7300   30.5400 N.3   310  LEU310     -0.1231
     94  CA        30.7060   48.3410   31.0800 C.3   310  LEU310      0.1693
     95  C         30.6010   48.2020   32.6030 C.2   310  LEU310      0.2591
     96  O         29.7650   48.8500   33.2380 O.2   310  LEU310     -0.2718
     97  CB        29.4570   47.7850   30.3570 C.3   310  LEU310      0.0284
     98  CG        29.3700   48.0420   28.8280 C.3   310  LEU310      0.0019
     99  CD1       28.0810   47.4930   28.2340 C.3   310  LEU310      0.0001
    100  CD2       29.5160   49.5100   28.4460 C.3   310  LEU310      0.0001
    101  N         31.4610   47.3710   33.1840 N.am  311  GLN311     -0.1979
    102  CA        31.6040   47.3110   34.6340 C.3   311  GLN311      0.1601
    103  C         32.0270   48.6530   35.2120 C.2   311  GLN311      0.2287
    104  O         31.6520   48.9830   36.3220 O.2   311  GLN311     -0.2864
    105  CB        32.6220   46.2370   35.0200 C.3   311  GLN311      0.0394
    106  CG        32.9690   46.2060   36.4950 C.3   311  GLN311      0.0908
    107  CD        33.8020   44.9990   36.8570 C.2   311  GLN311      0.2608
    108  OE1       33.4290   43.8760   36.5400 O.2   311  GLN311     -0.2717
    109  NE2       34.9270   45.2190   37.5420 N.am  311  GLN311     -0.0878
    110  N         29.8370   51.9310   37.1370 N.3   314  LYS314     -0.1245
    111  CA        29.3110   52.1050   38.4880 C.3   314  LYS314      0.1561
    112  C         30.1840   52.9830   39.3720 C.2   314  LYS314      0.2260
    113  O         29.6980   53.9410   39.9900 O.2   314  LYS314     -0.2867
    114  CB        29.0700   50.7460   39.1340 C.3   314  LYS314      0.0271
    115  CG        27.7400   50.1540   38.7180 C.3   314  LYS314      0.0035
    116  CD        27.5480   48.7120   39.1960 C.3   314  LYS314      0.0206
    117  CE        28.5920   47.7570   38.6560 C.3   314  LYS314      0.1093
    118  NZ        28.7850   47.9370   37.1940 N.3   314  LYS314     -0.1314
@<TRIPOS>BOND
     1    70    71    1
     2    73    72    2
     3    72    71    1
     4    71    74    1
     5    74    75    1
     6    59    60    1
     7    99    98    1
     8   100    98    1
     9    98    97    1
    10    75    77   ar
    11    75    76   ar
    12    82    83    1
    13    51    49   am
    14    77    79   ar
    15    60    61    1
    16    60    63    1
    17    61    62    2
    18    63    64    1
    19    76    78   ar
    20    64    65    1
    21    49    48    1
    22    49    50    2
    23    97    94    1
    24    79    80   ar
    25    83    86    1
    26    83    84    1
    27    93    94    1
    28    68    67    1
    29    48    45    1
    30    86    87    1
    31    84    85    2
    32    94    95    1
    33    78    80   ar
    34    80    81    1
    35    65    66    1
    36    67    66    2
    37    67    69    1
    38    45    46    1
    39    45    44    1
    40    87    88    1
    41    46    47    2
    42    95   101   am
    43    95    96    2
    44    88    89    1
    45    44    35   am
    46   101   102    1
    47    89    90    2
    48    33    34    1
    49    35    36    2
    50    35    34    1
    51    91    90    1
    52   102   105    1
    53   102   103    1
    54    43    41    1
    55   105   106    1
    56    57    56    1
    57    90    92    1
    58    34    37    1
    59   103   104    2
    60    37    38    1
    61    40    41    2
    62    40    39    1
    63    41    42    1
    64    54    53    1
    65    54    55    2
    66    52    53    1
    67   106   107    1
    68    38    39    1
    69    56    53    1
    70    56    58    1
    71   108   107    2
    72   107   109   am
    73   110   111    1
    74   118   117    1
    75   111   114    1
    76   111   112    1
    77   117   116    1
    78   115   114    1
    79   115   116    1
    80    32    30   ar
    81    32    31   ar
    82   112   113    2
    83    22    20   ar
    84    30    28   ar
    85    31    29   ar
    86     6     5    1
    87    28    29   ar
    88    28    27    1
    89    20    21   ar
    90    20    19    1
    91    27    24    1
    92     5     2    1
    93    19    16    1
    94    14    12   ar
    95     1     2    1
    96     2     3    1
    97    24    25    1
    98    24    23    1
    99    15    16    1
   100    11    12    1
   101    11     8    1
   102    16    17    1
   103    25    26    2
   104    12    13   ar
   105     3     4    2
   106    17    18    2
   107     8     7    1
   108     8     9    1
   109    10     9    2
