@<TRIPOS>MOLECULE
tmp/6ienD01.pdb
 149 140 0 0 0
SMALL
GASTEIGER

@<TRIPOS>ATOM
      1  N         35.1800   88.5880   18.8900 N.3    11  SER11      -0.1217
      2  CA        34.4320   87.3390   18.6970 C.3    11  SER11       0.1889
      3  C         33.5910   87.2920   17.4130 C.2    11  SER11       0.2288
      4  O         32.8560   86.3350   17.1900 O.2    11  SER11      -0.2866
      5  CB        33.5320   87.0820   19.9160 C.3    11  SER11       0.2089
      6  OG        32.7220   88.1960   20.2390 O.3    11  SER11      -0.2183
      7  N         33.2760   84.0250   15.0470 N.3    14  PHE14      -0.1227
      8  CA        32.3670   82.8960   15.3150 C.3    14  PHE14       0.1736
      9  C         30.9000   83.2800   15.6600 C.2    14  PHE14       0.2595
     10  O         29.9770   82.4960   15.4070 O.2    14  PHE14      -0.2718
     11  CB        32.9680   81.9920   16.4210 C.3    14  PHE14       0.0547
     12  CG        32.9860   82.6070   17.8060 C.ar   14  PHE14      -0.0202
     13  CD1       31.8980   82.4610   18.6680 C.ar   14  PHE14      -0.0042
     14  CD2       34.0940   83.3050   18.2550 C.ar   14  PHE14      -0.0042
     15  CE1       31.9100   83.0250   19.9430 C.ar   14  PHE14      -0.0003
     16  CE2       34.1170   83.8680   19.5260 C.ar   14  PHE14      -0.0003
     17  CZ        33.0280   83.7250   20.3760 C.ar   14  PHE14      -0.0000
     18  N         30.6730   84.4610   16.2460 N.am   15  ASP15      -0.1974
     19  CA        29.3110   84.8370   16.7200 C.3    15  ASP15       0.1709
     20  C         28.4430   85.4630   15.6210 C.2    15  ASP15       0.2293
     21  O         27.2300   85.6330   15.7990 O.2    15  ASP15      -0.2864
     22  CB        29.3390   85.7210   18.0070 C.3    15  ASP15       0.1436
     23  CG        29.8770   87.1230   17.7640 C.2    15  ASP15       0.3671
     24  OD1       30.1770   87.4370   16.5970 O.co2  15  ASP15      -0.2456
     25  OD2       29.9970   87.9110   18.7320 O.co2  15  ASP15      -0.2456
     26  N         34.2310   94.5880   17.6380 N.3    70  GLU70      -0.1231
     27  CA        34.5090   93.6330   18.7240 C.3    70  GLU70       0.1699
     28  C         33.6090   92.3880   18.6860 C.2    70  GLU70       0.2592
     29  O         34.0950   91.2750   18.8910 O.2    70  GLU70      -0.2718
     30  CB        34.3990   94.2900   20.1030 C.3    70  GLU70       0.0402
     31  CG        34.8600   93.4200   21.2380 C.3    70  GLU70       0.1161
     32  CD        34.2050   93.8120   22.5530 C.2    70  GLU70       0.3649
     33  OE1       34.0580   95.0440   22.8200 O.co2  70  GLU70      -0.2457
     34  OE2       33.8270   92.8890   23.3190 O.co2  70  GLU70      -0.2457
     35  N         32.3120   92.5790   18.4390 N.am   71  ASP71      -0.1974
     36  CA        31.3640   91.4550   18.3720 C.3    71  ASP71       0.1709
     37  C         30.2480   91.6790   17.3360 C.2    71  ASP71       0.2293
     38  O         30.2130   92.7080   16.6780 O.2    71  ASP71      -0.2864
     39  CB        30.7820   91.1470   19.7720 C.3    71  ASP71       0.1436
     40  CG        30.2110   92.3880   20.4820 C.2    71  ASP71       0.3671
     41  OD1       29.8520   93.3820   19.8030 O.co2  71  ASP71      -0.2456
     42  OD2       30.1100   92.3520   21.7370 O.co2  71  ASP71      -0.2456
     43  N         27.1710   92.3220   17.9560 N.3    73  HIS73      -0.1241
     44  CA        26.2940   93.3740   18.4780 C.3    73  HIS73       0.1621
     45  C         26.8020   94.7680   18.0980 C.2    73  HIS73       0.2264
     46  O         26.0410   95.6200   17.6430 O.2    73  HIS73      -0.2867
     47  CB        26.2050   93.2800   20.0100 C.3    73  HIS73       0.0745
     48  CG        25.9880   91.8930   20.5220 C.ar   73  HIS73       0.0817
     49  ND1       26.9970   91.1480   21.0940 N.ar   73  HIS73      -0.2268
     50  CD2       24.8830   91.1130   20.5400 C.ar   73  HIS73       0.1154
     51  CE1       26.5220   89.9660   21.4430 C.ar   73  HIS73       0.1986
     52  NE2       25.2410   89.9210   21.1190 N.ar   73  HIS73      -0.2212
     53  N         21.1210   94.9490   27.6270 N.3    97  SER97      -0.1202
     54  CA        22.5460   94.7210   27.7740 C.3    97  SER97       0.2020
     55  C         22.9980   93.6730   26.7860 C.2    97  SER97       0.2619
     56  O         22.1840   92.9700   26.1790 O.2    97  SER97      -0.2717
     57  CB        22.8480   94.2290   29.1870 C.3    97  SER97       0.2103
     58  OG        24.2410   94.1240   29.3990 O.3    97  SER97      -0.2182
     59  N         24.3120   93.5820   26.6250 N.am   98  ARG98      -0.1965
     60  CA        24.8910   92.4590   25.9050 C.3    98  ARG98       0.1729
     61  C         24.6510   91.1840   26.6850 C.2    98  ARG98       0.2616
     62  O         24.6420   90.1140   26.1130 O.2    98  ARG98      -0.2715
     63  CB        26.3800   92.6700   25.6330 C.3    98  ARG98       0.0348
     64  CG        26.6090   93.5590   24.4150 C.3    98  ARG98       0.0492
     65  CD        28.0710   93.7890   24.0530 C.3    98  ARG98       0.2205
     66  NE        28.8990   94.3240   25.1440 N.pl3  98  ARG98      -0.0865
     67  CZ        30.1860   94.6500   25.0150 C.cat  98  ARG98       0.5346
     68  NH1       30.7950   94.5100   23.8410 N.pl3  98  ARG98       0.1354
     69  NH2       30.8790   95.1020   26.0570 N.pl3  98  ARG98       0.1354
     70  N         24.4300   91.3080   27.9890 N.am   99  ASN99      -0.1972
     71  CA        24.2970   90.1480   28.8580 C.3    99  ASN99       0.1688
     72  C         22.9930   89.4160   28.6120 C.2    99  ASN99       0.2292
     73  O         23.0030   88.2310   28.2610 O.2    99  ASN99      -0.2864
     74  CB        24.4260   90.5530   30.3310 C.3    99  ASN99       0.1181
     75  CG        25.8210   91.0670   30.6760 C.2    99  ASN99       0.2629
     76  OD1       26.7740   90.8460   29.9370 O.2    99  ASN99      -0.2716
     77  ND2       25.9430   91.7350   31.8100 N.am   99  ASN99      -0.0877
     78  N         22.8830   88.4540   24.5930 N.3   102  VAL102     -0.1245
     79  CA        23.6800   87.3650   24.1050 C.3   102  VAL102      0.1561
     80  C         23.1390   86.0460   24.6470 C.2   102  VAL102      0.2260
     81  O         23.1190   85.0330   23.9400 O.2   102  VAL102     -0.2867
     82  CB        25.1610   87.5490   24.4600 C.3   102  VAL102      0.0252
     83  CG1       25.4010   87.3360   25.9530 C.3   102  VAL102      0.0019
     84  CG2       26.0110   86.5970   23.6280 C.3   102  VAL102      0.0019
     85  N         21.5670   94.1990   32.2740 N.3   188  ALA188     -0.1245
     86  CA        22.8510   93.8120   32.8700 C.3   188  ALA188      0.1562
     87  C         22.7560   92.5970   33.8260 C.2   188  ALA188      0.2260
     88  O         23.5390   91.6380   33.7100 O.2   188  ALA188     -0.2867
     89  CB        23.4270   95.0060   33.6190 C.3   188  ALA188      0.0290
     90  N         24.4930   79.2190   32.6730 N.3   221  ARG221     -0.1245
     91  CA        24.7620   78.5590   31.3710 C.3   221  ARG221      0.1563
     92  C         24.5270   77.0340   31.3690 C.2   221  ARG221      0.2260
     93  O         25.0100   76.3150   30.4900 O.2   221  ARG221     -0.2867
     94  CB        26.1750   78.8890   30.8890 C.3   221  ARG221      0.0307
     95  CG        26.3400   80.3410   30.4980 C.3   221  ARG221      0.0489
     96  CD        25.5720   80.6680   29.2240 C.3   221  ARG221      0.2205
     97  NE        25.9000   82.0050   28.7360 N.pl3 221  ARG221     -0.0865
     98  CZ        25.3900   83.1250   29.2250 C.cat 221  ARG221      0.5346
     99  NH1       24.5180   83.0820   30.2210 N.pl3 221  ARG221      0.1354
    100  NH2       25.7640   84.2870   28.7210 N.pl3 221  ARG221      0.1354
    101  N         27.2010   87.9340   35.6040 N.3   306  TYR306     -0.1241
    102  CA        27.8370   87.6650   34.3290 C.3   306  TYR306      0.1605
    103  C         29.3180   87.8470   34.5020 C.2   306  TYR306      0.2264
    104  O         29.7420   88.7330   35.2080 O.2   306  TYR306     -0.2867
    105  CB        27.2990   88.5750   33.2130 C.3   306  TYR306      0.0534
    106  CG        28.0610   88.3950   31.9180 C.ar  306  TYR306     -0.0201
    107  CD1       29.2770   89.0530   31.7090 C.ar  306  TYR306     -0.0009
    108  CD2       27.6070   87.5410   30.9110 C.ar  306  TYR306     -0.0009
    109  CE1       30.0100   88.8650   30.5410 C.ar  306  TYR306      0.0417
    110  CE2       28.3400   87.3540   29.7340 C.ar  306  TYR306      0.0417
    111  CZ        29.5450   88.0180   29.5620 C.ar  306  TYR306      0.1957
    112  OH        30.3040   87.8900   28.4130 O.3   306  TYR306     -0.2866
    113  N         32.9870   87.6520   31.8090 N.3   308  ARG308     -0.1245
    114  CA        33.4520   87.4780   30.4450 C.3   308  ARG308      0.1563
    115  C         33.6880   85.9830   30.0940 C.2   308  ARG308      0.2260
    116  O         33.5150   85.5650   28.9230 O.2   308  ARG308     -0.2867
    117  CB        34.6850   88.3420   30.1790 C.3   308  ARG308      0.0307
    118  CG        34.9920   88.5610   28.7090 C.3   308  ARG308      0.0489
    119  CD        33.8300   89.1730   27.9470 C.3   308  ARG308      0.2205
    120  NE        34.0030   88.9870   26.5030 N.pl3 308  ARG308     -0.0865
    121  CZ        34.7300   89.7730   25.7090 C.cat 308  ARG308      0.5346
    122  NH1       35.3660   90.8440   26.1830 N.pl3 308  ARG308      0.1354
    123  NH2       34.8150   89.4900   24.4220 N.pl3 308  ARG308      0.1354
    124  N         31.8740   83.5040   30.3810 N.3   310  LEU310     -0.1231
    125  CA        30.6900   82.8750   29.8090 C.3   310  LEU310      0.1693
    126  C         30.5480   83.1390   28.3080 C.2   310  LEU310      0.2591
    127  O         29.5800   82.7050   27.6820 O.2   310  LEU310     -0.2718
    128  CB        29.4250   83.3310   30.5590 C.3   310  LEU310      0.0284
    129  CG        29.4760   83.2600   32.0920 C.3   310  LEU310      0.0019
    130  CD1       28.1910   83.8220   32.6850 C.3   310  LEU310      0.0001
    131  CD2       29.7480   81.8550   32.6020 C.3   310  LEU310      0.0001
    132  N         31.4900   83.8760   27.7340 N.am  311  GLN311     -0.1979
    133  CA        31.6630   83.8640   26.2790 C.3   311  GLN311      0.1601
    134  C         32.1390   82.5070   25.6920 C.2   311  GLN311      0.2287
    135  O         31.8810   82.2040   24.5340 O.2   311  GLN311     -0.2864
    136  CB        32.6390   84.9470   25.8820 C.3   311  GLN311      0.0394
    137  CG        32.7580   85.1360   24.3880 C.3   311  GLN311      0.0908
    138  CD        33.3810   86.4670   24.0580 C.2   311  GLN311      0.2608
    139  OE1       32.8190   87.5360   24.3640 O.2   311  GLN311     -0.2717
    140  NE2       34.5760   86.4210   23.4650 N.am  311  GLN311     -0.0878
    141  N         29.8330   79.3950   23.8990 N.3   314  LYS314     -0.1245
    142  CA        29.3910   79.3180   22.4970 C.3   314  LYS314      0.1561
    143  C         30.1980   78.3800   21.6250 C.2   314  LYS314      0.2260
    144  O         29.6770   77.3880   21.1440 O.2   314  LYS314     -0.2867
    145  CB        29.3130   80.7110   21.8790 C.3   314  LYS314      0.0271
    146  CG        27.8970   81.2550   21.9250 C.3   314  LYS314      0.0035
    147  CD        27.8700   82.7500   21.7490 C.3   314  LYS314      0.0206
    148  CE        27.6070   83.4660   23.0620 C.3   314  LYS314      0.1093
    149  NZ        28.8410   83.6550   23.8710 N.3   314  LYS314     -0.1314
@<TRIPOS>BOND
     1     7     8    1
     2     8     9    1
     3     8    11    1
     4    10     9    2
     5    20    21    2
     6    20    19    1
     7     9    18   am
     8    18    19    1
     9    11    12    1
    10    24    23   ar
    11    38    37    2
    12    19    22    1
    13     4     3    2
    14    37    36    1
    15     3     2    1
    16    26    27    1
    17    46    45    2
    18    23    22    1
    19    23    25   ar
    20    12    14   ar
    21    12    13   ar
    22    43    44    1
    23    45    44    1
    24    14    16   ar
    25    36    35    1
    26    36    39    1
    27    35    28   am
    28    44    47    1
    29    13    15   ar
    30    28    27    1
    31    28    29    2
    32     2     1    1
    33     2     5    1
    34    27    30    1
    35    16    17   ar
    36    39    40    1
    37    41    40   ar
    38     5     6    1
    39    15    17   ar
    40    47    48    1
    41    30    31    1
    42    40    42   ar
    43    48    50   ar
    44    48    49   ar
    45    50    52   ar
    46    49    51   ar
    47    52    51   ar
    48   144   143    2
    49    31    32    1
    50   143   142    1
    51   147   146    1
    52   147   148    1
    53   145   146    1
    54   145   142    1
    55   142   141    1
    56    32    33   ar
    57    32    34   ar
    58   148   149    1
    59   140   138   am
    60    84    82    1
    61    68    67    1
    62    81    80    2
    63    65    64    1
    64    65    66    1
    65   138   139    2
    66   138   137    1
    67    79    82    1
    68    79    78    1
    69    79    80    1
    70   137   136    1
    71    64    63    1
    72   123   121    1
    73    82    83    1
    74   135   134    2
    75    67    66    2
    76    67    69    1
    77    63    60    1
    78   134   133    1
    79   121   122    1
    80   121   120    2
    81   136   133    1
    82    60    59    1
    83    60    61    1
    84    62    61    2
    85    56    55    2
    86   133   132    1
    87   120   119    1
    88    59    55   am
    89    61    70   am
    90    55    54    1
    91    53    54    1
    92   127   126    2
    93   132   126   am
    94    54    57    1
    95   119   118    1
    96    70    71    1
    97    73    72    2
    98   126   125    1
    99   112   111    1
   100    72    71    1
   101   118   117    1
   102   100    98    1
   103    97    96    1
   104    97    98    2
   105    71    74    1
   106   116   115    2
   107    57    58    1
   108    96    95    1
   109    98    99    1
   110   111   110   ar
   111   111   109   ar
   112   110   108   ar
   113   125   124    1
   114   125   128    1
   115    76    75    2
   116   115   114    1
   117   117   114    1
   118    74    75    1
   119   114   113    1
   120    93    92    2
   121    95    94    1
   122   109   107   ar
   123   128   129    1
   124    75    77   am
   125    94    91    1
   126   108   106   ar
   127    92    91    1
   128    91    90    1
   129   107   106   ar
   130   106   105    1
   131   129   131    1
   132   129   130    1
   133    85    86    1
   134    86    89    1
   135    86    87    1
   136   105   102    1
   137    88    87    2
   138   102   103    1
   139   102   101    1
   140   103   104    2
