@<TRIPOS>MOLECULE
tmp/6ieoA00.pdb
 85 79 0 0 0
SMALL
GASTEIGER

@<TRIPOS>ATOM
      1  N         23.9730   56.6570   19.9470 N.3    27  MET27      -0.1230
      2  CA        22.6810   56.4800   20.6220 C.3    27  MET27       0.1702
      3  C         22.9020   56.3070   22.1230 C.2    27  MET27       0.2592
      4  O         23.9890   56.0190   22.5700 O.2    27  MET27      -0.2718
      5  CB        21.8920   55.2850   20.0860 C.3    27  MET27       0.0401
      6  CG        22.6020   53.9640   20.1860 C.3    27  MET27       0.0596
      7  SD        23.5410   53.5350   18.6800 S.3    27  MET27      -0.1393
      8  CE        22.3350   53.7910   17.3760 C.3    27  MET27       0.0692
      9  N         21.8280   56.5090   22.8780 N.am   28  GLN28      -0.1966
     10  CA        21.9320   56.7200   24.3030 C.3    28  GLN28       0.1733
     11  C         20.6720   56.1580   24.9750 C.2    28  GLN28       0.2616
     12  O         19.5830   56.3220   24.4690 O.2    28  GLN28      -0.2715
     13  CB        22.1480   58.2150   24.5470 C.3    28  GLN28       0.0408
     14  CG        22.6930   58.5400   25.9310 C.3    28  GLN28       0.0908
     15  CD        23.0300   60.0050   26.1060 C.2    28  GLN28       0.2608
     16  OE1       22.1740   60.8100   26.4450 O.2    28  GLN28      -0.2717
     17  NE2       24.2940   60.3580   25.9260 N.am   28  GLN28      -0.0878
     18  N         20.8210   55.4490   26.0830 N.am   29  GLY29      -0.1955
     19  CA        19.6570   55.0570   26.8360 C.3    29  GLY29       0.1869
     20  C         19.9980   54.9930   28.3060 C.2    29  GLY29       0.2309
     21  O         21.0790   55.4540   28.7060 O.2    29  GLY29      -0.2863
     22  N         17.2690   47.5010   28.3930 N.3    43  ASN43      -0.1240
     23  CA        16.4350   46.7880   27.4180 C.3    43  ASN43       0.1653
     24  C         17.2970   46.5500   26.1690 C.2    43  ASN43       0.2266
     25  O         18.3510   47.1640   25.9780 O.2    43  ASN43      -0.2867
     26  CB        15.0710   47.4840   27.2620 C.3    43  ASN43       0.1155
     27  CG        15.1530   48.7720   26.4870 C.2    43  ASN43       0.2627
     28  OD1       15.7710   48.7880   25.4290 O.2    43  ASN43      -0.2716
     29  ND2       14.5090   49.8280   26.9730 N.am   43  ASN43      -0.0877
     30  N         16.7020   47.1050   22.9740 N.3    45  HIS45      -0.1226
     31  CA        16.6610   48.2040   21.9930 C.3    45  HIS45       0.1752
     32  C         17.8310   49.1650   22.2250 C.2    45  HIS45       0.2595
     33  O         18.3900   49.7190   21.2870 O.2    45  HIS45      -0.2718
     34  CB        15.3480   49.0200   22.1370 C.3    45  HIS45       0.0759
     35  CG        14.1810   48.3920   21.4740 C.ar   45  HIS45       0.0818
     36  ND1       13.5420   47.2870   22.0020 N.ar   45  HIS45      -0.2268
     37  CD2       13.5470   48.6850   20.3200 C.ar   45  HIS45       0.1154
     38  CE1       12.5610   46.9210   21.1990 C.ar   45  HIS45       0.1986
     39  NE2       12.5410   47.7690   20.1590 N.ar   45  HIS45      -0.2212
     40  N         18.1810   49.3820   23.4950 N.am   46  VAL46      -0.1980
     41  CA        19.1700   50.4120   23.8380 C.3    46  VAL46       0.1595
     42  C         20.5460   50.0350   23.2660 C.2    46  VAL46       0.2287
     43  O         21.3200   50.9200   22.8890 O.2    46  VAL46      -0.2864
     44  CB        19.2240   50.6300   25.3640 C.3    46  VAL46       0.0276
     45  CG1       20.3680   51.5460   25.7850 C.3    46  VAL46       0.0022
     46  CG2       17.8940   51.1680   25.8860 C.3    46  VAL46       0.0022
     47  N         21.8980   48.1760   18.2080 N.3    49  GLU49      -0.1245
     48  CA        22.7120   48.5680   17.0500 C.3    49  GLU49       0.1567
     49  C         24.1860   48.1810   17.3050 C.2    49  GLU49       0.2260
     50  O         24.8530   47.6540   16.4090 O.2    49  GLU49      -0.2867
     51  CB        22.5400   50.0610   16.7490 C.3    49  GLU49       0.0388
     52  CG        21.2850   50.3900   15.9490 C.3    49  GLU49       0.1160
     53  CD        21.6240   51.0300   14.6150 C.2    49  GLU49       0.3649
     54  OE1       22.8360   51.1170   14.3290 O.co2  49  GLU49      -0.2457
     55  OE2       20.6800   51.4230   13.8980 O.co2  49  GLU49      -0.2457
     56  N         14.5380   46.6060   17.1200 N.3   140  GLU140     -0.1245
     57  CA        15.2190   47.8640   16.7450 C.3   140  GLU140      0.1567
     58  C         16.0330   47.6560   15.4680 C.2   140  GLU140      0.2260
     59  O         15.8320   48.3510   14.4720 O.2   140  GLU140     -0.2867
     60  CB        16.1640   48.3700   17.8410 C.3   140  GLU140      0.0388
     61  CG        16.9720   49.6000   17.4430 C.3   140  GLU140      0.1160
     62  CD        16.1920   50.6770   16.6990 C.2   140  GLU140      0.3649
     63  OE1       16.5240   50.9630   15.5230 O.co2 140  GLU140     -0.2457
     64  OE2       15.2380   51.2180   17.2910 O.co2 140  GLU140     -0.2457
     65  N         12.1270   58.2290   25.4780 N.3   159  HIS159     -0.1241
     66  CA        13.5560   58.0900   25.1670 C.3   159  HIS159      0.1621
     67  C         14.4250   58.3330   26.4080 C.2   159  HIS159      0.2264
     68  O         15.4100   57.6610   26.6110 O.2   159  HIS159     -0.2867
     69  CB        13.9500   59.0680   24.0570 C.3   159  HIS159      0.0745
     70  CG        15.2900   58.7550   23.4970 C.ar  159  HIS159      0.0817
     71  ND1       15.4820   57.7020   22.6050 N.ar  159  HIS159     -0.2268
     72  CD2       16.5050   59.3070   23.7150 C.ar  159  HIS159      0.1154
     73  CE1       16.7610   57.6290   22.2940 C.ar  159  HIS159      0.1986
     74  NE2       17.4100   58.6060   22.9590 N.ar  159  HIS159     -0.2212
     75  N         13.7170   55.1430   29.0210 N.3   162  SER162     -0.1217
     76  CA        13.7180   53.7690   28.5810 C.3   162  SER162      0.1889
     77  C         15.0460   53.0900   28.9560 C.2   162  SER162      0.2288
     78  O         16.1190   53.7330   28.9310 O.2   162  SER162     -0.2866
     79  CB        13.4450   53.7190   27.1190 C.3   162  SER162      0.2089
     80  OG        14.1860   54.7220   26.4630 O.3   162  SER162     -0.2183
     81  N         11.2680   50.5140   25.4380 N.3   179  ALA179     -0.1245
     82  CA        11.6020   51.5820   24.4800 C.3   179  ALA179      0.1562
     83  C         10.3000   52.2660   24.0720 C.2   179  ALA179      0.2260
     84  O          9.9540   53.3320   24.6070 O.2   179  ALA179     -0.2867
     85  CB        12.3480   51.0120   23.2540 C.3   179  ALA179      0.0290
@<TRIPOS>BOND
     1    55    53   ar
     2    54    53   ar
     3    59    58    2
     4    53    52    1
     5    58    57    1
     6    63    62   ar
     7    52    51    1
     8    50    49    2
     9    62    64   ar
    10    62    61    1
    11    57    56    1
    12    57    60    1
    13    51    48    1
    14    48    49    1
    15    48    47    1
    16     8     7    1
    17    61    60    1
    18     7     6    1
    19     1     2    1
    20     5     6    1
    21     5     2    1
    22    39    37   ar
    23    39    38   ar
    24    37    35   ar
    25     2     3    1
    26    38    36   ar
    27    33    32    2
    28    35    36   ar
    29    35    34    1
    30    31    34    1
    31    31    32    1
    32    31    30    1
    33     3     4    2
    34     3     9   am
    35    32    40   am
    36    73    71   ar
    37    73    74   ar
    38    71    70   ar
    39     9    10    1
    40    43    42    2
    41    74    72   ar
    42    85    82    1
    43    42    41    1
    44    40    41    1
    45    70    72   ar
    46    70    69    1
    47    41    44    1
    48    69    66    1
    49    83    82    1
    50    83    84    2
    51    10    13    1
    52    10    11    1
    53    12    11    2
    54    82    81    1
    55    13    14    1
    56    11    18   am
    57    66    65    1
    58    66    67    1
    59    44    45    1
    60    44    46    1
    61    28    27    2
    62    17    15   am
    63    14    15    1
    64    25    24    2
    65    18    19    1
    66    15    16    2
    67    24    23    1
    68    67    68    2
    69    80    79    1
    70    27    29   am
    71    27    26    1
    72    19    20    1
    73    79    76    1
    74    26    23    1
    75    23    22    1
    76    20    21    2
    77    76    77    1
    78    76    75    1
    79    78    77    2
