@<TRIPOS>MOLECULE
tmp/6ieyB00.pdb
 125 120 0 0 0
SMALL
GASTEIGER

@<TRIPOS>ATOM
      1  N        -62.9590   28.7460   -4.1400 N.3    73  GLY73      -0.1210
      2  CA       -63.1600   29.9110   -4.9850 C.3    73  GLY73       0.1956
      3  C        -62.6250   29.7450   -6.4020 C.2    73  GLY73       0.2612
      4  O        -62.1380   28.6740   -6.7760 O.2    73  GLY73      -0.2717
      5  N        -62.7000   30.8250   -7.1800 N.am   74  GLY74      -0.1942
      6  CA       -62.4740   30.7730   -8.6160 C.3    74  GLY74       0.2014
      7  C        -63.5860   31.4120   -9.4570 C.2    74  GLY74       0.2639
      8  O        -63.7660   31.0960  -10.6440 O.2    74  GLY74      -0.2714
      9  N        -64.3450   32.3120   -8.8480 N.am   75  GLY75      -0.1954
     10  CA       -65.3500   33.0760   -9.5830 C.3    75  GLY75       0.1869
     11  C        -66.4230   32.2300  -10.2450 C.2    75  GLY75       0.2309
     12  O        -66.9340   32.6060  -11.3060 O.2    75  GLY75      -0.2863
     13  N        -63.6000   28.7490  -12.2930 N.3    78  ILE78      -0.1245
     14  CA       -62.3260   28.0580  -12.2500 C.3    78  ILE78       0.1561
     15  C        -62.0840   27.4880  -10.8630 C.2    78  ILE78       0.2260
     16  O        -62.8710   27.6930   -9.9400 O.2    78  ILE78      -0.2867
     17  CB       -61.1420   28.9930  -12.6630 C.3    78  ILE78       0.0252
     18  CG1      -60.8760   30.0590  -11.5990 C.3    78  ILE78       0.0019
     19  CG2      -61.4180   29.6670  -14.0040 C.3    78  ILE78       0.0019
     20  CD1      -59.7400   31.0560  -11.9580 C.3    78  ILE78       0.0001
     21  N        -56.4260   22.9760   -6.5400 N.3    83  THR83      -0.1203
     22  CA       -55.9570   24.3560   -6.3720 C.3    83  THR83       0.1994
     23  C        -56.1530   24.8530   -4.9240 C.2    83  THR83       0.2617
     24  O        -55.4350   25.7410   -4.4600 O.2    83  THR83      -0.2717
     25  CB       -56.6510   25.3470   -7.3550 C.3    83  THR83       0.1784
     26  OG1      -58.0390   25.4690   -7.0410 O.3    83  THR83      -0.2211
     27  CG2      -56.4970   24.8830   -8.8090 C.3    83  THR83       0.0376
     28  N        -57.1220   24.2670   -4.2200 N.am   84  HIS84      -0.1975
     29  CA       -57.4860   24.7080   -2.8690 C.3    84  HIS84       0.1656
     30  C        -57.1760   23.6540   -1.8160 C.2    84  HIS84       0.2291
     31  O        -57.7080   23.7020   -0.7100 O.2    84  HIS84      -0.2864
     32  CB       -58.9740   25.0760   -2.8150 C.3    84  HIS84       0.0771
     33  CG       -59.2590   26.4320   -3.3720 C.ar   84  HIS84       0.0820
     34  ND1      -59.0770   26.7340   -4.7060 N.ar   84  HIS84      -0.2267
     35  CD2      -59.6610   27.5810   -2.7720 C.ar   84  HIS84       0.1154
     36  CE1      -59.3820   28.0050   -4.9090 C.ar   84  HIS84       0.1986
     37  NE2      -59.7460   28.5400   -3.7550 N.ar   84  HIS84      -0.2212
     38  N        -63.9670   30.4430    0.0940 N.3   145  ASP145     -0.1225
     39  CA       -63.2280   31.6540   -0.1680 C.3   145  ASP145      0.1805
     40  C        -63.6940   32.2180   -1.4960 C.2   145  ASP145      0.2597
     41  O        -63.9790   31.4630   -2.4320 O.2   145  ASP145     -0.2718
     42  CB       -61.7330   31.3810   -0.2060 C.3   145  ASP145      0.1424
     43  CG       -61.3730   30.4190   -1.3100 C.2   145  ASP145      0.3668
     44  OD1      -61.8370   29.2760   -1.2320 O.co2 145  ASP145     -0.2456
     45  OD2      -60.6700   30.8060   -2.2660 O.co2 145  ASP145     -0.2456
     46  N        -63.7790   33.5450   -1.5640 N.am  146  ALA146     -0.1979
     47  CA       -64.1960   34.2500   -2.7760 C.3   146  ALA146      0.1597
     48  C        -65.5780   33.7800   -3.2620 C.2   146  ALA146      0.2287
     49  O        -66.5780   33.8850   -2.5230 O.2   146  ALA146     -0.2864
     50  CB       -63.1380   34.0880   -3.8540 C.3   146  ALA146      0.0319
     51  N        -63.1750   36.3880    2.2840 N.3   174  TYR174     -0.1241
     52  CA       -63.3570   37.4310    1.2650 C.3   174  TYR174      0.1605
     53  C        -64.3590   37.0410    0.1960 C.2   174  TYR174      0.2264
     54  O        -63.9820   36.7530   -0.9380 O.2   174  TYR174     -0.2867
     55  CB       -62.0250   37.8210    0.6180 C.3   174  TYR174      0.0534
     56  CG       -60.9880   36.7330    0.5530 C.ar  174  TYR174     -0.0201
     57  CD1      -61.0510   35.7310   -0.4130 C.ar  174  TYR174     -0.0009
     58  CD2      -59.9120   36.7310    1.4300 C.ar  174  TYR174     -0.0009
     59  CE1      -60.0700   34.7350   -0.4800 C.ar  174  TYR174      0.0417
     60  CE2      -58.9340   35.7470    1.3700 C.ar  174  TYR174      0.0417
     61  CZ       -59.0240   34.7470    0.4160 C.ar  174  TYR174      0.1957
     62  OH       -58.0500   33.7800    0.3650 O.3   174  TYR174     -0.2866
     63  N        -53.9450   41.3510   -7.9330 N.3   195  TYR195     -0.1227
     64  CA       -54.4160   40.0070   -8.2740 C.3   195  TYR195      0.1736
     65  C        -55.8230   40.0020   -8.8920 C.2   195  TYR195      0.2595
     66  O        -55.9750   39.6470  -10.0510 O.2   195  TYR195     -0.2718
     67  CB       -54.3660   39.0960   -7.0460 C.3   195  TYR195      0.0548
     68  CG       -54.4680   37.6180   -7.3430 C.ar  195  TYR195     -0.0200
     69  CD1      -53.6760   37.0260   -8.3270 C.ar  195  TYR195     -0.0009
     70  CD2      -55.3390   36.8040   -6.6170 C.ar  195  TYR195     -0.0009
     71  CE1      -53.7580   35.6640   -8.5930 C.ar  195  TYR195      0.0417
     72  CE2      -55.4300   35.4440   -6.8750 C.ar  195  TYR195      0.0417
     73  CZ       -54.6370   34.8800   -7.8620 C.ar  195  TYR195      0.1957
     74  OH       -54.7200   33.5290   -8.1190 O.3   195  TYR195     -0.2866
     75  N        -56.8450   40.4040   -8.1470 N.am  196  LEU196     -0.1980
     76  CA       -58.1960   40.4300   -8.7060 C.3   196  LEU196      0.1596
     77  C        -58.5470   41.8360   -9.2520 C.2   196  LEU196      0.2287
     78  O        -58.2890   42.8620   -8.6020 O.2   196  LEU196     -0.2864
     79  CB       -59.2130   39.9690   -7.6530 C.3   196  LEU196      0.0297
     80  CG       -60.6980   39.9900   -8.0470 C.3   196  LEU196      0.0022
     81  CD1      -60.9950   39.0570   -9.2230 C.3   196  LEU196      0.0001
     82  CD2      -61.6090   39.6810   -6.8700 C.3   196  LEU196      0.0001
     83  N        -62.0110   41.3290  -14.0520 N.3   200  GLY200     -0.1225
     84  CA       -62.0670   39.9130  -13.7430 C.3   200  GLY200      0.1811
     85  C        -63.4210   39.5850  -13.1560 C.2   200  GLY200      0.2280
     86  O        -64.0710   38.6370  -13.5710 O.2   200  GLY200     -0.2866
     87  N        -66.3920   36.9540  -14.4940 N.3   204  PHE204     -0.1241
     88  CA       -66.9090   35.8610  -13.6820 C.3   204  PHE204      0.1605
     89  C        -68.4210   35.9160  -13.5730 C.2   204  PHE204      0.2264
     90  O        -69.1200   34.9240  -13.8130 O.2   204  PHE204     -0.2867
     91  CB       -66.2980   35.9070  -12.2860 C.3   204  PHE204      0.0534
     92  CG       -64.9050   35.3570  -12.2080 C.ar  204  PHE204     -0.0203
     93  CD1      -64.5770   34.1700  -12.8430 C.ar  204  PHE204     -0.0042
     94  CD2      -63.9330   36.0060  -11.4630 C.ar  204  PHE204     -0.0042
     95  CE1      -63.2930   33.6480  -12.7480 C.ar  204  PHE204     -0.0003
     96  CE2      -62.6320   35.4900  -11.3580 C.ar  204  PHE204     -0.0003
     97  CZ       -62.3150   34.3160  -11.9950 C.ar  204  PHE204     -0.0000
     98  N        -56.9050   39.9270   -2.0840 N.3   272  HIS272     -0.1226
     99  CA       -57.7940   38.8300   -2.4300 C.3   272  HIS272      0.1752
    100  C        -56.9850   37.5560   -2.5840 C.2   272  HIS272      0.2596
    101  O        -55.9200   37.5630   -3.1910 O.2   272  HIS272     -0.2718
    102  CB       -58.5540   39.1040   -3.7200 C.3   272  HIS272      0.0759
    103  CG       -59.6720   38.1380   -3.9590 C.ar  272  HIS272      0.0818
    104  ND1      -59.6900   37.2670   -5.0220 N.ar  272  HIS272     -0.2268
    105  CD2      -60.7940   37.8940   -3.2460 C.ar  272  HIS272      0.1154
    106  CE1      -60.7900   36.5330   -4.9670 C.ar  272  HIS272      0.1986
    107  NE2      -61.4730   36.8910   -3.8980 N.ar  272  HIS272     -0.2212
    108  N        -57.4690   36.4800   -1.9790 N.am  273  GLY273     -0.1957
    109  CA       -56.8190   35.1870   -2.0980 C.3   273  GLY273      0.1869
    110  C        -55.7210   34.8740   -1.0980 C.2   273  GLY273      0.2309
    111  O        -55.0630   33.8390   -1.2490 O.2   273  GLY273     -0.2863
    112  N        -54.8870   31.4040    0.7530 N.3   276  SER276     -0.1202
    113  CA       -54.1950   30.3800   -0.0210 C.3   276  SER276      0.2020
    114  C        -52.7040   30.6750   -0.2010 C.2   276  SER276      0.2618
    115  O        -51.9920   29.8930   -0.8200 O.2   276  SER276     -0.2717
    116  CB       -54.8660   30.2330   -1.3910 C.3   276  SER276      0.2103
    117  OG       -56.2500   29.9790   -1.2340 O.3   276  SER276     -0.2182
    118  N        -52.2390   31.8030    0.3320 N.am  277  MET277     -0.1979
    119  CA       -50.8780   32.2470    0.0730 C.3   277  MET277      0.1605
    120  C        -49.9510   32.0650    1.2710 C.2   277  MET277      0.2287
    121  O        -48.8260   32.5630    1.2560 O.2   277  MET277     -0.2864
    122  CB       -50.8860   33.7240   -0.3600 C.3   277  MET277      0.0413
    123  CG       -51.5950   33.9570   -1.6790 C.3   277  MET277      0.0598
    124  SD       -52.0700   35.6830   -1.9730 S.3   277  MET277     -0.1393
    125  CE       -53.1510   35.4910   -3.3990 C.3   277  MET277      0.0692
@<TRIPOS>BOND
     1    87    88    1
     2    83    84    1
     3    19    17    1
     4    90    89    2
     5    84    85    1
     6    88    89    1
     7    88    91    1
     8    86    85    2
     9    93    95   ar
    10    93    92   ar
    11    95    97   ar
    12    17    14    1
    13    17    18    1
    14    13    14    1
    15    91    92    1
    16    14    15    1
    17    92    94   ar
    18    97    96   ar
    19    20    18    1
    20    94    96   ar
    21    12    11    2
    22    15    16    2
    23     8     7    2
    24    11    10    1
    25    66    65    2
    26    10     9    1
    27     7     9   am
    28     7     6    1
    29    77    76    1
    30    77    78    2
    31    81    80    1
    32    65    64    1
    33    65    75   am
    34    27    25    1
    35    76    75    1
    36    76    79    1
    37     6     5    1
    38    71    69   ar
    39    71    73   ar
    40    69    68   ar
    41    64    63    1
    42    64    67    1
    43    74    73    1
    44    80    79    1
    45    80    82    1
    46    73    72   ar
    47    25    26    1
    48    25    22    1
    49    68    67    1
    50    68    70   ar
    51     5     3   am
    52    72    70   ar
    53     4     3    2
    54    21    22    1
    55     3     2    1
    56    22    23    1
    57   104   106   ar
    58   104   103   ar
    59     2     1    1
    60   106   107   ar
    61    23    24    2
    62    23    28   am
    63    36    34   ar
    64    36    37   ar
    65    34    33   ar
    66    28    29    1
    67   103   102    1
    68   103   105   ar
    69   107   105   ar
    70    50    47    1
    71    37    35   ar
    72   102    99    1
    73   125   124    1
    74    33    32    1
    75    33    35   ar
    76    48    47    1
    77    48    49    2
    78   101   100    2
    79    29    32    1
    80    29    30    1
    81    47    46    1
    82   100    99    1
    83   100   108   am
    84    41    40    2
    85    99    98    1
    86    45    43   ar
    87   109   108    1
    88   109   110    1
    89   124   123    1
    90    30    31    2
    91   123   122    1
    92    46    40   am
    93    40    39    1
    94   116   117    1
    95   116   113    1
    96    43    44   ar
    97    43    42    1
    98   111   110    2
    99    54    53    2
   100   115   114    2
   101    59    57   ar
   102    59    61   ar
   103    57    56   ar
   104   122   119    1
   105    42    39    1
   106   114   113    1
   107   114   118   am
   108    39    38    1
   109   113   112    1
   110   119   118    1
   111   119   120    1
   112    53    52    1
   113    62    61    1
   114    61    60   ar
   115    56    55    1
   116    56    58   ar
   117    55    52    1
   118   121   120    2
   119    52    51    1
   120    60    58   ar
