@<TRIPOS>MOLECULE
tmp/6if8B00.pdb
 120 114 0 0 0
SMALL
GASTEIGER

@<TRIPOS>ATOM
      1  N        -18.3680   13.4910   11.8440 N.3    16  MET16      -0.1196
      2  CA       -18.4030   13.5240   13.3170 C.3    16  MET16       0.1786
      3  C        -18.5880   12.1330   13.9420 C.2    16  MET16       0.2306
      4  O        -19.1260   11.2200   13.3280 O.2    16  MET16      -0.2863
      5  CB       -19.5370   14.4460   13.8040 C.2    16  MET16       0.0070
      6  CG       -19.4500   15.9170   13.3590 C.2    16  MET16       0.0282
      7  SD       -20.9340   16.9560   13.7220 S.3    16  MET16      -0.1125
      8  CE       -21.6050   17.1110   12.1580 C.3    16  MET16       0.0742
      9  N        -25.3440   14.2730    8.6830 N.3    83  SER83      -0.1202
     10  CA       -26.4260   15.2250    8.8650 C.3    83  SER83       0.2020
     11  C        -26.3960   16.3480    7.8350 C.2    83  SER83       0.2619
     12  O        -25.3720   16.5740    7.1730 O.2    83  SER83      -0.2717
     13  CB       -26.3510   15.8260   10.2730 C.3    83  SER83       0.2103
     14  OG       -25.1970   16.6480   10.3670 O.3    83  SER83      -0.2182
     15  N        -27.5170   17.0310    7.6710 N.am   84  ALA84      -0.1965
     16  CA       -27.6320   18.1550    6.7360 C.3    84  ALA84       0.1728
     17  C        -28.7440   19.0700    7.1820 C.2    84  ALA84       0.2616
     18  O        -29.5290   18.7160    8.0750 O.2    84  ALA84      -0.2715
     19  CB       -27.9010   17.6650    5.3160 C.3    84  ALA84       0.0334
     20  N        -28.8220   20.2520    6.5880 N.am   85  GLY85      -0.1955
     21  CA       -29.9420   21.1450    6.8490 C.3    85  GLY85       0.1869
     22  C        -30.9060   21.1680    5.6910 C.2    85  GLY85       0.2309
     23  O        -30.4890   21.3420    4.5420 O.2    85  GLY85      -0.2863
     24  N        -19.8560   26.9850    5.6120 N.3   149  GLN149     -0.1231
     25  CA       -20.6270   27.8560    6.4630 C.3   149  GLN149      0.1698
     26  C        -21.7560   27.0450    7.0870 C.2   149  GLN149      0.2592
     27  O        -22.3720   26.2370    6.4130 O.2   149  GLN149     -0.2718
     28  CB       -21.1910   29.0450    5.6700 C.3   149  GLN149      0.0381
     29  CG       -20.1470   29.8340    4.8740 C.3   149  GLN149      0.0905
     30  CD       -19.7920   29.1720    3.5550 C.2   149  GLN149      0.2608
     31  OE1      -20.6460   28.5490    2.9250 O.2   149  GLN149     -0.2717
     32  NE2      -18.5370   29.2940    3.1330 N.am  149  GLN149     -0.0878
     33  N        -22.0390   27.2550    8.3690 N.am  150  PHE150     -0.1962
     34  CA       -23.2720   26.6970    8.9310 C.3   150  PHE150      0.1771
     35  C        -24.4140   27.6500    8.5830 C.2   150  PHE150      0.2619
     36  O        -24.4590   28.8090    8.9980 O.2   150  PHE150     -0.2715
     37  CB       -23.1950   26.4690   10.4370 C.3   150  PHE150      0.0574
     38  CG       -24.4230   25.7880   10.9960 C.ar  150  PHE150     -0.0200
     39  CD1      -24.5440   24.4090   10.9540 C.ar  150  PHE150     -0.0042
     40  CD2      -25.4650   26.5260   11.5200 C.ar  150  PHE150     -0.0042
     41  CE1      -25.6670   23.7640   11.4620 C.ar  150  PHE150     -0.0003
     42  CE2      -26.6210   25.8820   12.0270 C.ar  150  PHE150     -0.0003
     43  CZ       -26.7120   24.4880   11.9850 C.ar  150  PHE150     -0.0000
     44  N        -25.3280   27.1520    7.7700 N.am  151  MET151     -0.1977
     45  CA       -26.2700   28.0280    7.1270 C.3   151  MET151      0.1605
     46  C        -27.5040   28.2260    7.9920 C.2   151  MET151      0.2287
     47  O        -28.2710   27.2910    8.2080 O.2   151  MET151     -0.2864
     48  CB       -26.6220   27.4460    5.7790 C.3   151  MET151      0.0413
     49  CG       -25.3990   27.3680    4.8660 C.3   151  MET151      0.0598
     50  SD       -24.9490   28.9520    4.1340 S.3   151  MET151     -0.1393
     51  CE       -26.4380   29.1870    3.1320 C.3   151  MET151      0.0692
     52  N        -28.3110   21.3070    2.5820 N.3   170  VAL170     -0.1231
     53  CA       -26.9860   21.8700    2.6380 C.3   170  VAL170      0.1692
     54  C        -26.1490   21.1550    3.6940 C.2   170  VAL170      0.2592
     55  O        -26.6560   20.6920    4.7130 O.2   170  VAL170     -0.2718
     56  CB       -27.0380   23.3940    2.9340 C.3   170  VAL170      0.0266
     57  CG1      -27.4430   23.6760    4.3580 C.3   170  VAL170      0.0020
     58  CG2      -25.7060   23.9990    2.6970 C.3   170  VAL170      0.0020
     59  N        -24.8690   20.9970    3.4290 N.am  171  GLU171     -0.1966
     60  CA       -24.0130   20.4910    4.4730 C.3   171  GLU171      0.1733
     61  C        -22.5960   20.9590    4.1790 C.2   171  GLU171      0.2616
     62  O        -22.4180   21.9290    3.4330 O.2   171  GLU171     -0.2715
     63  CB       -24.1540   18.9720    4.6150 C.3   171  GLU171      0.0429
     64  CG       -24.2690   18.2190    3.3370 C.3   171  GLU171      0.1163
     65  CD       -22.9850   18.2890    2.5720 C.2   171  GLU171      0.3649
     66  OE1      -22.9050   19.1090    1.6410 O.co2 171  GLU171     -0.2457
     67  OE2      -22.0420   17.5800    2.9290 O.co2 171  GLU171     -0.2457
     68  N        -21.6020   20.3370    4.8090 N.am  172  MET172     -0.1977
     69  CA       -20.2890   20.9360    4.8310 C.3   172  MET172      0.1605
     70  C        -19.1780   20.0390    4.2830 C.2   172  MET172      0.2287
     71  O        -18.0290   20.4520    4.3100 O.2   172  MET172     -0.2864
     72  CB       -19.9730   21.4000    6.2690 C.3   172  MET172      0.0413
     73  CG       -20.8840   22.4930    6.8040 C.3   172  MET172      0.0598
     74  SD       -20.4730   23.1840    8.4560 S.3   172  MET172     -0.1393
     75  CE       -18.8940   23.8630    8.1150 C.3   172  MET172      0.0692
     76  N        -27.6770   11.8470    3.3740 N.3   192  ARG192     -0.1245
     77  CA       -27.7380   12.7020    4.5720 C.3   192  ARG192      0.1563
     78  C        -29.1280   12.6800    5.2040 C.2   192  ARG192      0.2260
     79  O        -30.1300   12.5110    4.5100 O.2   192  ARG192     -0.2867
     80  CB       -27.3780   14.1510    4.2110 C.3   192  ARG192      0.0307
     81  CG       -25.9720   14.3640    3.6540 C.3   192  ARG192      0.0489
     82  CD       -24.9520   14.2870    4.7550 C.3   192  ARG192      0.2205
     83  NE       -23.5980   14.5970    4.3060 N.pl3 192  ARG192     -0.0865
     84  CZ       -22.6780   15.2420    5.0110 C.cat 192  ARG192      0.5346
     85  NH1      -22.9360   15.7030    6.2230 N.pl3 192  ARG192      0.1354
     86  NH2      -21.4770   15.4240    4.4960 N.pl3 192  ARG192      0.1354
     87  N        -30.8670   17.2420   10.2910 N.3   195  SER195     -0.1202
     88  CA       -30.7240   17.5750   11.7110 C.3   195  SER195      0.2020
     89  C        -31.3560   18.9050   12.0530 C.2   195  SER195      0.2618
     90  O        -31.4460   19.2800   13.2290 O.2   195  SER195     -0.2717
     91  CB       -29.2550   17.6330   12.0810 C.3   195  SER195      0.2103
     92  OG       -28.6020   18.5660   11.2330 O.3   195  SER195     -0.2182
     93  N        -31.7400   19.6410   11.0180 N.am  196  ASP196     -0.1973
     94  CA       -32.3190   20.9640   11.1930 C.3   196  ASP196      0.1709
     95  C        -32.8980   21.3770    9.8630 C.2   196  ASP196      0.2293
     96  O        -32.5360   20.8080    8.8140 O.2   196  ASP196     -0.2864
     97  CB       -31.2890   21.9840   11.6940 C.3   196  ASP196      0.1436
     98  CG       -30.0640   22.1080   10.7830 C.2   196  ASP196      0.3671
     99  OD1      -29.2240   21.1870   10.8110 O.co2 196  ASP196     -0.2456
    100  OD2      -29.9100   23.1380   10.0700 O.co2 196  ASP196     -0.2456
    101  N        -32.1270   26.6460   14.1810 N.3   202  GLN202     -0.1245
    102  CA       -31.2590   25.6250   13.6380 C.3   202  GLN202      0.1566
    103  C        -30.1230   25.2320   14.5650 C.2   202  GLN202      0.2260
    104  O        -29.7550   24.0590   14.6070 O.2   202  GLN202     -0.2867
    105  CB       -30.7330   26.0880   12.2900 C.3   202  GLN202      0.0367
    106  CG       -31.8120   25.9870   11.2240 C.3   202  GLN202      0.0905
    107  CD       -31.3820   26.5410    9.9250 C.2   202  GLN202      0.2608
    108  OE1      -31.5210   27.7420    9.6730 O.2   202  GLN202     -0.2717
    109  NE2      -30.8260   25.6770    9.0730 N.am  202  GLN202     -0.0878
    110  N        -29.9460   21.3670   15.5750 N.3   206  PHE206     -0.1241
    111  CA       -28.7370   20.6030   15.2920 C.3   206  PHE206      0.1605
    112  C        -28.1900   19.9490   16.5750 C.2   206  PHE206      0.2264
    113  O        -27.9260   18.7400   16.5940 O.2   206  PHE206     -0.2867
    114  CB       -27.6780   21.5210   14.6680 C.3   206  PHE206      0.0534
    115  CG       -26.3580   20.8290   14.3670 C.ar  206  PHE206     -0.0203
    116  CD1      -25.3650   20.7520   15.3200 C.ar  206  PHE206     -0.0042
    117  CD2      -26.1120   20.2850   13.1220 C.ar  206  PHE206     -0.0042
    118  CE1      -24.1400   20.1290   15.0480 C.ar  206  PHE206     -0.0003
    119  CE2      -24.9030   19.6450   12.8410 C.ar  206  PHE206     -0.0003
    120  CZ       -23.9080   19.5650   13.8180 C.ar  206  PHE206     -0.0000
@<TRIPOS>BOND
     1    66    65   ar
     2    65    67   ar
     3    65    64    1
     4    52    53    1
     5    53    56    1
     6    53    54    1
     7    58    56    1
     8    31    30    2
     9    56    57    1
    10    51    50    1
    11    32    30   am
    12    64    63    1
    13    76    77    1
    14    59    54   am
    15    59    60    1
    16    62    61    2
    17    30    29    1
    18    81    80    1
    19    81    82    1
    20    54    55    2
    21    50    49    1
    22    61    60    1
    23    61    68   am
    24    80    77    1
    25    70    71    2
    26    70    69    1
    27    83    82    1
    28    83    84    2
    29    60    63    1
    30    86    84    1
    31    79    78    2
    32    23    22    2
    33    77    78    1
    34    68    69    1
    35    69    72    1
    36    49    48    1
    37    29    28    1
    38    84    85    1
    39    19    16    1
    40    24    25    1
    41    28    25    1
    42    22    21    1
    43    48    45    1
    44    72    73    1
    45    27    26    2
    46    25    26    1
    47    20    21    1
    48    20    17   am
    49    16    17    1
    50    16    15    1
    51    73    74    1
    52    26    33   am
    53    45    44    1
    54    45    46    1
    55    12    11    2
    56    17    18    2
    57    15    11   am
    58    44    35   am
    59    11    10    1
    60    46    47    2
    61    75    74    1
    62    33    34    1
    63    35    34    1
    64    35    36    2
    65     9    10    1
    66    96    95    2
    67    10    13    1
    68    34    37    1
    69   109   107   am
    70   108   107    2
    71    95    94    1
    72   107   106    1
    73   100    98   ar
    74    13    14    1
    75    87    88    1
    76    37    38    1
    77    98    99   ar
    78    98    97    1
    79    39    38   ar
    80    39    41   ar
    81    38    40   ar
    82    93    94    1
    83    93    89   am
    84    94    97    1
    85   106   105    1
    86    92    91    1
    87    41    43   ar
    88    40    42   ar
    89    88    89    1
    90    88    91    1
    91     1     2    1
    92    43    42   ar
    93    89    90    2
    94     8     7    1
    95   105   102    1
    96   119   117   ar
    97   119   120   ar
    98   117   115   ar
    99     2     5    1
   100     2     3    1
   101     4     3    2
   102     6     7    1
   103     6     5    2
   104   102   101    1
   105   102   103    1
   106   120   118   ar
   107   115   114    1
   108   115   116   ar
   109   103   104    2
   110   114   111    1
   111   118   116   ar
   112   111   110    1
   113   111   112    1
   114   112   113    2
