@<TRIPOS>MOLECULE
tmp/6if8A00.pdb
 111 107 0 0 0
SMALL
GASTEIGER

@<TRIPOS>ATOM
      1  N          0.3890   33.6610   -6.7030 N.3    82  SER82      -0.1202
      2  CA        -0.1130   35.0050   -6.8450 C.3    82  SER82       0.2020
      3  C         -1.2430   35.2710   -5.8510 C.2    82  SER82       0.2619
      4  O         -1.8350   34.3310   -5.3430 O.2    82  SER82      -0.2717
      5  CB        -0.6000   35.2220   -8.2800 C.3    82  SER82       0.2103
      6  OG        -1.7580   34.4290   -8.5270 O.3    82  SER82      -0.2182
      7  N         -1.5310   36.5440   -5.5760 N.am   83  ALA83      -0.1965
      8  CA        -2.6660   36.9220   -4.7010 C.3    83  ALA83       0.1728
      9  C         -3.2720   38.2490   -5.1110 C.2    83  ALA83       0.2616
     10  O         -2.7040   38.9490   -5.9270 O.2    83  ALA83      -0.2715
     11  CB        -2.2280   36.9920   -3.2630 C.3    83  ALA83       0.0334
     12  N         -4.4070   38.5820   -4.5060 N.am   84  GLY84      -0.1955
     13  CA        -5.0510   39.8580   -4.6710 C.3    84  GLY84       0.1869
     14  C         -4.7740   40.7560   -3.5020 C.2    84  GLY84       0.2309
     15  O         -4.8830   40.3310   -2.3590 O.2    84  GLY84      -0.2863
     16  N        -11.2350   33.4870    4.9370 N.3   104  HIS104     -0.1241
     17  CA       -12.1640   34.6090    5.0380 C.3   104  HIS104      0.1621
     18  C        -13.5810   34.1500    4.7540 C.2   104  HIS104      0.2264
     19  O        -14.5140   34.8620    5.0850 O.2   104  HIS104     -0.2867
     20  CB       -11.7770   35.7880    4.1060 C.3   104  HIS104      0.0745
     21  CG       -11.8770   35.4860    2.6400 C.ar  104  HIS104      0.0817
     22  ND1      -13.0760   35.4690    1.9610 N.ar  104  HIS104     -0.2268
     23  CD2      -10.9200   35.2070    1.7170 C.ar  104  HIS104      0.1154
     24  CE1      -12.8540   35.1980    0.6850 C.ar  104  HIS104      0.1986
     25  NE2      -11.5560   35.0080    0.5130 N.ar  104  HIS104     -0.2212
     26  N        -13.3050   31.8540   -3.5700 N.3   148  GLN148     -0.1231
     27  CA       -13.8760   32.8060   -4.4790 C.3   148  GLN148      0.1698
     28  C        -12.8260   33.8210   -4.9540 C.2   148  GLN148      0.2592
     29  O        -11.8870   34.1820   -4.2370 O.2   148  GLN148     -0.2718
     30  CB       -15.1260   33.4740   -3.8540 C.3   148  GLN148      0.0381
     31  CG       -15.1920   33.8820   -2.3990 C.3   148  GLN148      0.0905
     32  CD       -14.9930   32.7820   -1.3340 C.2   148  GLN148      0.2608
     33  OE1      -14.1040   32.9410   -0.5330 O.2   148  GLN148     -0.2717
     34  NE2      -15.8170   31.6950   -1.3080 N.am  148  GLN148     -0.0878
     35  N        -12.9480   34.2190   -6.2150 N.am  149  PHE149     -0.1962
     36  CA       -12.0970   35.2830   -6.7340 C.3   149  PHE149      0.1771
     37  C        -12.6960   36.6330   -6.3470 C.2   149  PHE149      0.2619
     38  O        -13.7510   37.0070   -6.8330 O.2   149  PHE149     -0.2715
     39  CB       -11.9310   35.1650   -8.2420 C.3   149  PHE149      0.0574
     40  CG       -10.9080   36.1180   -8.8130 C.ar  149  PHE149     -0.0200
     41  CD1       -9.5750   35.7690   -8.8600 C.ar  149  PHE149     -0.0042
     42  CD2      -11.2900   37.3580   -9.2890 C.ar  149  PHE149     -0.0042
     43  CE1       -8.6300   36.6430   -9.3860 C.ar  149  PHE149     -0.0003
     44  CE2      -10.3540   38.2330   -9.8290 C.ar  149  PHE149     -0.0003
     45  CZ        -9.0280   37.8800   -9.8710 C.ar  149  PHE149     -0.0000
     46  N        -12.0120   37.3360   -5.4560 N.am  150  MET150     -0.1977
     47  CA       -12.4880   38.5870   -4.8650 C.3   150  MET150      0.1605
     48  C        -12.3900   39.7320   -5.8460 C.2   150  MET150      0.2287
     49  O        -11.2800   40.2020   -6.0860 O.2   150  MET150     -0.2864
     50  CB       -11.6380   38.9940   -3.6490 C.3   150  MET150      0.0413
     51  CG       -11.8520   38.3410   -2.3180 C.3   150  MET150      0.0598
     52  SD       -13.3970   38.7640   -1.4610 S.3   150  MET150     -0.1393
     53  CE       -14.0880   37.2660   -2.0760 C.3   150  MET150      0.0692
     54  N         -5.5460   38.3500   -0.4740 N.3   169  VAL169     -0.1231
     55  CA        -6.3720   37.1430   -0.5440 C.3   169  VAL169      0.1692
     56  C         -5.9270   36.1860   -1.6390 C.2   169  VAL169      0.2592
     57  O         -5.3720   36.6030   -2.6460 O.2   169  VAL169     -0.2718
     58  CB        -7.8670   37.4530   -0.8110 C.3   169  VAL169      0.0266
     59  CG1       -8.4860   38.1790    0.3460 C.3   169  VAL169      0.0020
     60  CG2       -8.0210   38.2630   -2.1230 C.3   169  VAL169      0.0020
     61  N         -6.2190   34.9060   -1.4790 N.am  170  GLU170     -0.1966
     62  CA        -5.9870   33.9480   -2.5610 C.3   170  GLU170      0.1733
     63  C         -6.8580   32.7500   -2.2690 C.2   170  GLU170      0.2616
     64  O         -7.7820   32.8460   -1.4390 O.2   170  GLU170     -0.2715
     65  CB        -4.5150   33.5630   -2.7010 C.3   170  GLU170      0.0429
     66  CG        -3.7150   33.6100   -1.4180 C.3   170  GLU170      0.1163
     67  CD        -3.7870   32.3340   -0.6260 C.2   170  GLU170      0.3649
     68  OE1       -2.9890   32.1990    0.3260 O.co2 170  GLU170     -0.2457
     69  OE2       -4.5930   31.4510   -0.9580 O.co2 170  GLU170     -0.2457
     70  N         -6.5960   31.6360   -2.9320 N.am  171  MET171     -0.1977
     71  CA        -7.5670   30.5540   -2.9070 C.3   171  MET171      0.1605
     72  C         -7.0180   29.2290   -2.3730 C.2   171  MET171      0.2287
     73  O         -7.7260   28.2280   -2.4540 O.2   171  MET171     -0.2864
     74  CB        -8.1530   30.3620   -4.3110 C.3   171  MET171      0.0413
     75  CG        -8.8810   31.6080   -4.8910 C.3   171  MET171      0.0598
     76  SD        -9.5630   31.4580   -6.6250 S.3   171  MET171     -0.1393
     77  CE       -10.8420   30.3440   -6.1920 C.3   171  MET171      0.0692
     78  N         -0.9800   39.9240   -8.2160 N.3   194  SER194     -0.1202
     79  CA        -1.3090   39.9500   -9.6410 C.3   194  SER194      0.2020
     80  C         -2.4700   40.9270   -9.9110 C.2   194  SER194      0.2618
     81  O         -2.8270   41.2170  -11.0770 O.2   194  SER194     -0.2717
     82  CB        -1.6640   38.5460  -10.1140 C.3   194  SER194      0.2103
     83  OG        -2.6790   37.9800   -9.2840 O.3   194  SER194     -0.2182
     84  N         -3.0510   41.4460   -8.8320 N.am  195  ASP195     -0.1973
     85  CA        -4.1480   42.3820   -8.9430 C.3   195  ASP195      0.1709
     86  C         -4.4290   43.0160   -7.5890 C.2   195  ASP195      0.2293
     87  O         -4.0520   42.4730   -6.5450 O.2   195  ASP195     -0.2864
     88  CB        -5.4030   41.6880   -9.4960 C.3   195  ASP195      0.1436
     89  CG        -5.8460   40.5110   -8.6310 C.2   195  ASP195      0.3671
     90  OD1       -5.2200   39.4360   -8.7010 O.co2 195  ASP195     -0.2456
     91  OD2       -6.8110   40.6770   -7.8640 O.co2 195  ASP195     -0.2456
     92  N         -9.6190   43.7880  -11.6960 N.3   201  GLN201     -0.1245
     93  CA        -8.8750   42.6260  -11.2650 C.3   201  GLN201      0.1566
     94  C         -8.8510   41.4640  -12.2400 C.2   201  GLN201      0.2260
     95  O         -7.8380   40.7500  -12.3070 O.2   201  GLN201     -0.2867
     96  CB        -9.4110   42.1740   -9.9200 C.3   201  GLN201      0.0367
     97  CG        -9.1390   43.2090   -8.8440 C.3   201  GLN201      0.0905
     98  CD        -9.7360   42.8260   -7.5230 C.2   201  GLN201      0.2608
     99  OE1      -10.7340   43.4010   -7.0860 O.2   201  GLN201     -0.2717
    100  NE2       -9.1240   41.8480   -6.8700 N.am  201  GLN201     -0.0878
    101  N         -5.3360   40.2430  -13.4490 N.3   205  PHE205     -0.1241
    102  CA        -4.9450   38.8720  -13.1770 C.3   205  PHE205      0.1605
    103  C         -4.4210   38.1990  -14.4410 C.2   205  PHE205      0.2264
    104  O         -3.3220   37.6180  -14.4450 O.2   205  PHE205     -0.2867
    105  CB        -6.1340   38.0900  -12.6000 C.3   205  PHE205      0.0534
    106  CG        -5.8210   36.6620  -12.3180 C.ar  205  PHE205     -0.0203
    107  CD1       -5.2180   36.2950  -11.1220 C.ar  205  PHE205     -0.0042
    108  CD2       -6.1010   35.6800  -13.2610 C.ar  205  PHE205     -0.0042
    109  CE1       -4.9230   34.9780  -10.8640 C.ar  205  PHE205     -0.0003
    110  CE2       -5.7960   34.3600  -13.0070 C.ar  205  PHE205     -0.0003
    111  CZ        -5.1970   34.0150  -11.7980 C.ar  205  PHE205     -0.0000
@<TRIPOS>BOND
     1   104   103    2
     2   103   102    1
     3   101   102    1
     4   108   110   ar
     5   108   106   ar
     6   102   105    1
     7   110   111   ar
     8   105   106    1
     9   106   107   ar
    10    95    94    2
    11    94    93    1
    12   111   109   ar
    13    92    93    1
    14    93    96    1
    15   107   109   ar
    16    81    80    2
    17    82    79    1
    18    82    83    1
    19    96    97    1
    20    80    79    1
    21    80    84   am
    22    45    44   ar
    23    45    43   ar
    24    44    42   ar
    25    79    78    1
    26    88    85    1
    27    88    89    1
    28    43    41   ar
    29    42    40   ar
    30    85    84    1
    31    85    86    1
    32    41    40   ar
    33    97    98    1
    34    40    39    1
    35    90    89   ar
    36    89    91   ar
    37     6     5    1
    38     5     2    1
    39    39    36    1
    40    86    87    2
    41    98    99    2
    42    98   100   am
    43     2     1    1
    44     2     3    1
    45    38    37    2
    46    36    37    1
    47    36    35    1
    48    76    77    1
    49    76    75    1
    50    37    46   am
    51    35    28   am
    52    49    48    2
    53    10     9    2
    54     3     7   am
    55     3     4    2
    56    48    47    1
    57     7     8    1
    58    46    47    1
    59     9     8    1
    60     9    12   am
    61    28    27    1
    62    28    29    2
    63    75    74    1
    64    47    50    1
    65     8    11    1
    66    13    12    1
    67    13    14    1
    68    27    30    1
    69    27    26    1
    70    74    71    1
    71    30    31    1
    72    50    51    1
    73    14    15    2
    74    70    71    1
    75    70    63   am
    76    71    72    1
    77    65    62    1
    78    65    66    1
    79    57    56    2
    80    62    63    1
    81    62    61    1
    82    73    72    2
    83    31    32    1
    84    51    52    1
    85    63    64    2
    86    60    58    1
    87    53    52    1
    88    56    61   am
    89    56    55    1
    90    66    67    1
    91    32    34   am
    92    32    33    2
    93    69    67   ar
    94    58    55    1
    95    58    59    1
    96    67    68   ar
    97    55    54    1
    98    25    24   ar
    99    25    23   ar
   100    24    22   ar
   101    23    21   ar
   102    22    21   ar
   103    21    20    1
   104    20    17    1
   105    18    17    1
   106    18    19    2
   107    16    17    1
