@<TRIPOS>MOLECULE
tmp/6ifkA01.pdb
 163 155 0 0 0
SMALL
GASTEIGER

@<TRIPOS>ATOM
      1  N          4.0270  -23.3020  -54.8850 N.3   227  ASP227     -0.1225
      2  CA         3.7220  -22.9040  -53.5230 C.3   227  ASP227      0.1805
      3  C          4.2560  -24.0210  -52.6370 C.2   227  ASP227      0.2598
      4  O          3.6050  -25.0560  -52.4780 O.2   227  ASP227     -0.2718
      5  CB         2.2240  -22.7070  -53.3550 C.3   227  ASP227      0.1424
      6  CG         1.8620  -22.0430  -52.0530 C.2   227  ASP227      0.3668
      7  OD1        2.7710  -21.7340  -51.2630 O.co2 227  ASP227     -0.2456
      8  OD2        0.6560  -21.8290  -51.8140 O.co2 227  ASP227     -0.2456
      9  N          5.4380  -23.8140  -52.0820 N.am  228  LEU228     -0.1966
     10  CA         6.0380  -24.8010  -51.1990 C.3   228  LEU228      0.1728
     11  C          5.3040  -24.7260  -49.8700 C.2   228  LEU228      0.2617
     12  O          5.5300  -23.8190  -49.0730 O.2   228  LEU228     -0.2715
     13  CB         7.5250  -24.5180  -51.0560 C.3   228  LEU228      0.0311
     14  CG         8.3970  -25.5420  -50.3580 C.3   228  LEU228      0.0022
     15  CD1        8.3530  -26.8440  -51.1130 C.3   228  LEU228      0.0001
     16  CD2        9.8040  -25.0130  -50.3150 C.3   228  LEU228      0.0001
     17  N          4.3840  -25.6510  -49.6400 N.am  229  SER229     -0.1936
     18  CA         3.5360  -25.5710  -48.4660 C.3   229  SER229      0.2055
     19  C          4.2810  -26.0550  -47.2270 C.2   229  SER229      0.2644
     20  O          5.2720  -26.7790  -47.3090 O.2   229  SER229     -0.2714
     21  CB         2.2750  -26.3990  -48.6710 C.3   229  SER229      0.2130
     22  OG         1.5720  -25.9430  -49.8090 O.3   229  SER229     -0.2179
     23  N          3.7880  -25.6430  -46.0650 N.am  230  GLY230     -0.1939
     24  CA         4.3570  -26.1020  -44.8150 C.3   230  GLY230      0.2014
     25  C          5.7000  -25.5070  -44.4760 C.2   230  GLY230      0.2639
     26  O          6.4910  -26.1400  -43.7730 O.2   230  GLY230     -0.2714
     27  N          5.9820  -24.3010  -44.9620 N.am  231  ILE231     -0.1963
     28  CA         7.2600  -23.6570  -44.6850 C.3   231  ILE231      0.1727
     29  C          7.3200  -23.1760  -43.2420 C.2   231  ILE231      0.2616
     30  O          8.3080  -23.4050  -42.5340 O.2   231  ILE231     -0.2715
     31  CB         7.4920  -22.5110  -45.6850 C.3   231  ILE231      0.0290
     32  CG1        7.9480  -23.0490  -47.0300 C.3   231  ILE231      0.0022
     33  CG2        8.4840  -21.5320  -45.1920 C.3   231  ILE231      0.0023
     34  CD1        8.0790  -21.9830  -48.0720 C.3   231  ILE231      0.0001
     35  N          6.2530  -22.5180  -42.7860 N.am  232  GLN232     -0.1977
     36  CA         6.2390  -21.8920  -41.4700 C.3   232  GLN232      0.1601
     37  C          6.3090  -22.9090  -40.3460 C.2   232  GLN232      0.2287
     38  O          7.0260  -22.6860  -39.3640 O.2   232  GLN232     -0.2864
     39  CB         4.9870  -21.0320  -41.3280 C.3   232  GLN232      0.0394
     40  CG         5.0620  -19.7480  -42.1030 C.3   232  GLN232      0.0908
     41  CD         6.0530  -18.7860  -41.4940 C.2   232  GLN232      0.2608
     42  OE1        7.1730  -18.6440  -41.9750 O.2   232  GLN232     -0.2717
     43  NE2        5.6350  -18.0990  -40.4380 N.am  232  GLN232     -0.0878
     44  N          9.8650  -24.3300  -40.2220 N.3   235  ILE235     -0.1231
     45  CA        10.8570  -23.3960  -39.7030 C.3   235  ILE235      0.1692
     46  C         10.6830  -23.1830  -38.2100 C.2   235  ILE235      0.2592
     47  O         11.6410  -23.3000  -37.4410 O.2   235  ILE235     -0.2718
     48  CB        10.8000  -22.0730  -40.4750 C.3   235  ILE235      0.0266
     49  CG1       11.3480  -22.3020  -41.8600 C.3   235  ILE235      0.0019
     50  CG2       11.6060  -21.0140  -39.7970 C.3   235  ILE235      0.0020
     51  CD1       11.1160  -21.1890  -42.7210 C.3   235  ILE235      0.0001
     52  N          9.4620  -22.9080  -37.7610 N.am  236  TYR236     -0.1976
     53  CA         9.2190  -22.6860  -36.3460 C.3   236  TYR236      0.1639
     54  C          8.8800  -23.9720  -35.6120 C.2   236  TYR236      0.2290
     55  O          8.2000  -23.9410  -34.5810 O.2   236  TYR236     -0.2864
     56  CB         8.1270  -21.6390  -36.1760 C.3   236  TYR236      0.0560
     57  CG         8.5510  -20.3120  -36.7340 C.ar  236  TYR236     -0.0198
     58  CD1        9.3810  -19.4720  -36.0130 C.ar  236  TYR236     -0.0009
     59  CD2        8.1500  -19.9120  -37.9970 C.ar  236  TYR236     -0.0009
     60  CE1        9.7870  -18.2620  -36.5280 C.ar  236  TYR236      0.0417
     61  CE2        8.5470  -18.7070  -38.5220 C.ar  236  TYR236      0.0417
     62  CZ         9.3680  -17.8860  -37.7850 C.ar  236  TYR236      0.1957
     63  OH         9.7650  -16.6810  -38.3140 O.3   236  TYR236     -0.2866
     64  N         15.5300  -21.4190  -42.2730 N.3   253  SER253     -0.1217
     65  CA        14.7880  -20.5600  -43.1840 C.3   253  SER253      0.1889
     66  C         15.6160  -20.1510  -44.3860 C.2   253  SER253      0.2288
     67  O         15.0580  -19.6450  -45.3630 O.2   253  SER253     -0.2866
     68  CB        14.2830  -19.3050  -42.4800 C.3   253  SER253      0.2089
     69  OG        13.4780  -18.5450  -43.3740 O.3   253  SER253     -0.2183
     70  N         15.2200  -23.6140  -46.8930 N.3   256  LEU256     -0.1231
     71  CA        14.0130  -23.6470  -47.7000 C.3   256  LEU256      0.1693
     72  C         14.0130  -22.5800  -48.7740 C.2   256  LEU256      0.2592
     73  O         13.3520  -22.7520  -49.7960 O.2   256  LEU256     -0.2718
     74  CB        12.7830  -23.4710  -46.8300 C.3   256  LEU256      0.0284
     75  CG        12.4970  -24.5850  -45.8460 C.3   256  LEU256      0.0019
     76  CD1       11.2640  -24.1800  -45.0920 C.3   256  LEU256      0.0001
     77  CD2       12.2960  -25.8930  -46.5780 C.3   256  LEU256      0.0001
     78  N         14.7580  -21.4970  -48.5860 N.am  257  ASP257     -0.1974
     79  CA        14.8430  -20.4960  -49.6340 C.3   257  ASP257      0.1709
     80  C         15.7500  -20.9590  -50.7650 C.2   257  ASP257      0.2293
     81  O         15.4750  -20.6650  -51.9290 O.2   257  ASP257     -0.2864
     82  CB        15.3280  -19.1770  -49.0450 C.3   257  ASP257      0.1436
     83  CG        14.9360  -17.9900  -49.8860 C.2   257  ASP257      0.3671
     84  OD1       14.3250  -18.1850  -50.9560 O.co2 257  ASP257     -0.2456
     85  OD2       15.2150  -16.8510  -49.4580 O.co2 257  ASP257     -0.2456
     86  N          9.2530  -16.5080  -50.7790 N.3   283  GLY283     -0.1225
     87  CA         9.0730  -17.4670  -49.7150 C.3   283  GLY283      0.1811
     88  C          8.3020  -18.6990  -50.1290 C.2   283  GLY283      0.2280
     89  O          7.1860  -18.9260  -49.6530 O.2   283  GLY283     -0.2866
     90  N          6.9950  -19.1160  -53.0050 N.3   285  HIS285     -0.1241
     91  CA         6.2310  -18.7360  -54.1800 C.3   285  HIS285      0.1621
     92  C          7.1830  -18.3200  -55.2830 C.2   285  HIS285      0.2264
     93  O          8.1650  -17.6210  -55.0320 O.2   285  HIS285     -0.2867
     94  CB         5.2910  -17.5810  -53.8570 C.3   285  HIS285      0.0745
     95  CG         4.3050  -17.8900  -52.7800 C.ar  285  HIS285      0.0817
     96  ND1        3.1700  -18.6350  -53.0010 N.ar  285  HIS285     -0.2268
     97  CD2        4.2970  -17.5730  -51.4650 C.ar  285  HIS285      0.1154
     98  CE1        2.4940  -18.7470  -51.8730 C.ar  285  HIS285      0.1986
     99  NE2        3.1600  -18.1180  -50.9230 N.ar  285  HIS285     -0.2212
    100  N         -3.3900  -27.9570  -53.5840 N.3   355  LYS355     -0.1245
    101  CA        -2.9620  -27.9150  -52.1920 C.3   355  LYS355      0.1561
    102  C         -3.9580  -28.6100  -51.2780 C.2   355  LYS355      0.2260
    103  O         -3.6270  -28.9280  -50.1320 O.2   355  LYS355     -0.2867
    104  CB        -2.7640  -26.4510  -51.7690 C.3   355  LYS355      0.0271
    105  CG        -2.0550  -26.1970  -50.4420 C.3   355  LYS355      0.0035
    106  CD        -1.8330  -24.7190  -50.1890 C.3   355  LYS355      0.0206
    107  CE        -1.1740  -24.5010  -48.8380 C.3   355  LYS355      0.1093
    108  NZ        -0.8930  -23.0710  -48.5520 N.3   355  LYS355     -0.1314
    109  N         -4.0240  -33.4730  -52.0200 N.3   358  ARG358     -0.1245
    110  CA        -2.5800  -33.6590  -52.1800 C.3   358  ARG358      0.1563
    111  C         -2.1200  -34.8410  -53.0350 C.2   358  ARG358      0.2260
    112  O         -1.5280  -34.6500  -54.1020 O.2   358  ARG358     -0.2867
    113  CB        -1.9650  -33.8040  -50.7880 C.3   358  ARG358      0.0307
    114  CG        -2.2370  -32.6620  -49.8520 C.3   358  ARG358      0.0489
    115  CD        -1.5090  -31.4390  -50.2950 C.3   358  ARG358      0.2205
    116  NE        -1.7450  -30.3040  -49.4180 N.pl3 358  ARG358     -0.0865
    117  CZ        -0.9890  -30.0090  -48.3720 C.cat 358  ARG358      0.5346
    118  NH1        0.0530  -30.7670  -48.0670 N.pl3 358  ARG358      0.1354
    119  NH2       -1.2750  -28.9540  -47.6300 N.pl3 358  ARG358      0.1354
    120  N          6.1900   -7.1590  -41.3150 N.3   496  ASP496     -0.1239
    121  CA         5.4270   -7.6220  -42.4680 C.3   496  ASP496      0.1674
    122  C          4.8610   -6.3960  -43.1560 C.2   496  ASP496      0.2266
    123  O          4.2420   -5.5590  -42.4990 O.2   496  ASP496     -0.2867
    124  CB         4.2870   -8.5770  -42.0720 C.3   496  ASP496      0.1410
    125  CG         3.6750   -9.3150  -43.2660 C.2   496  ASP496      0.3668
    126  OD1        4.0750   -9.0730  -44.4170 O.co2 496  ASP496     -0.2456
    127  OD2        2.7860  -10.1610  -43.0500 O.co2 496  ASP496     -0.2456
    128  N         15.8240  -13.6440  -40.5940 N.3   550  TYR550     -0.1241
    129  CA        15.2880  -13.7950  -41.9360 C.3   550  TYR550      0.1605
    130  C         14.9260  -12.4390  -42.5060 C.2   550  TYR550      0.2264
    131  O         14.4360  -11.5710  -41.7900 O.2   550  TYR550     -0.2867
    132  CB        14.0630  -14.7080  -41.9740 C.3   550  TYR550      0.0534
    133  CG        13.4480  -14.7920  -43.3540 C.ar  550  TYR550     -0.0201
    134  CD1       14.1220  -15.4110  -44.3990 C.ar  550  TYR550     -0.0009
    135  CD2       12.2010  -14.2500  -43.6150 C.ar  550  TYR550     -0.0009
    136  CE1       13.5650  -15.4820  -45.6630 C.ar  550  TYR550      0.0417
    137  CE2       11.6380  -14.3270  -44.8670 C.ar  550  TYR550      0.0417
    138  CZ        12.3240  -14.9360  -45.8840 C.ar  550  TYR550      0.1957
    139  OH        11.7520  -15.0020  -47.1300 O.3   550  TYR550     -0.2866
    140  N         13.1670  -11.2070  -46.4100 N.3   552  GLY552     -0.1210
    141  CA        12.8020  -11.4990  -47.7790 C.3   552  GLY552      0.1956
    142  C         11.3070  -11.6010  -47.9210 C.2   552  GLY552      0.2612
    143  O         10.5700  -11.7670  -46.9530 O.2   552  GLY552     -0.2717
    144  N         10.8540  -11.5180  -49.1680 N.am  553  GLY553     -0.1942
    145  CA         9.4340  -11.4890  -49.4290 C.3   553  GLY553      0.2014
    146  C          8.8920  -10.1790  -48.9170 C.2   553  GLY553      0.2639
    147  O          9.0700   -9.1300  -49.5370 O.2   553  GLY553     -0.2714
    148  N          8.2160  -10.2390  -47.7770 N.am  554  ASP554     -0.1957
    149  CA         7.9600   -9.0270  -47.0140 C.3   554  ASP554      0.1840
    150  C          8.1740   -9.2230  -45.5160 C.2   554  ASP554      0.2622
    151  O          7.6590   -8.4340  -44.7230 O.2   554  ASP554     -0.2715
    152  CB         6.5620   -8.5130  -47.3040 C.3   554  ASP554      0.1450
    153  CG         5.5170   -9.5810  -47.1700 C.2   554  ASP554      0.3671
    154  OD1        5.8780  -10.7480  -46.9310 O.co2 554  ASP554     -0.2456
    155  OD2        4.3240   -9.2590  -47.3130 O.co2 554  ASP554     -0.2456
    156  N          8.9340  -10.2290  -45.1060 N.am  555  ASP555     -0.1971
    157  CA         9.2170  -10.4520  -43.6990 C.3   555  ASP555      0.1709
    158  C         10.6320  -10.0210  -43.3570 C.2   555  ASP555      0.2293
    159  O         11.5610  -10.2070  -44.1490 O.2   555  ASP555     -0.2864
    160  CB         9.0390  -11.9210  -43.3300 C.3   555  ASP555      0.1436
    161  CG         9.2960  -12.1830  -41.8570 C.2   555  ASP555      0.3671
    162  OD1        8.4570  -11.8020  -41.0130 O.co2 555  ASP555     -0.2456
    163  OD2       10.3490  -12.7600  -41.5330 O.co2 555  ASP555     -0.2456
@<TRIPOS>BOND
     1    92    93    2
     2    92    91    1
     3     1     2    1
     4    91    94    1
     5    91    90    1
     6   112   111    2
     7    94    95    1
     8   100   101    1
     9     2     5    1
    10     2     3    1
    11     5     6    1
    12   111   110    1
    13    96    95   ar
    14    96    98   ar
    15    95    97   ar
    16     3     4    2
    17     3     9   am
    18   101   104    1
    19   101   102    1
    20   110   109    1
    21   110   113    1
    22     9    10    1
    23     6     8   ar
    24     6     7   ar
    25    81    80    2
    26    98    99   ar
    27   104   105    1
    28    97    99   ar
    29   102   103    2
    30    10    13    1
    31    10    11    1
    32    15    14    1
    33    13    14    1
    34    84    83   ar
    35   113   114    1
    36    86    87    1
    37    80    79    1
    38   105   106    1
    39    14    16    1
    40   115   114    1
    41   115   116    1
    42   106   107    1
    43    88    87    1
    44    88    89    2
    45    83    85   ar
    46    83    82    1
    47    11    17   am
    48    11    12    2
    49    22    21    1
    50    73    72    2
    51    17    18    1
    52    79    82    1
    53    79    78    1
    54   147   146    2
    55   145   144    1
    56   145   146    1
    57   116   117    2
    58   144   142   am
    59   146   148   am
    60   107   108    1
    61    72    78   am
    62    72    71    1
    63    21    18    1
    64    18    19    1
    65   117   118    1
    66   117   119    1
    67    34    32    1
    68   142   141    1
    69   142   143    2
    70   141   140    1
    71   148   149    1
    72    71    70    1
    73    71    74    1
    74   155   153   ar
    75    20    19    2
    76   152   153    1
    77   152   149    1
    78    19    23   am
    79   153   154   ar
    80   139   138    1
    81    32    31    1
    82   149   150    1
    83    74    75    1
    84    77    75    1
    85    23    24    1
    86   138   136   ar
    87   138   137   ar
    88    75    76    1
    89    31    33    1
    90    31    28    1
    91   136   134   ar
    92   150   156   am
    93   150   151    2
    94    67    66    2
    95   156   157    1
    96    27    28    1
    97    27    25   am
    98   137   135   ar
    99    24    25    1
   100    28    29    1
   101    25    26    2
   102   126   125   ar
   103   134   133   ar
   104    66    65    1
   105   159   158    2
   106   157   158    1
   107   157   160    1
   108   135   133   ar
   109    69    68    1
   110   133   132    1
   111   160   161    1
   112   125   127   ar
   113   125   124    1
   114    29    35   am
   115    29    30    2
   116    65    68    1
   117    65    64    1
   118   122   123    2
   119   122   121    1
   120    35    36    1
   121    51    49    1
   122   130   129    1
   123   130   131    2
   124   121   124    1
   125   121   120    1
   126    40    41    1
   127    40    39    1
   128    42    41    2
   129   132   129    1
   130   129   128    1
   131    49    48    1
   132   161   163   ar
   133   161   162   ar
   134    41    43   am
   135    36    39    1
   136    36    37    1
   137    48    50    1
   138    48    45    1
   139    37    38    2
   140    44    45    1
   141    45    46    1
   142    61    59   ar
   143    61    62   ar
   144    63    62    1
   145    46    52   am
   146    46    47    2
   147    59    57   ar
   148    62    60   ar
   149    52    53    1
   150    57    56    1
   151    57    58   ar
   152    60    58   ar
   153    53    56    1
   154    53    54    1
   155    54    55    2
