@<TRIPOS>MOLECULE
tmp/6ifkA00.pdb
 162 155 0 0 0
SMALL
GASTEIGER

@<TRIPOS>ATOM
      1  N          9.3350  -13.9500  -60.4560 N.3   280  TYR280     -0.1241
      2  CA         9.5920  -13.7000  -59.0490 C.3   280  TYR280      0.1605
      3  C          9.9780  -15.0220  -58.4170 C.2   280  TYR280      0.2264
      4  O          9.6040  -16.0770  -58.9170 O.2   280  TYR280     -0.2867
      5  CB         8.3590  -13.0950  -58.3660 C.3   280  TYR280      0.0534
      6  CG         8.4780  -12.9720  -56.8690 C.ar  280  TYR280     -0.0201
      7  CD1        9.3300  -12.0430  -56.2960 C.ar  280  TYR280     -0.0009
      8  CD2        7.7470  -13.7960  -56.0300 C.ar  280  TYR280     -0.0009
      9  CE1        9.4470  -11.9380  -54.9280 C.ar  280  TYR280      0.0417
     10  CE2        7.8560  -13.6990  -54.6640 C.ar  280  TYR280      0.0417
     11  CZ         8.7070  -12.7690  -54.1180 C.ar  280  TYR280      0.1957
     12  OH         8.8210  -12.6740  -52.7530 O.3   280  TYR280     -0.2866
     13  N          9.2530  -16.5080  -50.7790 N.3   283  GLY283     -0.1225
     14  CA         9.0730  -17.4670  -49.7150 C.3   283  GLY283      0.1811
     15  C          8.3020  -18.6990  -50.1290 C.2   283  GLY283      0.2280
     16  O          7.1860  -18.9260  -49.6530 O.2   283  GLY283     -0.2866
     17  N          6.9950  -19.1160  -53.0050 N.3   285  HIS285     -0.1241
     18  CA         6.2310  -18.7360  -54.1800 C.3   285  HIS285      0.1621
     19  C          7.1830  -18.3200  -55.2830 C.2   285  HIS285      0.2264
     20  O          8.1650  -17.6210  -55.0320 O.2   285  HIS285     -0.2867
     21  CB         5.2910  -17.5810  -53.8570 C.3   285  HIS285      0.0745
     22  CG         4.3050  -17.8900  -52.7800 C.ar  285  HIS285      0.0817
     23  ND1        3.1700  -18.6350  -53.0010 N.ar  285  HIS285     -0.2268
     24  CD2        4.2970  -17.5730  -51.4650 C.ar  285  HIS285      0.1154
     25  CE1        2.4940  -18.7470  -51.8730 C.ar  285  HIS285      0.1986
     26  NE2        3.1600  -18.1180  -50.9230 N.ar  285  HIS285     -0.2212
     27  N          6.6380  -17.2380  -59.5320 N.3   287  TYR287     -0.1241
     28  CA         5.7920  -17.1210  -60.7080 C.3   287  TYR287      0.1605
     29  C          6.6530  -17.1140  -61.9610 C.2   287  TYR287      0.2264
     30  O          7.7480  -16.5510  -61.9650 O.2   287  TYR287     -0.2867
     31  CB         4.9500  -15.8510  -60.6120 C.3   287  TYR287      0.0534
     32  CG         3.9700  -15.9130  -59.4660 C.ar  287  TYR287     -0.0201
     33  CD1        2.7220  -16.4880  -59.6300 C.ar  287  TYR287     -0.0009
     34  CD2        4.3160  -15.4490  -58.2030 C.ar  287  TYR287     -0.0009
     35  CE1        1.8350  -16.5700  -58.5780 C.ar  287  TYR287      0.0417
     36  CE2        3.4380  -15.5280  -57.1480 C.ar  287  TYR287      0.0417
     37  CZ         2.2000  -16.0860  -57.3420 C.ar  287  TYR287      0.1957
     38  OH         1.3210  -16.1630  -56.2900 O.3   287  TYR287     -0.2866
     39  N         -3.9820  -14.2690  -63.9400 N.3   344  TYR344     -0.1241
     40  CA        -2.9840  -14.4640  -62.9010 C.3   344  TYR344      0.1605
     41  C         -3.5650  -15.2550  -61.7420 C.2   344  TYR344      0.2264
     42  O         -2.8290  -15.9390  -61.0240 O.2   344  TYR344     -0.2867
     43  CB        -2.4790  -13.1070  -62.4170 C.3   344  TYR344      0.0534
     44  CG        -1.3160  -13.1640  -61.4630 C.ar  344  TYR344     -0.0201
     45  CD1       -0.0230  -13.2830  -61.9360 C.ar  344  TYR344     -0.0009
     46  CD2       -1.5120  -13.1060  -60.0900 C.ar  344  TYR344     -0.0009
     47  CE1        1.0470  -13.3370  -61.0810 C.ar  344  TYR344      0.0417
     48  CE2       -0.4480  -13.1610  -59.2230 C.ar  344  TYR344      0.0417
     49  CZ         0.8290  -13.2760  -59.7250 C.ar  344  TYR344      0.1957
     50  OH         1.8940  -13.3310  -58.8640 O.3   344  TYR344     -0.2866
     51  N          6.1900   -7.1590  -41.3150 N.3   496  ASP496     -0.1225
     52  CA         5.4270   -7.6220  -42.4680 C.3   496  ASP496      0.1805
     53  C          4.8610   -6.3960  -43.1560 C.2   496  ASP496      0.2597
     54  O          4.2420   -5.5590  -42.4990 O.2   496  ASP496     -0.2718
     55  CB         4.2870   -8.5770  -42.0720 C.3   496  ASP496      0.1424
     56  CG         3.6750   -9.3150  -43.2660 C.2   496  ASP496      0.3668
     57  OD1        4.0750   -9.0730  -44.4170 O.co2 496  ASP496     -0.2456
     58  OD2        2.7860  -10.1610  -43.0500 O.co2 496  ASP496     -0.2456
     59  N          5.0700   -6.2930  -44.4670 N.am  497  VAL497     -0.1980
     60  CA         4.3900   -5.2750  -45.2570 C.3   497  VAL497      0.1595
     61  C          2.9100   -5.6070  -45.2900 C.2   497  VAL497      0.2287
     62  O          2.5180   -6.7140  -45.6750 O.2   497  VAL497     -0.2864
     63  CB         4.9670   -5.1920  -46.6710 C.3   497  VAL497      0.0276
     64  CG1        4.1440   -4.2590  -47.5280 C.3   497  VAL497      0.0022
     65  CG2        6.3340   -4.6920  -46.5970 C.3   497  VAL497      0.0022
     66  N         -0.6940   -6.0210  -46.4300 N.3   499  ASP499     -0.1225
     67  CA        -1.5600   -6.1540  -47.6020 C.3   499  ASP499      0.1805
     68  C         -0.7560   -6.1030  -48.9000 C.2   499  ASP499      0.2598
     69  O         -1.0680   -5.3530  -49.8240 O.2   499  ASP499     -0.2718
     70  CB        -2.6610   -5.0920  -47.5820 C.3   499  ASP499      0.1424
     71  CG        -3.5670   -5.2180  -46.3750 C.2   499  ASP499      0.3668
     72  OD1       -3.7720   -6.3470  -45.8940 O.co2 499  ASP499     -0.2456
     73  OD2       -4.0650   -4.1850  -45.8890 O.co2 499  ASP499     -0.2456
     74  N          0.3090   -6.9030  -48.9500 N.am  500  LEU500     -0.1966
     75  CA         1.2030   -6.8650  -50.1000 C.3   500  LEU500      0.1728
     76  C          0.5860   -7.5520  -51.3100 C.2   500  LEU500      0.2617
     77  O          0.7770   -7.1030  -52.4450 O.2   500  LEU500     -0.2715
     78  CB         2.5410   -7.5090  -49.7510 C.3   500  LEU500      0.0311
     79  CG         3.5910   -7.4410  -50.8530 C.3   500  LEU500      0.0022
     80  CD1        4.0100   -6.0160  -51.0680 C.3   500  LEU500      0.0001
     81  CD2        4.7630   -8.2930  -50.5220 C.3   500  LEU500      0.0001
     82  N         -0.1420   -8.6500  -51.0940 N.am  501  GLY501     -0.1940
     83  CA        -0.8310   -9.2990  -52.1960 C.3   501  GLY501      0.2014
     84  C         -1.9120   -8.4270  -52.7930 C.2   501  GLY501      0.2638
     85  O         -2.1120   -8.4170  -54.0100 O.2   501  GLY501     -0.2714
     86  N         -2.5950   -7.6610  -51.9540 N.am  502  ALA502     -0.1977
     87  CA        -3.5410   -6.6770  -52.4480 C.3   502  ALA502      0.1597
     88  C         -2.8440   -5.5420  -53.1780 C.2   502  ALA502      0.2287
     89  O         -3.3750   -5.0190  -54.1610 O.2   502  ALA502     -0.2864
     90  CB        -4.3520   -6.1350  -51.2860 C.3   502  ALA502      0.0319
     91  N         -0.1890   -5.9290  -54.8590 N.3   504  PHE504     -0.1241
     92  CA         0.4650   -6.5150  -56.0140 C.3   504  PHE504      0.1605
     93  C         -0.5190   -6.8740  -57.1160 C.2   504  PHE504      0.2264
     94  O         -0.2680   -6.5800  -58.2860 O.2   504  PHE504     -0.2867
     95  CB         1.2440   -7.7540  -55.5810 C.3   504  PHE504      0.0534
     96  CG         1.9500   -8.4280  -56.6970 C.ar  504  PHE504     -0.0203
     97  CD1        3.0690   -7.8560  -57.2580 C.ar  504  PHE504     -0.0042
     98  CD2        1.5030   -9.6390  -57.1820 C.ar  504  PHE504     -0.0042
     99  CE1        3.7270   -8.4720  -58.2870 C.ar  504  PHE504     -0.0003
    100  CE2        2.1600  -10.2610  -58.2150 C.ar  504  PHE504     -0.0003
    101  CZ         3.2740   -9.6790  -58.7660 C.ar  504  PHE504     -0.0000
    102  N          7.5610   -4.1020  -59.8400 N.3   525  PHE525     -0.1227
    103  CA         7.1740   -4.0390  -58.4380 C.3   525  PHE525      0.1736
    104  C          7.7780   -5.1800  -57.6380 C.2   525  PHE525      0.2596
    105  O          8.2090   -4.9770  -56.4960 O.2   525  PHE525     -0.2718
    106  CB         5.6560   -4.0770  -58.3310 C.3   525  PHE525      0.0547
    107  CG         5.1430   -3.9020  -56.9440 C.ar  525  PHE525     -0.0202
    108  CD1        5.0530   -2.6450  -56.3880 C.ar  525  PHE525     -0.0042
    109  CD2        4.7530   -4.9910  -56.1900 C.ar  525  PHE525     -0.0042
    110  CE1        4.5800   -2.4790  -55.1120 C.ar  525  PHE525     -0.0003
    111  CE2        4.2880   -4.8310  -54.9130 C.ar  525  PHE525     -0.0003
    112  CZ         4.2010   -3.5730  -54.3750 C.ar  525  PHE525     -0.0000
    113  N          7.8010   -6.3810  -58.2120 N.am  526  SER526     -0.1952
    114  CA         8.4590   -7.4990  -57.5570 C.3   526  SER526      0.1924
    115  C          9.9510   -7.2590  -57.4350 C.2   526  SER526      0.2314
    116  O         10.5480   -7.5910  -56.4080 O.2   526  SER526     -0.2863
    117  CB         8.2040   -8.7890  -58.3230 C.3   526  SER526      0.2116
    118  OG         6.8450   -9.1550  -58.2590 O.3   526  SER526     -0.2180
    119  N         10.3790   -4.5930  -54.5060 N.3   529  MET529     -0.1230
    120  CA        10.2180   -5.1760  -53.1810 C.3   529  MET529      0.1702
    121  C         11.2950   -6.1990  -52.8600 C.2   529  MET529      0.2593
    122  O         11.7650   -6.2450  -51.7160 O.2   529  MET529     -0.2718
    123  CB         8.8430   -5.8180  -53.0710 C.3   529  MET529      0.0401
    124  CG         7.7090   -4.8310  -53.2110 C.3   529  MET529      0.0596
    125  SD         7.8160   -3.5880  -51.9280 S.3   529  MET529     -0.1393
    126  CE         7.5350   -4.6250  -50.5040 C.3   529  MET529      0.0692
    127  N         11.7160   -6.9920  -53.8450 N.am  530  SER530     -0.1952
    128  CA        12.7950   -7.9390  -53.6410 C.3   530  SER530      0.1924
    129  C         14.1200   -7.2340  -53.4300 C.2   530  SER530      0.2314
    130  O         14.8920   -7.6410  -52.5580 O.2   530  SER530     -0.2863
    131  CB        12.8890   -8.8770  -54.8400 C.3   530  SER530      0.2116
    132  OG        11.6840   -9.5990  -55.0160 O.3   530  SER530     -0.2180
    133  N         10.8540  -11.5180  -49.1680 N.3   553  GLY553     -0.1210
    134  CA         9.4340  -11.4890  -49.4290 C.3   553  GLY553      0.1956
    135  C          8.8920  -10.1790  -48.9170 C.2   553  GLY553      0.2611
    136  O          9.0700   -9.1300  -49.5370 O.2   553  GLY553     -0.2717
    137  N          8.2160  -10.2390  -47.7770 N.am  554  ASP554     -0.1973
    138  CA         7.9600   -9.0270  -47.0140 C.3   554  ASP554      0.1709
    139  C          8.1740   -9.2230  -45.5160 C.2   554  ASP554      0.2293
    140  O          7.6590   -8.4340  -44.7230 O.2   554  ASP554     -0.2864
    141  CB         6.5620   -8.5130  -47.3040 C.3   554  ASP554      0.1436
    142  CG         5.5170   -9.5810  -47.1700 C.2   554  ASP554      0.3671
    143  OD1        5.8780  -10.7480  -46.9310 O.co2 554  ASP554     -0.2456
    144  OD2        4.3240   -9.2590  -47.3130 O.co2 554  ASP554     -0.2456
    145  N         -1.0490   -5.9460  -36.3930 N.3   614  LYS614     -0.1245
    146  CA        -1.7880   -6.0140  -37.6500 C.3   614  LYS614      0.1561
    147  C         -3.2060   -5.5180  -37.4730 C.2   614  LYS614      0.2260
    148  O         -3.7640   -4.9080  -38.3860 O.2   614  LYS614     -0.2867
    149  CB        -1.8420   -7.4340  -38.2060 C.3   614  LYS614      0.0271
    150  CG        -0.5150   -8.0550  -38.5260 C.3   614  LYS614      0.0035
    151  CD         0.2240   -7.3360  -39.6210 C.3   614  LYS614      0.0206
    152  CE        -0.3390   -7.6380  -40.9800 C.3   614  LYS614      0.1093
    153  NZ         0.5210   -7.0790  -42.0400 N.3   614  LYS614     -0.1314
    154  N         -4.3200   -1.0130  -39.2750 N.3   618  LYS618     -0.1245
    155  CA        -3.4860   -1.9890  -39.9620 C.3   618  LYS618      0.1561
    156  C         -2.0030   -1.7610  -39.6750 C.2   618  LYS618      0.2260
    157  O         -1.2350   -2.7090  -39.4930 O.2   618  LYS618     -0.2867
    158  CB        -3.7670   -1.9490  -41.4610 C.3   618  LYS618      0.0271
    159  CG        -3.1300   -3.0840  -42.2170 C.3   618  LYS618      0.0035
    160  CD        -3.7620   -4.4040  -41.8250 C.3   618  LYS618      0.0206
    161  CE        -3.2190   -5.5380  -42.6560 C.3   618  LYS618      0.1093
    162  NZ        -3.8010   -6.8280  -42.2310 N.3   618  LYS618     -0.1314
@<TRIPOS>BOND
     1    39    40    1
     2    40    43    1
     3    40    41    1
     4    43    44    1
     5    30    29    2
     6    29    28    1
     7    45    44   ar
     8    45    47   ar
     9    41    42    2
    10    44    46   ar
    11    47    49   ar
    12    28    31    1
    13    28    27    1
    14    31    32    1
    15     1     2    1
    16    46    48   ar
    17   102   103    1
    18    49    48   ar
    19    49    50    1
    20    33    32   ar
    21    33    35   ar
    22    32    34   ar
    23     2     3    1
    24     2     5    1
    25     4     3    2
    26   101    99   ar
    27   101   100   ar
    28    35    37   ar
    29   103   106    1
    30   103   104    1
    31     5     6    1
    32   106   107    1
    33   117   118    1
    34   117   114    1
    35    99    97   ar
    36    94    93    2
    37   100    98   ar
    38   113   104   am
    39   113   114    1
    40    34    36   ar
    41   104   105    2
    42   114   115    1
    43   115   116    2
    44    37    36   ar
    45    37    38    1
    46    97    96   ar
    47    98    96   ar
    48    93    92    1
    49   107   108   ar
    50   107   109   ar
    51     6     7   ar
    52     6     8   ar
    53    96    95    1
    54   108   110   ar
    55     7     9   ar
    56   109   111   ar
    57     8    10   ar
    58    92    95    1
    59    92    91    1
    60    19    20    2
    61    19    18    1
    62   110   112   ar
    63   132   131    1
    64     9    11   ar
    65   111   112   ar
    66   131   128    1
    67    10    11   ar
    68   119   120    1
    69    18    21    1
    70    18    17    1
    71    89    88    2
    72    11    12    1
    73    85    84    2
    74    21    22    1
    75   127   128    1
    76   127   121   am
    77   128   129    1
    78   129   130    2
    79   124   123    1
    80   124   125    1
    81   120   123    1
    82   120   121    1
    83    88    87    1
    84    23    22   ar
    85    23    25   ar
    86   121   122    2
    87    84    83    1
    88    84    86   am
    89    22    24   ar
    90    87    86    1
    91    87    90    1
    92    77    76    2
    93    83    82    1
    94   125   126    1
    95    25    26   ar
    96    24    26   ar
    97    76    82   am
    98    76    75    1
    99    80    79    1
   100    79    81    1
   101    79    78    1
   102    13    14    1
   103    15    14    1
   104    15    16    2
   105    75    78    1
   106    75    74    1
   107    69    68    2
   108   136   135    2
   109   134   133    1
   110   134   135    1
   111    74    68   am
   112   135   137   am
   113    68    67    1
   114   137   138    1
   115    67    70    1
   116    67    66    1
   117    70    71    1
   118    64    63    1
   119   144   142   ar
   120   141   142    1
   121   141   138    1
   122   142   143   ar
   123   138   139    1
   124    63    65    1
   125    63    60    1
   126    71    72   ar
   127    71    73   ar
   128    62    61    2
   129   139   140    2
   130    61    60    1
   131    60    59    1
   132    59    53   am
   133    57    56   ar
   134    56    58   ar
   135    56    55    1
   136    53    54    2
   137    53    52    1
   138   161   162    1
   139   161   160    1
   140    52    55    1
   141    52    51    1
   142   159   160    1
   143   159   158    1
   144   153   152    1
   145   158   155    1
   146   152   151    1
   147   155   156    1
   148   155   154    1
   149   156   157    2
   150   151   150    1
   151   150   149    1
   152   148   147    2
   153   149   146    1
   154   146   147    1
   155   146   145    1
