@<TRIPOS>MOLECULE
tmp/6ifrA00.pdb
 163 157 0 0 0
SMALL
GASTEIGER

@<TRIPOS>ATOM
      1  N          4.1920  -22.2380  -55.3220 N.3   216  ASP216     -0.1225
      2  CA         3.9970  -21.7990  -53.9460 C.3   216  ASP216      0.1805
      3  C          4.6210  -22.8500  -53.0410 C.2   216  ASP216      0.2598
      4  O          4.0770  -23.9480  -52.8990 O.2   216  ASP216     -0.2718
      5  CB         2.5130  -21.6260  -53.6450 C.3   216  ASP216      0.1424
      6  CG         2.2530  -20.9620  -52.3100 C.2   216  ASP216      0.3668
      7  OD1        3.2150  -20.5560  -51.6250 O.co2 216  ASP216     -0.2456
      8  OD2        1.0680  -20.8480  -51.9350 O.co2 216  ASP216     -0.2456
      9  N          5.7460  -22.5150  -52.4220 N.am  217  LEU217     -0.1966
     10  CA         6.3910  -23.4190  -51.4750 C.3   217  LEU217      0.1728
     11  C          5.6730  -23.2780  -50.1400 C.2   217  LEU217      0.2617
     12  O          6.0250  -22.4530  -49.2970 O.2   217  LEU217     -0.2715
     13  CB         7.8790  -23.1200  -51.3750 C.3   217  LEU217      0.0311
     14  CG         8.7380  -23.9710  -50.4480 C.3   217  LEU217      0.0022
     15  CD1        8.6050  -25.4250  -50.7800 C.3   217  LEU217      0.0001
     16  CD2       10.1750  -23.5490  -50.6140 C.3   217  LEU217      0.0001
     17  N          4.6380  -24.0920  -49.9590 N.am  218  SER218     -0.1936
     18  CA         3.8070  -24.0250  -48.7710 C.3   218  SER218      0.2055
     19  C          4.5140  -24.6690  -47.5840 C.2   218  SER218      0.2644
     20  O          5.5110  -25.3790  -47.7260 O.2   218  SER218     -0.2714
     21  CB         2.4710  -24.7140  -49.0200 C.3   218  SER218      0.2130
     22  OG         1.7550  -24.0570  -50.0480 O.3   218  SER218     -0.2179
     23  N          3.9720  -24.4190  -46.3960 N.am  219  GLY219     -0.1939
     24  CA         4.5990  -24.9000  -45.1830 C.3   219  GLY219      0.2014
     25  C          5.9040  -24.2220  -44.8620 C.2   219  GLY219      0.2639
     26  O          6.7240  -24.7810  -44.1320 O.2   219  GLY219     -0.2714
     27  N          6.1160  -23.0180  -45.3890 N.am  220  ILE220     -0.1963
     28  CA         7.4140  -22.3690  -45.2960 C.3   220  ILE220      0.1727
     29  C          7.6190  -21.7120  -43.9390 C.2   220  ILE220      0.2616
     30  O          8.7620  -21.5090  -43.5190 O.2   220  ILE220     -0.2715
     31  CB         7.5450  -21.3780  -46.4680 C.3   220  ILE220      0.0290
     32  CG1        8.9900  -20.9930  -46.7010 C.3   220  ILE220      0.0022
     33  CG2        6.7120  -20.1450  -46.2630 C.3   220  ILE220      0.0023
     34  CD1        9.7690  -22.1110  -47.2040 C.3   220  ILE220      0.0001
     35  N          6.5390  -21.4230  -43.2180 N.am  221  GLN221     -0.1963
     36  CA         6.6080  -20.7540  -41.9300 C.3   221  GLN221      0.1733
     37  C          6.8300  -21.7520  -40.8070 C.2   221  GLN221      0.2616
     38  O          7.6970  -21.5550  -39.9520 O.2   221  GLN221     -0.2715
     39  CB         5.3150  -19.9730  -41.6940 C.3   221  GLN221      0.0408
     40  CG         5.3060  -19.0700  -40.4920 C.3   221  GLN221      0.0908
     41  CD         6.2270  -17.8890  -40.6580 C.2   221  GLN221      0.2608
     42  OE1        6.3820  -17.3580  -41.7530 O.2   221  GLN221     -0.2717
     43  NE2        6.8130  -17.4420  -39.5610 N.am  221  GLN221     -0.0878
     44  N          6.0570  -22.8360  -40.8110 N.am  222  ASP222     -0.1971
     45  CA         6.0930  -23.8180  -39.7390 C.3   222  ASP222      0.1709
     46  C          7.3270  -24.7020  -39.7950 C.2   222  ASP222      0.2293
     47  O          7.6300  -25.3730  -38.8040 O.2   222  ASP222     -0.2864
     48  CB         4.8360  -24.6830  -39.7970 C.3   222  ASP222      0.1436
     49  CG         3.5760  -23.8830  -39.5640 C.2   222  ASP222      0.3671
     50  OD1        3.6430  -22.8650  -38.8460 O.co2 222  ASP222     -0.2456
     51  OD2        2.5200  -24.2670  -40.1080 O.co2 222  ASP222     -0.2456
     52  N         10.4860  -23.5270  -40.2060 N.3   224  ILE224     -0.1231
     53  CA        11.6830  -22.8190  -39.7790 C.3   224  ILE224      0.1692
     54  C         11.7140  -22.6260  -38.2690 C.2   224  ILE224      0.2592
     55  O         12.6920  -22.9820  -37.6090 O.2   224  ILE224     -0.2718
     56  CB        11.8160  -21.4750  -40.5240 C.3   224  ILE224      0.0266
     57  CG1       11.9860  -21.7660  -42.0080 C.3   224  ILE224      0.0019
     58  CG2       12.9770  -20.6790  -39.9920 C.3   224  ILE224      0.0020
     59  CD1       11.8790  -20.5850  -42.8660 C.3   224  ILE224      0.0001
     60  N         10.6430  -22.0880  -37.6990 N.am  225  TYR225     -0.1976
     61  CA        10.6940  -21.6230  -36.3230 C.3   225  TYR225      0.1639
     62  C         10.3420  -22.6940  -35.2980 C.2   225  TYR225      0.2290
     63  O         10.3400  -22.3970  -34.1000 O.2   225  TYR225     -0.2864
     64  CB         9.7720  -20.4190  -36.1660 C.3   225  TYR225      0.0560
     65  CG        10.2080  -19.2480  -37.0090 C.ar  225  TYR225     -0.0198
     66  CD1       11.2800  -18.4590  -36.6250 C.ar  225  TYR225     -0.0009
     67  CD2        9.5510  -18.9320  -38.1900 C.ar  225  TYR225     -0.0009
     68  CE1       11.6850  -17.3820  -37.3930 C.ar  225  TYR225      0.0417
     69  CE2        9.9520  -17.8610  -38.9630 C.ar  225  TYR225      0.0417
     70  CZ        11.0150  -17.0910  -38.5580 C.ar  225  TYR225      0.1957
     71  OH        11.4140  -16.0250  -39.3240 O.3   225  TYR225     -0.2866
     72  N         16.5010  -20.7250  -42.5550 N.3   236  SER236     -0.1217
     73  CA        15.7200  -19.7960  -43.3570 C.3   236  SER236      0.1889
     74  C         16.4120  -19.4210  -44.6540 C.2   236  SER236      0.2288
     75  O         15.7580  -18.8960  -45.5600 O.2   236  SER236     -0.2866
     76  CB        15.4250  -18.5250  -42.5680 C.3   236  SER236      0.2089
     77  OG        14.7240  -17.6000  -43.3780 O.3   236  SER236     -0.2183
     78  N         15.9370  -22.4890  -47.4250 N.3   239  LEU239     -0.1231
     79  CA        14.6800  -22.5000  -48.1520 C.3   239  LEU239      0.1693
     80  C         14.5800  -21.3670  -49.1550 C.2   239  LEU239      0.2592
     81  O         13.5370  -21.2210  -49.7950 O.2   239  LEU239     -0.2718
     82  CB        13.5040  -22.4360  -47.1810 C.3   239  LEU239      0.0284
     83  CG        12.9680  -23.7560  -46.6270 C.3   239  LEU239      0.0019
     84  CD1       12.4890  -24.6230  -47.7630 C.3   239  LEU239      0.0001
     85  CD2       13.9470  -24.4980  -45.7730 C.3   239  LEU239      0.0001
     86  N         15.6240  -20.5550  -49.2870 N.am  240  ASP240     -0.1974
     87  CA        15.7260  -19.6130  -50.3890 C.3   240  ASP240      0.1709
     88  C         16.4090  -20.2400  -51.5910 C.2   240  ASP240      0.2293
     89  O         15.9540  -20.0670  -52.7250 O.2   240  ASP240     -0.2864
     90  CB        16.4830  -18.3660  -49.9450 C.3   240  ASP240      0.1436
     91  CG        15.6660  -17.5040  -49.0260 C.2   240  ASP240      0.3671
     92  OD1       14.4300  -17.4920  -49.1910 O.co2 240  ASP240     -0.2456
     93  OD2       16.2460  -16.8530  -48.1330 O.co2 240  ASP240     -0.2456
     94  N         10.6510  -15.5900  -51.7120 N.3   266  GLY266     -0.1210
     95  CA        10.0590  -16.3020  -50.5990 C.3   266  GLY266      0.1956
     96  C          8.9370  -17.2590  -50.9300 C.2   266  GLY266      0.2612
     97  O          7.7740  -16.9830  -50.6260 O.2   266  GLY266     -0.2717
     98  N          9.2640  -18.3740  -51.5720 N.am  267  GLY267     -0.1942
     99  CA         8.2780  -19.4060  -51.8150 C.3   267  GLY267      0.2014
    100  C          7.4570  -19.1630  -53.0590 C.2   267  GLY267      0.2638
    101  O          7.4900  -19.9630  -53.9940 O.2   267  GLY267     -0.2714
    102  N          6.7020  -18.0710  -53.0720 N.am  268  HIS268     -0.1973
    103  CA         5.9510  -17.6810  -54.2520 C.3   268  HIS268      0.1656
    104  C          6.9040  -17.2650  -55.3590 C.2   268  HIS268      0.2291
    105  O          7.9300  -16.6320  -55.1020 O.2   268  HIS268     -0.2864
    106  CB         5.0120  -16.5270  -53.9150 C.3   268  HIS268      0.0771
    107  CG         3.9500  -16.8840  -52.9280 C.ar  268  HIS268      0.0820
    108  ND1        2.7710  -17.4950  -53.2910 N.ar  268  HIS268     -0.2267
    109  CD2        3.9040  -16.7470  -51.5820 C.ar  268  HIS268      0.1154
    110  CE1        2.0290  -17.6870  -52.2160 C.ar  268  HIS268      0.1986
    111  NE2        2.6980  -17.2520  -51.1640 N.ar  268  HIS268     -0.2212
    112  N         -3.5790  -26.5710  -53.6200 N.3   341  LYS341     -0.1245
    113  CA        -3.2150  -26.5850  -52.2090 C.3   341  LYS341      0.1561
    114  C         -4.2110  -27.3920  -51.3960 C.2   341  LYS341      0.2260
    115  O         -3.8930  -27.8380  -50.2880 O.2   341  LYS341     -0.2867
    116  CB        -3.1150  -25.1610  -51.6620 C.3   341  LYS341      0.0271
    117  CG        -1.8620  -24.4020  -52.0800 C.3   341  LYS341      0.0035
    118  CD        -1.9370  -22.9450  -51.6560 C.3   341  LYS341      0.0206
    119  CE        -1.7970  -22.7840  -50.1620 C.3   341  LYS341      0.1093
    120  NZ        -0.4170  -23.0860  -49.7230 N.3   341  LYS341     -0.1314
    121  N          9.3160   -8.3440  -36.3210 N.3   453  ARG453     -0.1245
    122  CA         8.6180   -9.1410  -37.3200 C.3   453  ARG453      0.1563
    123  C          7.6420   -8.2000  -38.0070 C.2   453  ARG453      0.2260
    124  O          6.6440   -7.8090  -37.4020 O.2   453  ARG453     -0.2867
    125  CB         7.9060  -10.3170  -36.6520 C.3   453  ARG453      0.0307
    126  CG         7.0330  -11.2030  -37.5230 C.3   453  ARG453      0.0489
    127  CD         7.8260  -11.9730  -38.5510 C.3   453  ARG453      0.2205
    128  NE         7.0240  -12.9910  -39.2210 N.pl3 453  ARG453     -0.0865
    129  CZ         6.2230  -12.7620  -40.2560 C.cat 453  ARG453      0.5346
    130  NH1        5.5380  -13.7590  -40.7950 N.pl3 453  ARG453      0.1354
    131  NH2        6.0880  -11.5350  -40.7400 N.pl3 453  ARG453      0.1354
    132  N         15.8500  -13.2800  -43.2470 N.3   509  TYR509     -0.1241
    133  CA        14.8310  -13.2620  -44.3000 C.3   509  TYR509      0.1605
    134  C         14.2240  -11.8660  -44.4820 C.2   509  TYR509      0.2264
    135  O         13.1690  -11.5350  -43.9520 O.2   509  TYR509     -0.2867
    136  CB        13.7500  -14.3240  -44.0600 C.3   509  TYR509      0.0534
    137  CG        12.6980  -14.3550  -45.1360 C.ar  509  TYR509     -0.0201
    138  CD1       12.9770  -14.8660  -46.3920 C.ar  509  TYR509     -0.0009
    139  CD2       11.4200  -13.8840  -44.8870 C.ar  509  TYR509     -0.0009
    140  CE1       12.0140  -14.8900  -47.3680 C.ar  509  TYR509      0.0417
    141  CE2       10.4660  -13.8900  -45.8470 C.ar  509  TYR509      0.0417
    142  CZ        10.7550  -14.4010  -47.0790 C.ar  509  TYR509      0.1957
    143  OH         9.7570  -14.3970  -48.0130 O.3   509  TYR509     -0.2866
    144  N          9.9460  -11.3170  -48.9570 N.3   512  GLY512     -0.1210
    145  CA         8.8340  -10.8760  -49.7670 C.3   512  GLY512      0.1956
    146  C          8.3370   -9.5760  -49.1860 C.2   512  GLY512      0.2612
    147  O          8.9560   -8.5380  -49.4250 O.2   512  GLY512     -0.2717
    148  N          7.2330   -9.5810  -48.4530 N.am  513  ASP513     -0.1959
    149  CA         6.9690   -8.4220  -47.6190 C.3   513  ASP513      0.1840
    150  C          7.5560   -8.5660  -46.2210 C.2   513  ASP513      0.2622
    151  O          7.7220   -7.5610  -45.5300 O.2   513  ASP513     -0.2715
    152  CB         5.4640   -8.1230  -47.5550 C.3   513  ASP513      0.1450
    153  CG         4.6360   -9.2750  -47.0120 C.2   513  ASP513      0.3671
    154  OD1        5.1710  -10.3800  -46.7780 O.co2 513  ASP513     -0.2456
    155  OD2        3.4220   -9.0600  -46.8080 O.co2 513  ASP513     -0.2456
    156  N          7.9300   -9.7760  -45.8210 N.am  514  ASP514     -0.1971
    157  CA         8.3800  -10.0470  -44.4650 C.3   514  ASP514      0.1709
    158  C          9.8000   -9.5530  -44.2370 C.2   514  ASP514      0.2293
    159  O         10.6530   -9.6010  -45.1250 O.2   514  ASP514     -0.2864
    160  CB         8.3210  -11.5500  -44.1790 C.3   514  ASP514      0.1436
    161  CG         8.5200  -11.8950  -42.7020 C.2   514  ASP514      0.3671
    162  OD1        8.6220  -10.9860  -41.8510 O.co2 514  ASP514     -0.2456
    163  OD2        8.5810  -13.1030  -42.3840 O.co2 514  ASP514     -0.2456
@<TRIPOS>BOND
     1   104   105    2
     2   104   103    1
     3     1     2    1
     4   103   106    1
     5   103   102    1
     6   101   100    2
     7     2     5    1
     8     2     3    1
     9   106   107    1
    10     5     6    1
    11   112   113    1
    12   108   107   ar
    13   108   110   ar
    14   102   100   am
    15   100    99    1
    16     3     4    2
    17     3     9   am
    18   107   109   ar
    19    89    88    2
    20     9    10    1
    21     6     8   ar
    22     6     7   ar
    23   110   111   ar
    24   113   116    1
    25   113   114    1
    26   117   116    1
    27   117   118    1
    28    99    98    1
    29    94    95    1
    30   118   119    1
    31    88    87    1
    32   109   111   ar
    33    98    96   am
    34    10    13    1
    35    10    11    1
    36   114   115    2
    37    13    14    1
    38    96    97    2
    39    96    95    1
    40    15    14    1
    41    16    14    1
    42    87    90    1
    43    87    86    1
    44   119   120    1
    45    11    17   am
    46    11    12    2
    47    22    21    1
    48    17    18    1
    49    90    91    1
    50    81    80    2
    51   145   146    1
    52   145   144    1
    53   147   146    2
    54    86    80   am
    55    92    91   ar
    56   146   148   am
    57    80    79    1
    58    91    93   ar
    59    21    18    1
    60    18    19    1
    61   148   149    1
    62    79    78    1
    63    79    82    1
    64   143   142    1
    65    84    83    1
    66    20    19    2
    67   149   152    1
    68   149   150    1
    69    19    23   am
    70   152   153    1
    71   140   142   ar
    72   140   138   ar
    73    34    32    1
    74    82    83    1
    75   142   141   ar
    76   153   155   ar
    77   153   154   ar
    78    32    31    1
    79    83    85    1
    80    31    33    1
    81    31    28    1
    82    23    24    1
    83   138   137   ar
    84   150   156   am
    85   150   151    2
    86   141   139   ar
    87   156   157    1
    88    75    74    2
    89    27    28    1
    90    27    25   am
    91    28    29    1
    92    24    25    1
    93   137   139   ar
    94   137   136    1
    95   159   158    2
    96    25    26    2
    97    74    73    1
    98   134   133    1
    99   134   135    2
   100   157   158    1
   101   157   160    1
   102   133   136    1
   103   133   132    1
   104   160   161    1
   105    29    30    2
   106    29    35   am
   107    77    76    1
   108    73    76    1
   109    73    72    1
   110    35    36    1
   111    59    57    1
   112   161   163   ar
   113   161   162   ar
   114    57    56    1
   115    36    39    1
   116    36    37    1
   117    42    41    2
   118    39    40    1
   119    44    37   am
   120    44    45    1
   121    37    38    2
   122   130   129    1
   123   131   129    1
   124    41    40    1
   125    41    43   am
   126    56    58    1
   127    56    53    1
   128   129   128    2
   129    52    53    1
   130    51    49   ar
   131    48    45    1
   132    48    49    1
   133    46    45    1
   134    46    47    2
   135    53    54    1
   136    49    50   ar
   137    71    70    1
   138   128   127    1
   139    69    70   ar
   140    69    67   ar
   141    70    68   ar
   142   127   126    1
   143    54    60   am
   144    54    55    2
   145    67    65   ar
   146   123   124    2
   147   123   122    1
   148    60    61    1
   149   126   125    1
   150    68    66   ar
   151   122   125    1
   152   122   121    1
   153    65    66   ar
   154    65    64    1
   155    61    64    1
   156    61    62    1
   157    62    63    2
