@<TRIPOS>MOLECULE
tmp/6ifrA01.pdb
 173 167 0 0 0
SMALL
GASTEIGER

@<TRIPOS>ATOM
      1  N          9.2220  -12.8110  -60.4600 N.3   263  TYR263     -0.1241
      2  CA         9.2600  -12.7800  -59.0080 C.3   263  TYR263      0.1605
      3  C          9.7850  -14.1290  -58.5460 C.2   263  TYR263      0.2264
      4  O          9.4620  -15.1430  -59.1590 O.2   263  TYR263     -0.2867
      5  CB         7.8550  -12.5300  -58.4430 C.3   263  TYR263      0.0534
      6  CG         7.7770  -12.4320  -56.9470 C.ar  263  TYR263     -0.0201
      7  CD1        8.0180  -11.2360  -56.2940 C.ar  263  TYR263     -0.0009
      8  CD2        7.5050  -13.5500  -56.1920 C.ar  263  TYR263     -0.0009
      9  CE1        7.8880  -11.1140  -54.8710 C.ar  263  TYR263      0.0417
     10  CE2        7.4290  -13.4990  -54.8520 C.ar  263  TYR263      0.0417
     11  CZ         7.6480  -12.3350  -54.1770 C.ar  263  TYR263      0.1957
     12  OH         7.5400  -12.5170  -52.8060 O.3   263  TYR263     -0.2866
     13  N         10.5670  -14.0950  -54.7670 N.3   265  GLY265     -0.1225
     14  CA        10.7680  -13.8180  -53.3570 C.3   265  GLY265      0.1811
     15  C          9.9770  -14.6490  -52.3650 C.2   265  GLY265      0.2280
     16  O          8.7810  -14.4300  -52.1630 O.2   265  GLY265     -0.2866
     17  N          6.7020  -18.0710  -53.0720 N.3   268  HIS268     -0.1241
     18  CA         5.9510  -17.6810  -54.2520 C.3   268  HIS268      0.1621
     19  C          6.9040  -17.2650  -55.3590 C.2   268  HIS268      0.2264
     20  O          7.9300  -16.6320  -55.1020 O.2   268  HIS268     -0.2867
     21  CB         5.0120  -16.5270  -53.9150 C.3   268  HIS268      0.0745
     22  CG         3.9500  -16.8840  -52.9280 C.ar  268  HIS268      0.0817
     23  ND1        2.7710  -17.4950  -53.2910 N.ar  268  HIS268     -0.2268
     24  CD2        3.9040  -16.7470  -51.5820 C.ar  268  HIS268      0.1154
     25  CE1        2.0290  -17.6870  -52.2160 C.ar  268  HIS268      0.1986
     26  NE2        2.6980  -17.2520  -51.1640 N.ar  268  HIS268     -0.2212
     27  N          6.4660  -16.2120  -59.7560 N.3   270  TYR270     -0.1241
     28  CA         5.6860  -16.1330  -60.9780 C.3   270  TYR270      0.1605
     29  C          6.5940  -16.2730  -62.1890 C.2   270  TYR270      0.2264
     30  O          7.8080  -16.0810  -62.1080 O.2   270  TYR270     -0.2867
     31  CB         4.9200  -14.8150  -61.0530 C.3   270  TYR270      0.0534
     32  CG         3.8540  -14.6840  -60.0020 C.ar  270  TYR270     -0.0201
     33  CD1        2.6060  -15.2570  -60.1810 C.ar  270  TYR270     -0.0009
     34  CD2        4.1000  -13.9960  -58.8260 C.ar  270  TYR270     -0.0009
     35  CE1        1.6280  -15.1390  -59.2210 C.ar  270  TYR270      0.0417
     36  CE2        3.1300  -13.8720  -57.8590 C.ar  270  TYR270      0.0417
     37  CZ         1.8960  -14.4460  -58.0620 C.ar  270  TYR270      0.1957
     38  OH         0.9230  -14.3240  -57.0980 O.3   270  TYR270     -0.2866
     39  N          5.7150   -6.7540  -41.9380 N.3   455  ASP455     -0.1225
     40  CA         5.4000   -6.9980  -43.3390 C.3   455  ASP455      0.1805
     41  C          4.6490   -5.8130  -43.9290 C.2   455  ASP455      0.2598
     42  O          4.0370   -5.0190  -43.2140 O.2   455  ASP455     -0.2718
     43  CB         4.5970   -8.2930  -43.5600 C.3   455  ASP455      0.1424
     44  CG         3.2750   -8.3200  -42.8230 C.2   455  ASP455      0.3668
     45  OD1        3.0200   -7.4530  -41.9650 O.co2 455  ASP455     -0.2456
     46  OD2        2.4660   -9.2200  -43.1270 O.co2 455  ASP455     -0.2456
     47  N          4.7000   -5.7170  -45.2540 N.am  456  VAL456     -0.1966
     48  CA         4.0100   -4.6680  -45.9970 C.3   456  VAL456      0.1727
     49  C          2.5700   -5.0980  -46.2290 C.2   456  VAL456      0.2616
     50  O          2.3070   -6.2510  -46.5900 O.2   456  VAL456     -0.2715
     51  CB         4.7380   -4.3840  -47.3170 C.3   456  VAL456      0.0290
     52  CG1        3.9620   -3.4420  -48.1730 C.3   456  VAL456      0.0023
     53  CG2        6.0590   -3.7770  -47.0200 C.3   456  VAL456      0.0023
     54  N          1.6330   -4.1760  -45.9950 N.am  457  ASP457     -0.1957
     55  CA         0.2260   -4.5120  -45.8500 C.3   457  ASP457      0.1840
     56  C         -0.4580   -5.0400  -47.0980 C.2   457  ASP457      0.2622
     57  O         -0.6440   -6.2450  -47.2560 O.2   457  ASP457     -0.2715
     58  CB        -0.5180   -3.2640  -45.4120 C.3   457  ASP457      0.1450
     59  CG         0.0770   -2.6600  -44.1940 C.2   457  ASP457      0.3671
     60  OD1        0.6530   -3.4170  -43.3880 O.co2 457  ASP457     -0.2456
     61  OD2        0.0040   -1.4230  -44.0600 O.co2 457  ASP457     -0.2456
     62  N         -0.7930   -4.1510  -48.0120 N.am  458  ASP458     -0.1957
     63  CA        -1.5760   -4.5400  -49.1750 C.3   458  ASP458      0.1840
     64  C         -0.6690   -4.6830  -50.3890 C.2   458  ASP458      0.2622
     65  O         -0.8560   -4.0480  -51.4220 O.2   458  ASP458     -0.2715
     66  CB        -2.6960   -3.5370  -49.3970 C.3   458  ASP458      0.1450
     67  CG        -3.7080   -3.5700  -48.2740 C.2   458  ASP458      0.3671
     68  OD1       -3.9440   -4.6700  -47.7370 O.co2 458  ASP458     -0.2456
     69  OD2       -4.2270   -2.5010  -47.8880 O.co2 458  ASP458     -0.2456
     70  N          0.3380   -5.5390  -50.2380 N.am  459  LEU459     -0.1963
     71  CA         1.3240   -5.6860  -51.2970 C.3   459  LEU459      0.1728
     72  C          0.7670   -6.5270  -52.4340 C.2   459  LEU459      0.2616
     73  O          0.9030   -6.1690  -53.6060 O.2   459  LEU459     -0.2715
     74  CB         2.6110   -6.2850  -50.7390 C.3   459  LEU459      0.0311
     75  CG         3.7320   -6.4160  -51.7630 C.3   459  LEU459      0.0022
     76  CD1        4.0660   -5.0710  -52.3590 C.3   459  LEU459      0.0001
     77  CD2        4.9570   -7.0040  -51.1090 C.3   459  LEU459      0.0001
     78  N          0.1080   -7.6390  -52.1040 N.am  460  GLY460     -0.1955
     79  CA        -0.5500   -8.4250  -53.1310 C.3   460  GLY460      0.1869
     80  C         -1.7570   -7.7260  -53.7210 C.2   460  GLY460      0.2309
     81  O         -2.1310   -7.9840  -54.8670 O.2   460  GLY460     -0.2863
     82  N         -0.1300   -5.0410  -56.0440 N.3   463  PHE463     -0.1227
     83  CA         0.5150   -5.6820  -57.1820 C.3   463  PHE463      0.1736
     84  C         -0.4940   -5.9780  -58.2800 C.2   463  PHE463      0.2595
     85  O         -0.2760   -5.6370  -59.4470 O.2   463  PHE463     -0.2718
     86  CB         1.2110   -6.9620  -56.7270 C.3   463  PHE463      0.0547
     87  CG         1.8010   -7.7620  -57.8370 C.ar  463  PHE463     -0.0202
     88  CD1        2.9440   -7.3400  -58.4840 C.ar  463  PHE463     -0.0042
     89  CD2        1.2250   -8.9610  -58.2130 C.ar  463  PHE463     -0.0042
     90  CE1        3.4910   -8.0900  -59.5020 C.ar  463  PHE463     -0.0003
     91  CE2        1.7660   -9.7140  -59.2280 C.ar  463  PHE463     -0.0003
     92  CZ         2.9020   -9.2790  -59.8710 C.ar  463  PHE463     -0.0000
     93  N         -1.6160   -6.5950  -57.9190 N.am  464  MET464     -0.1979
     94  CA        -2.6080   -6.9970  -58.9060 C.3   464  MET464      0.1605
     95  C         -3.5800   -5.8620  -59.2090 C.2   464  MET464      0.2287
     96  O         -3.6540   -5.3860  -60.3460 O.2   464  MET464     -0.2864
     97  CB        -3.3500   -8.2370  -58.4060 C.3   464  MET464      0.0413
     98  CG        -2.4550   -9.4490  -58.2790 C.3   464  MET464      0.0598
     99  SD        -3.2990  -10.8990  -57.6370 S.3   464  MET464     -0.1393
    100  CE        -1.9320  -12.0480  -57.5330 C.3   464  MET464      0.0692
    101  N          7.0910   -2.9730  -60.6070 N.3   484  PHE484     -0.1227
    102  CA         6.6600   -2.8710  -59.2170 C.3   484  PHE484      0.1736
    103  C          7.1980   -4.0340  -58.4010 C.2   484  PHE484      0.2596
    104  O          7.7470   -3.8430  -57.3110 O.2   484  PHE484     -0.2718
    105  CB         5.1370   -2.8320  -59.1400 C.3   484  PHE484      0.0547
    106  CG         4.6050   -2.8120  -57.7410 C.ar  484  PHE484     -0.0202
    107  CD1        4.6510   -1.6560  -56.9900 C.ar  484  PHE484     -0.0042
    108  CD2        4.0550   -3.9520  -57.1770 C.ar  484  PHE484     -0.0042
    109  CE1        4.1600   -1.6370  -55.7040 C.ar  484  PHE484     -0.0003
    110  CE2        3.5690   -3.9370  -55.8890 C.ar  484  PHE484     -0.0003
    111  CZ         3.6200   -2.7770  -55.1540 C.ar  484  PHE484     -0.0000
    112  N          7.0360   -5.2510  -58.9160 N.am  485  SER485     -0.1952
    113  CA         7.5610   -6.4310  -58.2490 C.3   485  SER485      0.1924
    114  C          9.0760   -6.4550  -58.2340 C.2   485  SER485      0.2314
    115  O          9.6600   -7.0960  -57.3580 O.2   485  SER485     -0.2863
    116  CB         7.0410   -7.6910  -58.9270 C.3   485  SER485      0.2116
    117  OG         7.6080   -8.8370  -58.3320 O.3   485  SER485     -0.2180
    118  N         10.0460   -3.6830  -55.1840 N.3   488  MET488     -0.1230
    119  CA         9.9870   -4.2270  -53.8350 C.3   488  MET488      0.1702
    120  C         11.0380   -5.3030  -53.6200 C.2   488  MET488      0.2593
    121  O         11.6170   -5.3860  -52.5340 O.2   488  MET488     -0.2718
    122  CB         8.5970   -4.7830  -53.5500 C.3   488  MET488      0.0401
    123  CG         7.5250   -3.7280  -53.5090 C.3   488  MET488      0.0596
    124  SD         7.8580   -2.5560  -52.2000 S.3   488  MET488     -0.1393
    125  CE         6.5590   -1.3710  -52.4920 C.3   488  MET488      0.0692
    126  N         11.3030   -6.1290  -54.6340 N.am  489  SER489     -0.1952
    127  CA        12.3190   -7.1620  -54.4810 C.3   489  SER489      0.1924
    128  C         13.7160   -6.5680  -54.4330 C.2   489  SER489      0.2314
    129  O         14.5970   -7.1180  -53.7680 O.2   489  SER489     -0.2863
    130  CB        12.2180   -8.1820  -55.6120 C.3   489  SER489      0.2116
    131  OG        10.9880   -8.8820  -55.5580 O.3   489  SER489     -0.2180
    132  N         12.7170  -10.7720  -47.2160 N.3   511  GLY511     -0.1210
    133  CA        12.2750  -11.5320  -48.3710 C.3   511  GLY511      0.1956
    134  C         11.1850  -10.9310  -49.2290 C.2   511  GLY511      0.2612
    135  O         11.4490  -10.1400  -50.1360 O.2   511  GLY511     -0.2717
    136  N          9.9460  -11.3170  -48.9570 N.am  512  GLY512     -0.1942
    137  CA         8.8340  -10.8760  -49.7670 C.3   512  GLY512      0.2014
    138  C          8.3370   -9.5760  -49.1860 C.2   512  GLY512      0.2639
    139  O          8.9560   -8.5380  -49.4250 O.2   512  GLY512     -0.2714
    140  N          7.2330   -9.5810  -48.4530 N.am  513  ASP513     -0.1957
    141  CA         6.9690   -8.4220  -47.6190 C.3   513  ASP513      0.1840
    142  C          7.5560   -8.5660  -46.2210 C.2   513  ASP513      0.2622
    143  O          7.7220   -7.5610  -45.5300 O.2   513  ASP513     -0.2715
    144  CB         5.4640   -8.1230  -47.5550 C.3   513  ASP513      0.1450
    145  CG         4.6360   -9.2750  -47.0120 C.2   513  ASP513      0.3671
    146  OD1        5.1710  -10.3800  -46.7780 O.co2 513  ASP513     -0.2456
    147  OD2        3.4220   -9.0600  -46.8080 O.co2 513  ASP513     -0.2456
    148  N          7.9300   -9.7760  -45.8210 N.am  514  ASP514     -0.1971
    149  CA         8.3800  -10.0470  -44.4650 C.3   514  ASP514      0.1709
    150  C          9.8000   -9.5530  -44.2370 C.2   514  ASP514      0.2293
    151  O         10.6530   -9.6010  -45.1250 O.2   514  ASP514     -0.2864
    152  CB         8.3210  -11.5500  -44.1790 C.3   514  ASP514      0.1436
    153  CG         8.5200  -11.8950  -42.7020 C.2   514  ASP514      0.3671
    154  OD1        8.6220  -10.9860  -41.8510 O.co2 514  ASP514     -0.2456
    155  OD2        8.5810  -13.1030  -42.3840 O.co2 514  ASP514     -0.2456
    156  N         -1.7820   -5.6750  -37.4010 N.3   573  LYS573     -0.1245
    157  CA        -2.5490   -5.8430  -38.6250 C.3   573  LYS573      0.1561
    158  C         -4.0300   -5.5900  -38.4060 C.2   573  LYS573      0.2260
    159  O         -4.8250   -5.7850  -39.3270 O.2   573  LYS573     -0.2867
    160  CB        -2.3640   -7.2490  -39.1990 C.3   573  LYS573      0.0271
    161  CG        -0.9510   -7.6100  -39.6020 C.3   573  LYS573      0.0035
    162  CD        -0.4360   -6.7170  -40.6930 C.3   573  LYS573      0.0206
    163  CE        -1.1170   -7.0130  -41.9940 C.3   573  LYS573      0.1093
    164  NZ        -0.5210   -6.1960  -43.0610 N.3   573  LYS573     -0.1314
    165  N         -3.8280   -1.5270  -39.8910 N.3   577  LYS577     -0.1245
    166  CA        -2.7810   -2.2130  -40.6440 C.3   577  LYS577      0.1561
    167  C         -1.5410   -1.3450  -40.8360 C.2   577  LYS577      0.2260
    168  O         -0.5330   -1.8580  -41.2930 O.2   577  LYS577     -0.2867
    169  CB        -3.2350   -2.7450  -42.0200 C.3   577  LYS577      0.0271
    170  CG        -4.2490   -3.8610  -41.9460 C.3   577  LYS577      0.0035
    171  CD        -4.8020   -4.1880  -43.3150 C.3   577  LYS577      0.0206
    172  CE        -3.7680   -4.8770  -44.1720 C.3   577  LYS577      0.1093
    173  NZ        -4.3540   -5.3130  -45.4650 N.3   577  LYS577     -0.1314
@<TRIPOS>BOND
     1    29    30    2
     2    29    28    1
     3    31    28    1
     4    31    32    1
     5    28    27    1
     6   101   102    1
     7     1     2    1
     8    96    95    2
     9    33    32   ar
    10    33    35   ar
    11    32    34   ar
    12    92    90   ar
    13    92    91   ar
    14    90    88   ar
    15    85    84    2
    16    91    89   ar
    17    35    37   ar
    18   102   105    1
    19   102   103    1
    20    95    94    1
    21     4     3    2
    22   105   106    1
    23     2     3    1
    24     2     5    1
    25   116   117    1
    26   116   113    1
    27   112   103   am
    28   112   113    1
    29    94    97    1
    30    94    93    1
    31    34    36   ar
    32    88    87   ar
    33     5     6    1
    34    97    98    1
    35   103   104    2
    36    84    93   am
    37    84    83    1
    38    98    99    1
    39   113   114    1
    40   114   115    2
    41    89    87   ar
    42    37    36   ar
    43    37    38    1
    44    87    86    1
    45   106   108   ar
    46   106   107   ar
    47    99   100    1
    48    83    86    1
    49    83    82    1
    50   108   110   ar
    51   107   109   ar
    52     6     7   ar
    53     6     8   ar
    54     7     9   ar
    55     8    10   ar
    56   110   111   ar
    57   109   111   ar
    58   130   131    1
    59   130   127    1
    60    19    20    2
    61    19    18    1
    62   118   119    1
    63     9    11   ar
    64    81    80    2
    65    10    11   ar
    66    13    14    1
    67   126   127    1
    68   126   120   am
    69   127   128    1
    70   128   129    2
    71    18    21    1
    72    18    17    1
    73    11    12    1
    74    21    22    1
    75   119   120    1
    76   119   122    1
    77    80    79    1
    78   120   121    2
    79    73    72    2
    80   122   123    1
    81   123   124    1
    82    14    15    1
    83    23    22   ar
    84    23    25   ar
    85    79    78    1
    86    22    24   ar
    87   125   124    1
    88    72    78   am
    89    72    71    1
    90    15    16    2
    91    76    75    1
    92    25    26   ar
    93    75    77    1
    94    75    74    1
    95    24    26   ar
    96    65    64    2
    97    71    74    1
    98    71    70    1
    99    64    70   am
   100    64    63    1
   101   135   134    2
   102   137   138    1
   103   137   136    1
   104   139   138    2
   105    66    63    1
   106    66    67    1
   107   134   136   am
   108   134   133    1
   109   138   140   am
   110    63    62    1
   111   140   141    1
   112   133   132    1
   113    67    69   ar
   114    67    68   ar
   115    52    51    1
   116    62    56   am
   117   141   144    1
   118   141   142    1
   119   144   145    1
   120    51    53    1
   121    51    48    1
   122    57    56    2
   123    56    55    1
   124   145   147   ar
   125   145   146   ar
   126    50    49    2
   127    49    48    1
   128    49    54   am
   129   142   148   am
   130   142   143    2
   131    48    47    1
   132    54    55    1
   133    55    58    1
   134   148   149    1
   135   173   172    1
   136    58    59    1
   137    47    41   am
   138   151   150    2
   139   149   150    1
   140   149   152    1
   141    59    61   ar
   142    59    60   ar
   143   152   153    1
   144   172   171    1
   145    41    40    1
   146    41    42    2
   147    43    40    1
   148    43    44    1
   149    40    39    1
   150   171   170    1
   151    46    44   ar
   152   164   163    1
   153    44    45   ar
   154   153   155   ar
   155   153   154   ar
   156   169   170    1
   157   169   166    1
   158   163   162    1
   159   168   167    2
   160   167   166    1
   161   162   161    1
   162   166   165    1
   163   161   160    1
   164   159   158    2
   165   160   157    1
   166   157   158    1
   167   157   156    1
