@<TRIPOS>MOLECULE
tmp/6iftA00.pdb
 231 230 0 0 0
SMALL
GASTEIGER

@<TRIPOS>ATOM
      1  N         51.1230   18.9500    6.1520 N.3    26  LEU26      -0.1231
      2  CA        50.9290   18.0440    7.2800 C.3    26  LEU26       0.1693
      3  C         50.0170   16.8360    6.9600 C.2    26  LEU26       0.2593
      4  O         49.5150   16.2000    7.8630 O.2    26  LEU26      -0.2718
      5  CB        50.3890   18.7790    8.4960 C.3    26  LEU26       0.0284
      6  CG        51.2660   19.9690    9.0460 C.3    26  LEU26       0.0019
      7  CD1       50.6480   20.8520   10.1340 C.3    26  LEU26       0.0001
      8  CD2       52.6360   19.4840    9.4420 C.3    26  LEU26       0.0001
      9  N         49.7700   16.5840    5.7030 N.am   27  GLY27      -0.1942
     10  CA        48.9100   15.5070    5.2220 C.3    27  GLY27       0.2014
     11  C         47.5050   15.6070    5.8120 C.2    27  GLY27       0.2639
     12  O         46.9790   14.5940    6.2100 O.2    27  GLY27      -0.2714
     13  N         46.9290   16.8050    5.9270 N.am   28  GLN28      -0.1963
     14  CA        45.5960   16.9500    6.5220 C.3    28  GLN28       0.1733
     15  C         44.4170   16.6120    5.5460 C.2    28  GLN28       0.2616
     16  O         43.9850   17.4110    4.6950 O.2    28  GLN28      -0.2715
     17  CB        45.4460   18.3140    7.1630 C.3    28  GLN28       0.0408
     18  CG        46.5280   18.5740    8.2430 C.3    28  GLN28       0.0908
     19  CD        46.3670   19.8830    8.9820 C.2    28  GLN28       0.2608
     20  OE1       45.9430   20.8950    8.3870 O.2    28  GLN28      -0.2717
     21  NE2       46.7230   19.8880   10.2580 N.am   28  GLN28      -0.0878
     22  N         43.9010   15.3980    5.6920 N.am   29  ASN29      -0.1958
     23  CA        42.7470   14.9200    4.9580 C.3    29  ASN29       0.1819
     24  C         41.8420   14.2480    5.9610 C.2    29  ASN29       0.2621
     25  O         42.1790   13.2090    6.5040 O.2    29  ASN29      -0.2715
     26  CB        43.1890   13.9030    3.8830 C.3    29  ASN29       0.1195
     27  CG        44.1130   14.5130    2.8270 C.2    29  ASN29       0.2630
     28  OD1       43.6750   15.0710    1.7470 O.2    29  ASN29      -0.2716
     29  ND2       45.3830   14.4330    3.1190 N.am   29  ASN29      -0.0877
     30  N         40.7000   14.8370    6.2400 N.am   30  PHE30      -0.1960
     31  CA        39.8480   14.3830    7.3220 C.3    30  PHE30       0.1771
     32  C         38.7390   13.4480    6.8070 C.2    30  PHE30       0.2619
     33  O         38.1130   13.7160    5.8330 O.2    30  PHE30      -0.2715
     34  CB        39.2640   15.5900    8.0190 C.3    30  PHE30       0.0574
     35  CG        40.2550   16.4860    8.6580 C.ar   30  PHE30      -0.0200
     36  CD1       41.6070   16.1540    8.7940 C.ar   30  PHE30      -0.0042
     37  CD2       39.8320   17.6830    9.1760 C.ar   30  PHE30      -0.0042
     38  CE1       42.5030   17.0030    9.4150 C.ar   30  PHE30      -0.0003
     39  CE2       40.7100   18.5520    9.7970 C.ar   30  PHE30      -0.0003
     40  CZ        42.0550   18.2220    9.9260 C.ar   30  PHE30      -0.0000
     41  N         38.4710   12.3940    7.5430 N.am   31  LEU31      -0.1977
     42  CA        37.4620   11.4200    7.2470 C.3    31  LEU31       0.1596
     43  C         36.0800   11.9930    7.5430 C.2    31  LEU31       0.2287
     44  O         35.8590   12.5210    8.6290 O.2    31  LEU31      -0.2864
     45  CB        37.6770   10.1170    8.0760 C.3    31  LEU31       0.0297
     46  CG        38.6980    9.1880    7.4060 C.3    31  LEU31       0.0022
     47  CD1       39.3440    8.1940    8.4110 C.3    31  LEU31       0.0001
     48  CD2       38.0120    8.4950    6.2390 C.3    31  LEU31       0.0001
     49  N         46.4390    6.8050   18.9990 N.3    54  GLU54      -0.1231
     50  CA        46.0720    7.4370   17.7350 C.3    54  GLU54       0.1699
     51  C         47.1680    8.4840   17.3620 C.2    54  GLU54       0.2592
     52  O         47.6770    9.1940   18.2140 O.2    54  GLU54      -0.2718
     53  CB        44.6860    8.0500   17.8060 C.3    54  GLU54       0.0402
     54  CG        44.2440    8.4920   16.4390 C.3    54  GLU54       0.1161
     55  CD        43.0220    9.4420   16.3780 C.2    54  GLU54       0.3649
     56  OE1       42.5370    9.8880   17.4210 O.co2  54  GLU54      -0.2457
     57  OE2       42.4770    9.7050   15.2370 O.co2  54  GLU54      -0.2457
     58  N         47.5100    8.5040   16.0870 N.am   55  ILE55      -0.1966
     59  CA        48.3930    9.4750   15.4560 C.3    55  ILE55       0.1727
     60  C         47.5140   10.3250   14.5340 C.2    55  ILE55       0.2617
     61  O         46.8710    9.8270   13.5990 O.2    55  ILE55      -0.2715
     62  CB        49.4760    8.7860   14.6910 C.3    55  ILE55       0.0290
     63  CG1       50.3440    8.0040   15.6680 C.3    55  ILE55       0.0022
     64  CG2       50.3260    9.8030   13.9400 C.3    55  ILE55       0.0023
     65  CD1       51.1120    6.9080   15.0700 C.3    55  ILE55       0.0001
     66  N         47.5380   11.6190   14.7570 N.am   56  GLY56      -0.1941
     67  CA        46.9050   12.5510   13.8470 C.3    56  GLY56       0.1998
     68  C         45.3760   12.5760   13.9810 C.2    56  GLY56       0.2481
     69  O         44.6530   12.2540   13.0390 O.2    56  GLY56      -0.2729
     70  N         44.8890   12.9690   15.1520 N.am   57  PRO57      -0.2715
     71  CA        43.4180   13.0130   15.3810 C.3    57  PRO57       0.1536
     72  C         42.6230   13.9770   14.5170 C.2    57  PRO57       0.2599
     73  O         41.4220   13.7920   14.3400 O.2    57  PRO57      -0.2715
     74  CB        43.2890   13.3560   16.8600 C.3    57  PRO57       0.0310
     75  CG        44.5730   14.0890   17.2120 C.3    57  PRO57       0.0237
     76  CD        45.6530   13.4370   16.3210 C.3    57  PRO57       0.0939
     77  N         43.2570   15.0000   13.9490 N.am   58  GLY58      -0.1941
     78  CA        42.5110   15.9440   13.1100 C.3    58  GLY58       0.2014
     79  C         41.5230   16.7630   13.9510 C.2    58  GLY58       0.2638
     80  O         41.8890   17.2210   15.0250 O.2    58  GLY58      -0.2714
     81  N         40.2740   16.8770   13.5050 N.am   59  ILE59      -0.1977
     82  CA        39.1730   17.3840   14.3990 C.3    59  ILE59       0.1596
     83  C         38.4070   16.3480   15.1970 C.2    59  ILE59       0.2287
     84  O         37.4170   16.6560   15.8530 O.2    59  ILE59      -0.2864
     85  CB        38.1860   18.3480   13.6860 C.3    59  ILE59       0.0276
     86  CG1       37.4190   17.5800   12.6000 C.3    59  ILE59       0.0022
     87  CG2       38.9460   19.5190   13.1060 C.3    59  ILE59       0.0022
     88  CD1       36.2980   18.3350   11.9450 C.3    59  ILE59       0.0001
     89  N         37.5460   12.9260   14.1070 N.3    61  ALA61      -0.1231
     90  CA        36.5990   12.0040   13.4590 C.3    61  ALA61       0.1694
     91  C         36.7680   10.5140   13.8920 C.2    61  ALA61       0.2591
     92  O         35.7880    9.8400   14.2660 O.2    61  ALA61      -0.2718
     93  CB        36.6960   12.0710   11.9330 C.3    61  ALA61       0.0304
     94  N         38.0090   10.0240   13.8460 N.am   62  LEU62      -0.1980
     95  CA        38.3000    8.6840   14.2810 C.3    62  LEU62       0.1596
     96  C         38.3990    8.6220   15.7990 C.2    62  LEU62       0.2287
     97  O         38.0000    7.6440   16.4090 O.2    62  LEU62      -0.2864
     98  CB        39.5710    8.1550   13.6260 C.3    62  LEU62       0.0297
     99  CG        40.0500    6.7410   14.0350 C.3    62  LEU62       0.0022
    100  CD1       39.0730    5.6210   13.7400 C.3    62  LEU62       0.0001
    101  CD2       41.4700    6.4510   13.4910 C.3    62  LEU62       0.0001
    102  N         48.3500   11.7130   19.4310 N.3    76  PHE76      -0.1227
    103  CA        49.4640   12.6330   19.1810 C.3    76  PHE76       0.1736
    104  C         49.0570   13.5220   18.0430 C.2    76  PHE76       0.2595
    105  O         48.8420   13.0050   16.9270 O.2    76  PHE76      -0.2718
    106  CB        50.6710   11.8650   18.7590 C.3    76  PHE76       0.0547
    107  CG        51.2660   11.0660   19.8340 C.ar   76  PHE76      -0.0202
    108  CD1       52.0870   11.6730   20.7590 C.ar   76  PHE76      -0.0042
    109  CD2       50.9950    9.6940   19.9580 C.ar   76  PHE76      -0.0042
    110  CE1       52.6770   10.9250   21.7870 C.ar   76  PHE76      -0.0003
    111  CE2       51.5940    8.9470   20.9450 C.ar   76  PHE76      -0.0003
    112  CZ        52.4180    9.5440   21.8710 C.ar   76  PHE76      -0.0000
    113  N         48.9990   14.8170   18.2460 N.am   77  GLU77      -0.1965
    114  CA        48.7300   15.7170   17.1410 C.3    77  GLU77       0.1733
    115  C         49.8070   16.7800   17.0520 C.2    77  GLU77       0.2616
    116  O         50.1450   17.3980   18.0580 O.2    77  GLU77      -0.2715
    117  CB        47.4180   16.4120   17.3880 C.3    77  GLU77       0.0429
    118  CG        46.9710   17.4020   16.2800 C.3    77  GLU77       0.1163
    119  CD        47.0650   16.8640   14.8700 C.2    77  GLU77       0.3649
    120  OE1       46.3710   15.9030   14.5560 O.co2  77  GLU77      -0.2457
    121  OE2       47.8590   17.3770   14.0390 O.co2  77  GLU77      -0.2457
    122  N         50.3500   16.9960   15.8740 N.am   78  ILE78      -0.1963
    123  CA        51.4880   17.9550   15.6360 C.3    78  ILE78       0.1727
    124  C         51.0230   19.4110   15.4690 C.2    78  ILE78       0.2616
    125  O         51.7510   20.3640   15.7860 O.2    78  ILE78      -0.2715
    126  CB        52.2720   17.5270   14.3850 C.3    78  ILE78       0.0290
    127  CG1       53.6730   18.1820   14.3610 C.3    78  ILE78       0.0022
    128  CG2       51.4790   17.7570   13.1040 C.3    78  ILE78       0.0023
    129  CD1       54.5540   17.6530   13.2650 C.3    78  ILE78       0.0001
    130  N         49.7780   19.5750   15.0080 N.am   79  ASP79      -0.1971
    131  CA        49.2370   20.8960   14.6680 C.3    79  ASP79       0.1709
    132  C         48.5440   21.5640   15.8240 C.2    79  ASP79       0.2293
    133  O         47.4050   21.2530   16.1540 O.2    79  ASP79      -0.2864
    134  CB        48.3360   20.7560   13.4430 C.3    79  ASP79       0.1436
    135  CG        47.8220   22.0850   12.8920 C.2    79  ASP79       0.3671
    136  OD1       48.1890   23.1560   13.3920 O.co2  79  ASP79      -0.2456
    137  OD2       47.0130   22.0420   11.9560 O.co2  79  ASP79      -0.2456
    138  N         44.7450   22.5710   15.8870 N.3    82  LEU82      -0.1245
    139  CA        43.7090   21.5650   16.2150 C.3    82  LEU82       0.1561
    140  C         43.3860   21.3420   17.6940 C.2    82  LEU82       0.2260
    141  O         42.2930   20.8460   18.1060 O.2    82  LEU82      -0.2867
    142  CB        44.1410   20.2390   15.5770 C.3    82  LEU82       0.0270
    143  CG        44.0270   20.2470   14.0660 C.3    82  LEU82       0.0019
    144  CD1       44.7080   19.0230   13.4260 C.3    82  LEU82       0.0001
    145  CD2       42.5750   20.2240   13.6720 C.3    82  LEU82       0.0001
    146  N         52.4930   16.8800   19.8340 N.3   101  GLN101     -0.1231
    147  CA        53.8720   16.5490   19.4830 C.3   101  GLN101      0.1698
    148  C         54.0140   15.6010   18.2960 C.2   101  GLN101      0.2592
    149  O         53.2630   14.6340   18.1640 O.2   101  GLN101     -0.2718
    150  CB        54.6040   15.9720   20.6970 C.3   101  GLN101      0.0381
    151  CG        56.0980   15.7820   20.4890 C.3   101  GLN101      0.0905
    152  CD        56.6620   14.6470   21.3220 C.2   101  GLN101      0.2608
    153  OE1       55.9310   13.7550   21.7530 O.2   101  GLN101     -0.2717
    154  NE2       57.9690   14.6760   21.5520 N.am  101  GLN101     -0.0878
    155  N         54.9870   15.8900   17.4360 N.am  102  ASP102     -0.1960
    156  CA        55.2530   15.0510   16.2760 C.3   102  ASP102      0.1840
    157  C         55.5790   13.6570   16.7870 C.2   102  ASP102      0.2622
    158  O         56.5910   13.4520   17.4570 O.2   102  ASP102     -0.2715
    159  CB        56.4230   15.6070   15.4640 C.3   102  ASP102      0.1450
    160  CG        56.7980   14.7150   14.2970 C.2   102  ASP102      0.3671
    161  OD1       56.1670   13.6490   14.1350 O.co2 102  ASP102     -0.2456
    162  OD2       57.7230   15.0790   13.5420 O.co2 102  ASP102     -0.2456
    163  N         54.7170   12.6990   16.4690 N.am  103  VAL103     -0.1963
    164  CA        54.9020   11.3160   16.9420 C.3   103  VAL103      0.1727
    165  C         56.3120   10.7820   16.7020 C.2   103  VAL103      0.2616
    166  O         56.8270    9.9980   17.4990 O.2   103  VAL103     -0.2715
    167  CB        53.8300   10.3440   16.3800 C.3   103  VAL103      0.0290
    168  CG1       54.0240   10.0770   14.8860 C.3   103  VAL103      0.0023
    169  CG2       53.7450    9.0760   17.2160 C.3   103  VAL103      0.0023
    170  N         56.9540   11.2120   15.6170 N.am  104  LEU104     -0.1977
    171  CA        58.3300   10.7560   15.3580 C.3   104  LEU104      0.1596
    172  C         59.3730   11.2290   16.4270 C.2   104  LEU104      0.2287
    173  O         60.4490   10.6940   16.4450 O.2   104  LEU104     -0.2864
    174  CB        58.7880   11.2590   14.0040 C.3   104  LEU104      0.0297
    175  CG        58.0260   10.6850   12.8200 C.3   104  LEU104      0.0022
    176  CD1       58.5400   11.3090   11.5430 C.3   104  LEU104      0.0001
    177  CD2       58.1070    9.1810   12.7920 C.3   104  LEU104      0.0001
    178  N         44.3890    7.1740   11.0260 N.3   127  ASN127     -0.1225
    179  CA        44.4670    7.6300    9.6580 C.3   127  ASN127      0.1785
    180  C         45.7230    8.4540    9.5110 C.2   127  ASN127      0.2597
    181  O         45.7420    9.6260    9.8670 O.2   127  ASN127     -0.2718
    182  CB        43.1810    8.4130    9.3130 C.3   127  ASN127      0.1169
    183  CG        43.2020    9.0190    7.8760 C.2   127  ASN127      0.2627
    184  OD1       43.9310    8.5610    6.9760 O.2   127  ASN127     -0.2716
    185  ND2       42.4310   10.0910    7.6820 N.am  127  ASN127     -0.0877
    186  N         46.7740    7.8400    8.9760 N.am  128  LEU128     -0.1966
    187  CA        48.1040    8.4500    9.0120 C.3   128  LEU128      0.1713
    188  C         48.2660    9.5790    8.0150 C.2   128  LEU128      0.2458
    189  O         47.6860    9.4850    6.9020 O.2   128  LEU128     -0.2730
    190  CB        49.1950    7.4420    8.7330 C.3   128  LEU128      0.0310
    191  CG        49.3740    6.3130    9.7950 C.3   128  LEU128      0.0022
    192  CD1       50.3750    5.2020    9.4500 C.3   128  LEU128      0.0001
    193  CD2       49.6820    6.9190   11.1880 C.3   128  LEU128      0.0001
    194  N         49.0760   10.6010    8.3710 N.am  129  PRO129     -0.2716
    195  CA        49.5330   11.5720    7.3750 C.3   129  PRO129      0.1536
    196  C         50.4560   10.9150    6.3500 C.2   129  PRO129      0.2599
    197  O         51.4640   10.2290    6.7150 O.2   129  PRO129     -0.2715
    198  CB        50.2260   12.6210    8.1950 C.3   129  PRO129      0.0310
    199  CG        50.6540   11.9390    9.4210 C.3   129  PRO129      0.0237
    200  CD        49.7330   10.8080    9.6580 C.3   129  PRO129      0.0939
    201  N         50.0920   11.0670    5.0780 N.am  130  TYR130     -0.1960
    202  CA        50.7610   10.3020    4.0420 C.3   130  TYR130      0.1771
    203  C         52.1990   10.6640    3.8430 C.2   130  TYR130      0.2620
    204  O         52.9640    9.8030    3.6560 O.2   130  TYR130     -0.2715
    205  CB        49.9690   10.2640    2.7330 C.3   130  TYR130      0.0574
    206  CG        48.5590    9.5870    2.8510 C.ar  130  TYR130     -0.0198
    207  CD1       48.1250    8.9810    4.0600 C.ar  130  TYR130     -0.0009
    208  CD2       47.6900    9.4940    1.7170 C.ar  130  TYR130     -0.0009
    209  CE1       46.8610    8.4190    4.1830 C.ar  130  TYR130      0.0417
    210  CE2       46.4330    8.9110    1.8240 C.ar  130  TYR130      0.0417
    211  CZ        46.0330    8.3640    3.0720 C.ar  130  TYR130      0.1957
    212  OH        44.8090    7.7650    3.2450 O.3   130  TYR130     -0.2866
    213  N         52.6010   11.9060    4.0330 N.am  131  TYR131     -0.1960
    214  CA        54.0300   12.2610    3.9000 C.3   131  TYR131      0.1771
    215  C         55.0100   11.5350    4.8350 C.2   131  TYR131      0.2619
    216  O         56.1670   11.5090    4.5580 O.2   131  TYR131     -0.2715
    217  CB        54.2280   13.8100    3.9950 C.3   131  TYR131      0.0574
    218  CG        54.1950   14.3900    5.4040 C.ar  131  TYR131     -0.0198
    219  CD1       53.0020   14.4500    6.1350 C.ar  131  TYR131     -0.0009
    220  CD2       55.3600   14.8860    6.0200 C.ar  131  TYR131     -0.0009
    221  CE1       52.9620   14.9920    7.4030 C.ar  131  TYR131      0.0417
    222  CE2       55.3300   15.3960    7.3210 C.ar  131  TYR131      0.0417
    223  CZ        54.0930   15.4650    7.9980 C.ar  131  TYR131      0.1957
    224  OH        53.9810   15.9180    9.3000 O.3   131  TYR131     -0.2866
    225  N         54.5780   10.9380    5.9400 N.am  132  VAL132     -0.1977
    226  CA        55.5010   10.2540    6.8330 C.3   132  VAL132      0.1596
    227  C         54.9080    8.8700    7.3000 C.2   132  VAL132      0.2287
    228  O         55.2060    8.4090    8.3840 O.2   132  VAL132     -0.2864
    229  CB        55.8930   11.0900    8.1050 C.3   132  VAL132      0.0276
    230  CG1       56.9160   12.2180    7.8110 C.3   132  VAL132      0.0022
    231  CG2       54.6240   11.5690    8.8270 C.3   132  VAL132      0.0022
@<TRIPOS>BOND
     1   208   210   ar
     2   208   206   ar
     3    28    27    2
     4   210   211   ar
     5   205   206    1
     6   205   202    1
     7    27    29   am
     8    27    26    1
     9   206   207   ar
    10   211   212    1
    11   211   209   ar
    12   204   203    2
    13   203   213   am
    14   203   202    1
    15    26    23    1
    16   214   217    1
    17   214   213    1
    18   214   215    1
    19   217   218    1
    20   202   201    1
    21   207   209   ar
    22   216   215    2
    23    16    15    2
    24   215   225   am
    25    23    22    1
    26    23    24    1
    27   201   196   am
    28    10     9    1
    29    10    11    1
    30   218   220   ar
    31   218   219   ar
    32    15    22   am
    33    15    14    1
    34     9     3   am
    35    11    13   am
    36    11    12    2
    37    33    32    2
    38    13    14    1
    39   225   226    1
    40    24    30   am
    41    24    25    2
    42   220   222   ar
    43   219   221   ar
    44     1     2    1
    45    48    46    1
    46    30    31    1
    47   196   197    2
    48   196   195    1
    49    14    17    1
    50    32    31    1
    51    32    41   am
    52   226   227    1
    53   226   229    1
    54   189   188    2
    55     3     2    1
    56     3     4    2
    57   184   183    2
    58    17    18    1
    59    42    43    1
    60    42    41    1
    61    42    45    1
    62     2     5    1
    63   227   228    2
    64   222   223   ar
    65    31    34    1
    66   195   198    1
    67   195   194    1
    68   221   223   ar
    69    46    45    1
    70    46    47    1
    71    43    44    2
    72   185   183   am
    73   230   229    1
    74   183   182    1
    75   223   224    1
    76   188   194   am
    77   188   187    1
    78    34    35    1
    79   229   231    1
    80   198   199    1
    81    18    19    1
    82   194   200    1
    83    20    19    2
    84     5     6    1
    85    35    36   ar
    86    35    37   ar
    87   190   187    1
    88   190   191    1
    89    36    38   ar
    90   186   187    1
    91   186   180   am
    92    19    21   am
    93     6     8    1
    94     6     7    1
    95    37    39   ar
    96   182   179    1
    97    38    40   ar
    98   199   200    1
    99   192   191    1
   100   180   179    1
   101   180   181    2
   102   179   178    1
   103   191   193    1
   104    39    40   ar
   105   176   175    1
   106    93    90    1
   107    88    86    1
   108   137   135   ar
   109    86    85    1
   110   177   175    1
   111   175   174    1
   112   135   136   ar
   113   135   134    1
   114    69    68    2
   115   128   126    1
   116    87    85    1
   117    78    77    1
   118    78    79    1
   119   129   127    1
   120   144   143    1
   121   134   131    1
   122    90    91    1
   123    90    89    1
   124   101    99    1
   125    81    79   am
   126    81    82    1
   127   162   160   ar
   128    61    60    2
   129    98    99    1
   130    98    95    1
   131   145   143    1
   132    85    82    1
   133   100    99    1
   134    94    91   am
   135    94    95    1
   136    67    68    1
   137    67    66    1
   138    91    92    2
   139    64    62    1
   140    77    72   am
   141    79    80    2
   142    68    70   am
   143   174   171    1
   144   121   119   ar
   145   143   142    1
   146   161   160   ar
   147    95    96    1
   148   160   159    1
   149    73    72    2
   150   127   126    1
   151   126   123    1
   152    82    83    1
   153    72    71    1
   154    60    66   am
   155    60    59    1
   156   120   119   ar
   157   131   130    1
   158   131   132    1
   159    62    59    1
   160    62    63    1
   161   119   118    1
   162   168   167    1
   163   130   124   am
   164    65    63    1
   165    70    71    1
   166    70    76    1
   167    83    84    2
   168    57    55   ar
   169   171   170    1
   170   171   172    1
   171    71    74    1
   172    59    58    1
   173   159   156    1
   174   124   123    1
   175   124   125    2
   176   142   139    1
   177   170   165   am
   178   123   122    1
   179    96    97    2
   180   132   133    2
   181   122   115   am
   182   138   139    1
   183    58    51   am
   184   139   140    1
   185   156   157    1
   186   156   155    1
   187   118   117    1
   188    76    75    1
   189    55    54    1
   190    55    56   ar
   191   167   164    1
   192   167   169    1
   193   172   173    2
   194    54    53    1
   195   163   157   am
   196   163   164    1
   197   165   164    1
   198   165   166    2
   199   157   158    2
   200    74    75    1
   201   105   104    2
   202   115   114    1
   203   115   116    2
   204   114   117    1
   205   114   113    1
   206    51    50    1
   207    51    52    2
   208   155   148   am
   209   140   141    2
   210    50    53    1
   211    50    49    1
   212   104   113   am
   213   104   103    1
   214   149   148    2
   215   148   147    1
   216   106   103    1
   217   106   107    1
   218   103   102    1
   219   147   146    1
   220   147   150    1
   221   107   109   ar
   222   107   108   ar
   223   109   111   ar
   224   151   150    1
   225   151   152    1
   226   108   110   ar
   227   111   112   ar
   228   152   154   am
   229   152   153    2
   230   110   112   ar
