@<TRIPOS>MOLECULE
tmp/6ig0A00.pdb
 152 145 0 0 0
SMALL
GASTEIGER

@<TRIPOS>ATOM
      1  N          3.6810  -22.3120  -55.4980 N.3   227  ASP227     -0.1225
      2  CA         3.3670  -21.8930  -54.1450 C.3   227  ASP227      0.1805
      3  C          3.9120  -22.9620  -53.2220 C.2   227  ASP227      0.2598
      4  O          3.3760  -24.0700  -53.1770 O.2   227  ASP227     -0.2718
      5  CB         1.8580  -21.7380  -53.9650 C.3   227  ASP227      0.1424
      6  CG         1.4850  -21.0330  -52.6840 C.2   227  ASP227      0.3668
      7  OD1        2.3870  -20.6060  -51.9380 O.co2 227  ASP227     -0.2456
      8  OD2        0.2730  -20.9110  -52.4180 O.co2 227  ASP227     -0.2456
      9  N          4.9780  -22.6480  -52.5050 N.am  228  LEU228     -0.1966
     10  CA         5.5610  -23.6040  -51.5790 C.3   228  LEU228      0.1728
     11  C          4.7410  -23.5310  -50.2980 C.2   228  LEU228      0.2617
     12  O          4.6980  -22.4890  -49.6400 O.2   228  LEU228     -0.2715
     13  CB         7.0330  -23.3010  -51.3300 C.3   228  LEU228      0.0311
     14  CG         7.8040  -24.4340  -50.6640 C.3   228  LEU228      0.0022
     15  CD1        7.9030  -25.5820  -51.6310 C.3   228  LEU228      0.0001
     16  CD2        9.1750  -24.0000  -50.2240 C.3   228  LEU228      0.0001
     17  N          4.0600  -24.6200  -49.9670 N.am  229  SER229     -0.1936
     18  CA         3.1960  -24.6580  -48.8010 C.3   229  SER229      0.2055
     19  C          3.9500  -25.1900  -47.5960 C.2   229  SER229      0.2644
     20  O          4.9640  -25.8740  -47.7200 O.2   229  SER229     -0.2714
     21  CB         1.9770  -25.5310  -49.0680 C.3   229  SER229      0.2130
     22  OG         1.1920  -24.9950  -50.1110 O.3   229  SER229     -0.2179
     23  N          3.4310  -24.8750  -46.4170 N.am  230  GLY230     -0.1939
     24  CA         4.0170  -25.3850  -45.1940 C.3   230  GLY230      0.2014
     25  C          5.3300  -24.7440  -44.8220 C.2   230  GLY230      0.2639
     26  O          6.1860  -25.3970  -44.2190 O.2   230  GLY230     -0.2714
     27  N          5.5090  -23.4720  -45.1590 N.am  231  ILE231     -0.1963
     28  CA         6.7750  -22.8090  -44.8910 C.3   231  ILE231      0.1727
     29  C          6.9310  -22.4960  -43.4070 C.2   231  ILE231      0.2616
     30  O          7.9720  -22.7910  -42.8120 O.2   231  ILE231     -0.2715
     31  CB         6.8900  -21.5570  -45.7730 C.3   231  ILE231      0.0290
     32  CG1        7.0980  -21.9530  -47.2320 C.3   231  ILE231      0.0022
     33  CG2        8.0080  -20.6910  -45.3400 C.3   231  ILE231      0.0023
     34  CD1        7.0850  -20.7800  -48.1760 C.3   231  ILE231      0.0001
     35  N          5.8980  -21.9290  -42.7740 N.am  232  GLN232     -0.1977
     36  CA         6.0130  -21.5520  -41.3650 C.3   232  GLN232      0.1601
     37  C          5.9740  -22.7600  -40.4540 C.2   232  GLN232      0.2287
     38  O          6.5360  -22.7220  -39.3560 O.2   232  GLN232     -0.2864
     39  CB         4.9100  -20.5840  -40.9470 C.3   232  GLN232      0.0394
     40  CG         5.1680  -19.1670  -41.3530 C.3   232  GLN232      0.0908
     41  CD         5.0040  -18.9860  -42.8230 C.2   232  GLN232      0.2608
     42  OE1        5.9580  -18.6930  -43.5340 O.2   232  GLN232     -0.2717
     43  NE2        3.7860  -19.1750  -43.3030 N.am  232  GLN232     -0.0878
     44  N          9.7010  -23.4970  -40.8420 N.3   235  ILE235     -0.1231
     45  CA        10.6080  -22.5250  -40.2420 C.3   235  ILE235      0.1692
     46  C         10.3760  -22.4360  -38.7440 C.2   235  ILE235      0.2592
     47  O         11.3030  -22.6050  -37.9450 O.2   235  ILE235     -0.2718
     48  CB        10.4570  -21.1510  -40.9070 C.3   235  ILE235      0.0266
     49  CG1       10.9410  -21.2050  -42.3450 C.3   235  ILE235      0.0019
     50  CG2       11.2250  -20.1040  -40.1350 C.3   235  ILE235      0.0020
     51  CD1       10.7190  -19.9230  -43.0600 C.3   235  ILE235      0.0001
     52  N          9.1380  -22.1900  -38.3370 N.am  236  TYR236     -0.1976
     53  CA         8.8410  -22.0070  -36.9200 C.3   236  TYR236      0.1639
     54  C          8.4810  -23.3300  -36.2510 C.2   236  TYR236      0.2290
     55  O          7.4880  -23.4540  -35.5400 O.2   236  TYR236     -0.2864
     56  CB         7.7310  -20.9810  -36.7670 C.3   236  TYR236      0.0560
     57  CG         8.1180  -19.6310  -37.3140 C.ar  236  TYR236     -0.0198
     58  CD1        8.9070  -18.7640  -36.5760 C.ar  236  TYR236     -0.0009
     59  CD2        7.7060  -19.2300  -38.5750 C.ar  236  TYR236     -0.0009
     60  CE1        9.2720  -17.5290  -37.0770 C.ar  236  TYR236      0.0417
     61  CE2        8.0620  -17.9980  -39.0840 C.ar  236  TYR236      0.0417
     62  CZ         8.8460  -17.1530  -38.3320 C.ar  236  TYR236      0.1957
     63  OH         9.1990  -15.9270  -38.8420 O.3   236  TYR236     -0.2866
     64  N         14.9840  -20.5760  -42.9900 N.3   253  SER253     -0.1217
     65  CA        14.3820  -19.5650  -43.8390 C.3   253  SER253      0.1889
     66  C         15.2860  -19.1970  -44.9980 C.2   253  SER253      0.2288
     67  O         14.8270  -18.5670  -45.9540 O.2   253  SER253     -0.2866
     68  CB        14.0440  -18.3250  -43.0250 C.3   253  SER253      0.2089
     69  OG        13.2680  -17.4400  -43.8020 O.3   253  SER253     -0.2183
     70  N         14.7420  -22.6830  -47.4540 N.3   256  LEU256     -0.1231
     71  CA        13.5950  -22.5880  -48.3410 C.3   256  LEU256      0.1693
     72  C         13.7120  -21.4390  -49.3230 C.2   256  LEU256      0.2592
     73  O         12.9320  -21.3860  -50.2750 O.2   256  LEU256     -0.2718
     74  CB        12.3040  -22.4400  -47.5460 C.3   256  LEU256      0.0284
     75  CG        11.9380  -23.6070  -46.6360 C.3   256  LEU256      0.0019
     76  CD1       10.5990  -23.3330  -45.9930 C.3   256  LEU256      0.0001
     77  CD2       11.9280  -24.9230  -47.3770 C.3   256  LEU256      0.0001
     78  N         14.6470  -20.5160  -49.1100 N.am  257  ASP257     -0.1974
     79  CA        14.9090  -19.5020  -50.1200 C.3   257  ASP257      0.1709
     80  C         15.6810  -20.0960  -51.2900 C.2   257  ASP257      0.2293
     81  O         15.3840  -19.7930  -52.4500 O.2   257  ASP257     -0.2864
     82  CB        15.6740  -18.3380  -49.5000 C.3   257  ASP257      0.1436
     83  CG        15.6500  -17.0990  -50.3620 C.2   257  ASP257      0.3671
     84  OD1       14.9760  -17.1030  -51.4130 O.co2 257  ASP257     -0.2456
     85  OD2       16.3240  -16.1160  -49.9920 O.co2 257  ASP257     -0.2456
     86  N          9.0010  -15.6090  -50.8950 N.3   283  GLY283     -0.1210
     87  CA         8.8830  -16.6440  -49.8920 C.3   283  GLY283      0.1956
     88  C          8.0050  -17.7790  -50.3660 C.2   283  GLY283      0.2612
     89  O          6.8590  -17.9130  -49.9310 O.2   283  GLY283     -0.2717
     90  N          8.5240  -18.5950  -51.2730 N.am  284  GLY284     -0.1942
     91  CA         7.7790  -19.6980  -51.8370 C.3   284  GLY284      0.2014
     92  C          7.0110  -19.3610  -53.0900 C.2   284  GLY284      0.2638
     93  O          6.8710  -20.2030  -53.9770 O.2   284  GLY284     -0.2714
     94  N          6.4960  -18.1450  -53.1810 N.am  285  HIS285     -0.1973
     95  CA         5.7600  -17.7380  -54.3620 C.3   285  HIS285      0.1656
     96  C          6.7250  -17.2350  -55.4180 C.2   285  HIS285      0.2291
     97  O          7.6910  -16.5360  -55.1090 O.2   285  HIS285     -0.2864
     98  CB         4.7480  -16.6540  -54.0100 C.3   285  HIS285      0.0771
     99  CG         3.6930  -17.1140  -53.0580 C.ar  285  HIS285      0.0820
    100  ND1        3.8510  -17.0610  -51.6910 N.ar  285  HIS285     -0.2267
    101  CD2        2.4700  -17.6520  -53.2740 C.ar  285  HIS285      0.1154
    102  CE1        2.7690  -17.5410  -51.1050 C.ar  285  HIS285      0.1986
    103  NE2        1.9150  -17.9050  -52.0440 N.ar  285  HIS285     -0.2212
    104  N         -3.9210  -27.0410  -54.1730 N.3   358  LYS358     -0.1245
    105  CA        -3.5740  -27.0390  -52.7620 C.3   358  LYS358      0.1561
    106  C         -4.6300  -27.7090  -51.9080 C.2   358  LYS358      0.2260
    107  O         -4.4970  -27.7280  -50.6820 O.2   358  LYS358     -0.2867
    108  CB        -3.3660  -25.6080  -52.2670 C.3   358  LYS358      0.0271
    109  CG        -2.0420  -24.9700  -52.6550 C.3   358  LYS358      0.0035
    110  CD        -2.0150  -23.4920  -52.2840 C.3   358  LYS358      0.0206
    111  CE        -1.4770  -23.2480  -50.8780 C.3   358  LYS358      0.1093
    112  NZ        -2.4040  -23.6330  -49.7770 N.3   358  LYS358     -0.1314
    113  N          6.2350   -6.1430  -41.4820 N.3   499  ASP499     -0.1239
    114  CA         5.4230   -6.7260  -42.5410 C.3   499  ASP499      0.1674
    115  C          4.8130   -5.5850  -43.3340 C.2   499  ASP499      0.2266
    116  O          4.2390   -4.6660  -42.7500 O.2   499  ASP499     -0.2867
    117  CB         4.3270   -7.6420  -41.9700 C.3   499  ASP499      0.1410
    118  CG         3.6130   -8.4700  -43.0420 C.2   499  ASP499      0.3668
    119  OD1        3.8440   -8.2680  -44.2480 O.co2 499  ASP499     -0.2456
    120  OD2        2.8210   -9.3580  -42.6710 O.co2 499  ASP499     -0.2456
    121  N         15.9870  -12.9200  -40.9440 N.3   553  TYR553     -0.1241
    122  CA        15.4500  -13.0880  -42.2820 C.3   553  TYR553      0.1605
    123  C         14.8020  -11.8020  -42.7430 C.2   553  TYR553      0.2264
    124  O         14.1480  -11.1160  -41.9590 O.2   553  TYR553     -0.2867
    125  CB        14.4280  -14.2160  -42.3480 C.3   553  TYR553      0.0534
    126  CG        13.8730  -14.3820  -43.7310 C.ar  553  TYR553     -0.0201
    127  CD1       14.6780  -14.8420  -44.7660 C.ar  553  TYR553     -0.0009
    128  CD2       12.5530  -14.0690  -44.0130 C.ar  553  TYR553     -0.0009
    129  CE1       14.1780  -15.0020  -46.0410 C.ar  553  TYR553      0.0417
    130  CE2       12.0490  -14.2150  -45.2880 C.ar  553  TYR553      0.0417
    131  CZ        12.8620  -14.6900  -46.2920 C.ar  553  TYR553      0.1957
    132  OH        12.3590  -14.8420  -47.5580 O.3   553  TYR553     -0.2866
    133  N         12.6220  -11.0380  -46.3600 N.3   555  GLY555     -0.1225
    134  CA        12.2460  -11.5210  -47.6710 C.3   555  GLY555      0.1811
    135  C         10.8010  -11.2950  -48.0420 C.2   555  GLY555      0.2280
    136  O          9.8960  -11.5960  -47.2610 O.2   555  GLY555     -0.2866
    137  N          7.7750   -9.4860  -48.0110 N.3   557  ASP557     -0.1225
    138  CA         7.2560   -8.4640  -47.1190 C.3   557  ASP557      0.1805
    139  C          7.8780   -8.4940  -45.7380 C.2   557  ASP557      0.2597
    140  O          7.8770   -7.4700  -45.0540 O.2   557  ASP557     -0.2718
    141  CB         5.7430   -8.6240  -46.9630 C.3   557  ASP557      0.1424
    142  CG         5.3440  -10.0370  -46.5810 C.2   557  ASP557      0.3668
    143  OD1        6.2000  -10.9420  -46.6220 O.co2 557  ASP557     -0.2456
    144  OD2        4.1770  -10.2480  -46.2180 O.co2 557  ASP557     -0.2456
    145  N          8.3960   -9.6350  -45.3160 N.am  558  ASP558     -0.1974
    146  CA         8.6370   -9.9140  -43.9120 C.3   558  ASP558      0.1709
    147  C         10.0920   -9.6870  -43.5470 C.2   558  ASP558      0.2293
    148  O         10.9950  -10.0630  -44.2930 O.2   558  ASP558     -0.2864
    149  CB         8.2370  -11.3510  -43.5940 C.3   558  ASP558      0.1436
    150  CG         8.4150  -11.6930  -42.1420 C.2   558  ASP558      0.3671
    151  OD1        7.6390  -11.1760  -41.3120 O.co2 558  ASP558     -0.2456
    152  OD2        9.3190  -12.4950  -41.8330 O.co2 558  ASP558     -0.2456
@<TRIPOS>BOND
     1     1     2    1
     2    96    97    2
     3    96    95    1
     4    95    98    1
     5    95    94    1
     6   104   105    1
     7     2     5    1
     8     2     3    1
     9    98    99    1
    10    93    92    2
    11     5     6    1
    12   101    99   ar
    13   101   103   ar
    14     3     4    2
    15     3     9   am
    16    94    92   am
    17    92    91    1
    18    99   100   ar
    19   105   108    1
    20   105   106    1
    21     6     8   ar
    22     6     7   ar
    23   109   110    1
    24   109   108    1
    25     9    10    1
    26    81    80    2
    27   110   111    1
    28   103   102   ar
    29   106   107    2
    30    91    90    1
    31   100   102   ar
    32    15    14    1
    33    10    13    1
    34    10    11    1
    35    84    83   ar
    36    13    14    1
    37    80    79    1
    38    90    88   am
    39    86    87    1
    40   111   112    1
    41    14    16    1
    42    88    89    2
    43    88    87    1
    44    83    85   ar
    45    83    82    1
    46    11    17   am
    47    11    12    2
    48    73    72    2
    49    79    82    1
    50    79    78    1
    51    22    21    1
    52    17    18    1
    53    72    78   am
    54    72    71    1
    55    21    18    1
    56    18    19    1
    57    71    74    1
    58    71    70    1
    59    34    32    1
    60   135   134    1
    61   135   136    2
    62   137   138    1
    63    20    19    2
    64   134   133    1
    65    19    23   am
    66   132   131    1
    67    74    75    1
    68    77    75    1
    69    32    31    1
    70   138   141    1
    71   138   139    1
    72   141   142    1
    73    75    76    1
    74   143   142   ar
    75   142   144   ar
    76    23    24    1
    77   131   129   ar
    78   131   130   ar
    79   129   127   ar
    80    67    66    2
    81    31    33    1
    82    31    28    1
    83   139   145   am
    84   139   140    2
    85   145   146    1
    86   130   128   ar
    87    24    25    1
    88    27    28    1
    89    27    25   am
    90    66    65    1
    91    28    29    1
    92    25    26    2
    93   127   126   ar
    94   148   147    2
    95   119   118   ar
    96   128   126   ar
    97   146   149    1
    98   146   147    1
    99    65    68    1
   100    65    64    1
   101    69    68    1
   102   126   125    1
   103   149   150    1
   104    42    41    2
   105    29    30    2
   106    29    35   am
   107   115   116    2
   108   115   114    1
   109    43    41   am
   110    51    49    1
   111   118   120   ar
   112   118   117    1
   113    41    40    1
   114    35    36    1
   115   123   122    1
   116   123   124    2
   117   114   117    1
   118   114   113    1
   119   125   122    1
   120    49    48    1
   121   122   121    1
   122   150   152   ar
   123   150   151   ar
   124    36    39    1
   125    36    37    1
   126    40    39    1
   127    48    45    1
   128    48    50    1
   129    44    45    1
   130    37    38    2
   131    45    46    1
   132    61    59   ar
   133    61    62   ar
   134    63    62    1
   135    46    52   am
   136    46    47    2
   137    59    57   ar
   138    52    53    1
   139    62    60   ar
   140    57    56    1
   141    57    58   ar
   142    60    58   ar
   143    53    56    1
   144    53    54    1
   145    54    55    2
