@<TRIPOS>MOLECULE
tmp/6ig7A00.pdb
 76 72 0 0 0
SMALL
GASTEIGER

@<TRIPOS>ATOM
      1  N         56.3490   34.9340   -6.5800 N.3   130  PHE130     -0.1241
      2  CA        57.0170   36.2160   -6.6120 C.3   130  PHE130      0.1605
      3  C         58.1310   36.1560   -7.6320 C.2   130  PHE130      0.2264
      4  O         58.6850   35.0940   -7.9040 O.2   130  PHE130     -0.2867
      5  CB        57.6580   36.6010   -5.2700 C.3   130  PHE130      0.0534
      6  CG        56.7040   37.0220   -4.2310 C.ar  130  PHE130     -0.0203
      7  CD1       56.2950   38.3250   -4.1580 C.ar  130  PHE130     -0.0042
      8  CD2       56.2510   36.1240   -3.2860 C.ar  130  PHE130     -0.0042
      9  CE1       55.4310   38.7220   -3.1770 C.ar  130  PHE130     -0.0003
     10  CE2       55.3920   36.5130   -2.3220 C.ar  130  PHE130     -0.0003
     11  CZ        54.9870   37.8150   -2.2610 C.ar  130  PHE130     -0.0000
     12  N         61.9170   40.4880   -5.0320 N.3   133  LEU133     -0.1245
     13  CA        60.9680   41.3460   -4.3480 C.3   133  LEU133      0.1561
     14  C         61.3740   42.7930   -4.4110 C.2   133  LEU133      0.2260
     15  O         60.5280   43.6790   -4.2420 O.2   133  LEU133     -0.2867
     16  CB        60.7790   40.8860   -2.9000 C.3   133  LEU133      0.0270
     17  CG        59.7160   39.7690   -2.8780 C.3   133  LEU133      0.0019
     18  CD1       60.3900   38.4430   -3.1040 C.3   133  LEU133      0.0001
     19  CD2       58.9040   39.7660   -1.6480 C.3   133  LEU133      0.0001
     20  N         57.2450   47.3670   -1.8730 N.3   139  VAL139     -0.1245
     21  CA        57.9540   46.4040   -1.0250 C.3   139  VAL139      0.1561
     22  C         59.1740   47.0490   -0.3700 C.2   139  VAL139      0.2260
     23  O         59.3810   46.9570    0.8520 O.2   139  VAL139     -0.2867
     24  CB        58.3580   45.1710   -1.8550 C.3   139  VAL139      0.0252
     25  CG1       59.1810   44.1700   -1.0230 C.3   139  VAL139      0.0019
     26  CG2       57.1090   44.5010   -2.4250 C.3   139  VAL139      0.0019
     27  N         58.0950   49.5090    2.0620 N.3   142  HIS142     -0.1226
     28  CA        57.5310   48.7730    3.1860 C.3   142  HIS142      0.1752
     29  C         58.6220   48.3250    4.1490 C.2   142  HIS142      0.2595
     30  O         58.5450   48.5680    5.3580 O.2   142  HIS142     -0.2718
     31  CB        56.7710   47.5740    2.6380 C.3   142  HIS142      0.0759
     32  CG        56.2420   46.6630    3.6900 C.ar  142  HIS142      0.0818
     33  ND1       54.9000   46.6040    4.0400 N.ar  142  HIS142     -0.2268
     34  CD2       56.8750   45.7570    4.4710 C.ar  142  HIS142      0.1154
     35  CE1       54.7430   45.7100    5.0060 C.ar  142  HIS142      0.1986
     36  NE2       55.9260   45.1900    5.2920 N.ar  142  HIS142     -0.2212
     37  N         59.6670   47.6890    3.6300 N.am  143  GLU143     -0.1979
     38  CA        60.6970   47.1750    4.5190 C.3   143  GLU143      0.1602
     39  C         61.5080   48.3130    5.1240 C.2   143  GLU143      0.2287
     40  O         61.8630   48.2780    6.3130 O.2   143  GLU143     -0.2864
     41  CB        61.6110   46.2220    3.7670 C.3   143  GLU143      0.0415
     42  CG        60.9220   45.0460    3.1190 C.3   143  GLU143      0.1163
     43  CD        60.1730   44.2160    4.1200 C.2   143  GLU143      0.3649
     44  OE1       60.4080   44.4200    5.3390 O.co2 143  GLU143     -0.2457
     45  OE2       59.3690   43.3670    3.7040 O.co2 143  GLU143     -0.2457
     46  N         49.4170   46.3290   -2.4200 N.3   188  ILE188     -0.1231
     47  CA        50.7680   46.0440   -1.9510 C.3   188  ILE188      0.1692
     48  C         51.3610   44.9060   -2.7660 C.2   188  ILE188      0.2592
     49  O         50.8370   43.7890   -2.7740 O.2   188  ILE188     -0.2718
     50  CB        50.7750   45.6910   -0.4570 C.3   188  ILE188      0.0266
     51  CG1       50.2550   46.8610    0.3570 C.3   188  ILE188      0.0019
     52  CG2       52.1550   45.2800    0.0080 C.3   188  ILE188      0.0020
     53  CD1       50.9170   48.1690    0.0910 C.3   188  ILE188      0.0001
     54  N         52.4980   45.1690   -3.4010 N.am  189  GLY189     -0.1957
     55  CA        53.2650   44.1030   -3.9870 C.3   189  GLY189      0.1869
     56  C         52.8570   43.7130   -5.3780 C.2   189  GLY189      0.2309
     57  O         53.4000   42.7470   -5.9080 O.2   189  GLY189     -0.2863
     58  N         49.4200   41.2450   -3.1380 N.3   202  LEU202     -0.1231
     59  CA        49.5610   40.4850   -1.9150 C.3   202  LEU202      0.1693
     60  C         48.5330   40.9280   -0.8900 C.2   202  LEU202      0.2591
     61  O         47.9520   40.1040   -0.1730 O.2   202  LEU202     -0.2718
     62  CB        50.9780   40.6810   -1.4030 C.3   202  LEU202      0.0284
     63  CG        51.4140   39.9000   -0.1940 C.3   202  LEU202      0.0019
     64  CD1       51.2150   38.4190   -0.4110 C.3   202  LEU202      0.0001
     65  CD2       52.8960   40.2480    0.0110 C.3   202  LEU202      0.0001
     66  N         48.3490   42.2340   -0.7910 N.am  203  ARG203     -0.1980
     67  CA        47.3810   42.8530    0.0870 C.3   203  ARG203      0.1597
     68  C         46.7670   44.0250   -0.6400 C.2   203  ARG203      0.2287
     69  O         47.3890   44.6260   -1.5080 O.2   203  ARG203     -0.2864
     70  CB        48.0190   43.3640    1.3630 C.3   203  ARG203      0.0334
     71  CG        48.5240   42.2840    2.2560 C.3   203  ARG203      0.0492
     72  CD        48.9570   42.8500    3.5530 C.3   203  ARG203      0.2205
     73  NE        50.2140   43.5610    3.5140 N.pl3 203  ARG203     -0.0865
     74  CZ        51.4240   42.9900    3.5120 C.cat 203  ARG203      0.5346
     75  NH1       51.5580   41.6750    3.4940 N.pl3 203  ARG203      0.1354
     76  NH2       52.5130   43.7520    3.5320 N.pl3 203  ARG203      0.1354
@<TRIPOS>BOND
     1     4     3    2
     2     3     2    1
     3     2     1    1
     4     2     5    1
     5    57    56    2
     6    56    55    1
     7     5     6    1
     8    12    13    1
     9    14    13    1
    10    14    15    2
    11    13    16    1
    12     6     7   ar
    13     6     8   ar
    14     7     9   ar
    15    55    54    1
    16    54    48   am
    17     8    10   ar
    18     9    11   ar
    19    58    59    1
    20    18    17    1
    21    16    17    1
    22    17    19    1
    23    49    48    2
    24    48    47    1
    25    26    24    1
    26    46    47    1
    27    10    11   ar
    28    47    50    1
    29    59    62    1
    30    59    60    1
    31    20    21    1
    32    24    21    1
    33    24    25    1
    34    69    68    2
    35    62    63    1
    36    21    22    1
    37    60    66   am
    38    60    61    2
    39    66    67    1
    40    68    67    1
    41    50    52    1
    42    50    51    1
    43    64    63    1
    44    22    23    2
    45    63    65    1
    46    67    70    1
    47    53    51    1
    48    70    71    1
    49    27    28    1
    50    71    72    1
    51    31    28    1
    52    31    32    1
    53    42    41    1
    54    42    43    1
    55    28    29    1
    56    75    74    1
    57    74    73    2
    58    74    76    1
    59    73    72    1
    60    37    29   am
    61    37    38    1
    62    32    33   ar
    63    32    34   ar
    64    45    43   ar
    65    41    38    1
    66    33    35   ar
    67    43    44   ar
    68    29    30    2
    69    34    36   ar
    70    38    39    1
    71    35    36   ar
    72    39    40    2
