@<TRIPOS>MOLECULE
tmp/6igkA07.pdb
 91 86 0 0 0
SMALL
GASTEIGER

@<TRIPOS>ATOM
      1  N          8.5090   32.0000  122.7860 N.3   190  TRP190     -0.1241
      2  CA         7.9750   32.8730  121.7400 C.3   190  TRP190      0.1605
      3  C          7.1600   34.0140  122.3400 C.2   190  TRP190      0.2264
      4  O          7.1760   35.1370  121.8160 O.2   190  TRP190     -0.2867
      5  CB         7.1280   32.0730  120.7430 C.3   190  TRP190      0.0550
      6  CG         7.9130   31.0480  119.9590 C.ar  190  TRP190      0.0003
      7  CD1        7.7590   29.6890  119.9940 C.ar  190  TRP190      0.0946
      8  CD2        8.9770   31.3070  119.0280 C.ar  190  TRP190      0.0152
      9  NE1        8.6560   29.0890  119.1370 N.ar  190  TRP190     -0.2442
     10  CE2        9.4180   30.0590  118.5380 C.ar  190  TRP190      0.0810
     11  CE3        9.6020   32.4740  118.5690 C.ar  190  TRP190      0.0012
     12  CZ2       10.4510   29.9430  117.6090 C.ar  190  TRP190      0.0191
     13  CZ3       10.6280   32.3590  117.6470 C.ar  190  TRP190      0.0001
     14  CH2       11.0390   31.1040  117.1740 C.ar  190  TRP190      0.0015
     15  N          9.7860   36.4930  123.5760 N.3   193  PHE193     -0.1241
     16  CA        10.4030   37.1600  122.4360 C.3   193  PHE193      0.1605
     17  C          9.4530   38.1800  121.8120 C.2   193  PHE193      0.2264
     18  O          9.8690   39.2830  121.4320 O.2   193  PHE193     -0.2867
     19  CB        10.8360   36.1020  121.4170 C.3   193  PHE193      0.0534
     20  CG        11.4550   36.6670  120.1750 C.ar  193  PHE193     -0.0203
     21  CD1       12.6270   37.4020  120.2460 C.ar  193  PHE193     -0.0042
     22  CD2       10.8690   36.4570  118.9380 C.ar  193  PHE193     -0.0042
     23  CE1       13.2050   37.9290  119.0980 C.ar  193  PHE193     -0.0003
     24  CE2       11.4420   36.9740  117.7920 C.ar  193  PHE193     -0.0003
     25  CZ        12.6160   37.7030  117.8700 C.ar  193  PHE193     -0.0000
     26  N         10.2590   41.6800  123.8260 N.3   197  PHE197     -0.1227
     27  CA        11.3690   42.1570  123.0110 C.3   197  PHE197      0.1736
     28  C         10.8720   42.8340  121.7370 C.2   197  PHE197      0.2595
     29  O         11.0680   44.0400  121.5570 O.2   197  PHE197     -0.2718
     30  CB        12.3190   41.0160  122.6650 C.3   197  PHE197      0.0547
     31  CG        13.5790   41.4630  121.9740 C.ar  197  PHE197     -0.0202
     32  CD1       14.6010   42.0620  122.6950 C.ar  197  PHE197     -0.0042
     33  CD2       13.7450   41.2750  120.6090 C.ar  197  PHE197     -0.0042
     34  CE1       15.7750   42.4930  122.0650 C.ar  197  PHE197     -0.0003
     35  CE2       14.9200   41.6780  119.9710 C.ar  197  PHE197     -0.0003
     36  CZ        15.9390   42.3010  120.7070 C.ar  197  PHE197     -0.0000
     37  N         10.2240   42.0700  120.8530 N.am  198  CYS198     -0.1970
     38  CA         9.7800   42.6210  119.5750 C.3   198  CYS198      0.1712
     39  C          8.7540   43.7340  119.7620 C.2   198  CYS198      0.2296
     40  O          8.8540   44.7900  119.1200 O.2   198  CYS198     -0.2864
     41  CB         9.2020   41.5110  118.7020 C.3   198  CYS198      0.0983
     42  SG        10.4700   40.3510  118.1300 S.3   198  CYS198     -0.0798
     43  N         10.2740   46.9640  121.2070 N.3   201  LEU201     -0.1231
     44  CA        11.1260   47.5370  120.1710 C.3   201  LEU201      0.1693
     45  C         10.2910   48.2190  119.0970 C.2   201  LEU201      0.2591
     46  O         10.5900   49.3510  118.6980 O.2   201  LEU201     -0.2718
     47  CB        12.0190   46.4720  119.5450 C.3   201  LEU201      0.0284
     48  CG        13.2160   46.0560  120.3890 C.3   201  LEU201      0.0019
     49  CD1       14.1220   45.1160  119.5850 C.3   201  LEU201      0.0001
     50  CD2       13.9760   47.2860  120.8530 C.3   201  LEU201      0.0001
     51  N          9.2080   47.5710  118.6570 N.am  202  ALA202     -0.1980
     52  CA         8.3480   48.1960  117.6570 C.3   202  ALA202      0.1597
     53  C          7.6910   49.4640  118.2080 C.2   202  ALA202      0.2287
     54  O          7.6060   50.4820  117.5130 O.2   202  ALA202     -0.2864
     55  CB         7.2910   47.2030  117.1730 C.3   202  ALA202      0.0319
     56  N         10.3950   52.3040  118.6940 N.3   205  ALA205     -0.1245
     57  CA        10.8590   52.7590  117.3840 C.3   205  ALA205      0.1562
     58  C          9.7880   53.5780  116.6800 C.2   205  ALA205      0.2260
     59  O         10.0950   54.5640  115.9950 O.2   205  ALA205     -0.2867
     60  CB        11.2660   51.5660  116.5130 C.3   205  ALA205      0.0290
     61  N         18.9690   40.8910  123.1930 N.3   405  LEU405     -0.1245
     62  CA        18.9300   39.9660  122.0660 C.3   405  LEU405      0.1561
     63  C         19.6010   38.6330  122.3890 C.2   405  LEU405      0.2260
     64  O         19.0130   37.5860  122.0660 O.2   405  LEU405     -0.2867
     65  CB        19.5450   40.6200  120.8260 C.3   405  LEU405      0.0270
     66  CG        19.5580   39.6890  119.6060 C.3   405  LEU405      0.0019
     67  CD1       18.1530   39.5360  119.0340 C.3   405  LEU405      0.0001
     68  CD2       20.5320   40.1480  118.5490 C.3   405  LEU405      0.0001
     69  N         17.8450   34.9020  121.6620 N.3   409  LEU409     -0.1245
     70  CA        18.4180   34.0090  120.6650 C.3   409  LEU409      0.1561
     71  C         18.8080   32.6690  121.2830 C.2   409  LEU409      0.2260
     72  O         18.6550   31.6250  120.6440 O.2   409  LEU409     -0.2867
     73  CB        19.6350   34.6490  120.0030 C.3   409  LEU409      0.0270
     74  CG        19.3410   35.8540  119.1010 C.3   409  LEU409      0.0019
     75  CD1       20.6070   36.3310  118.4180 C.3   409  LEU409      0.0001
     76  CD2       18.2800   35.5130  118.0760 C.3   409  LEU409      0.0001
     77  N         15.5950   30.6810  121.6670 N.3   412  ILE412     -0.1245
     78  CA        15.0680   30.3460  120.3430 C.3   412  ILE412      0.1561
     79  C         15.9000   29.2560  119.6770 C.2   412  ILE412      0.2260
     80  O         15.3670   28.4200  118.9330 O.2   412  ILE412     -0.2867
     81  CB        15.0140   31.6050  119.4530 C.3   412  ILE412      0.0252
     82  CG1       14.0080   32.6260  119.9970 C.3   412  ILE412      0.0019
     83  CG2       14.6970   31.2330  118.0010 C.3   412  ILE412      0.0019
     84  CD1       12.7190   32.0210  120.4860 C.3   412  ILE412      0.0001
     85  N         14.5830   25.6650  118.2170 N.3   416  THR416     -0.1218
     86  CA        14.6400   25.3510  116.7970 C.3   416  THR416      0.1862
     87  C         15.6680   24.2790  116.4540 C.2   416  THR416      0.2287
     88  O         15.5150   23.6070  115.4320 O.2   416  THR416     -0.2866
     89  CB        14.9290   26.6160  115.9870 C.3   416  THR416      0.1770
     90  OG1       16.1650   27.2030  116.4200 O.3   416  THR416     -0.2211
     91  CG2       13.8000   27.6310  116.1600 C.3   416  THR416      0.0375
@<TRIPOS>BOND
     1    88    87    2
     2    89    91    1
     3    89    90    1
     4    89    86    1
     5    59    58    2
     6    87    86    1
     7    60    57    1
     8    58    57    1
     9    86    85    1
    10    55    52    1
    11    14    12   ar
    12    14    13   ar
    13    57    56    1
    14    54    53    2
    15    12    10   ar
    16    13    11   ar
    17    52    53    1
    18    52    51    1
    19    24    25   ar
    20    24    22   ar
    21    25    23   ar
    22    83    81    1
    23    76    74    1
    24    42    41    1
    25    75    74    1
    26    10     8   ar
    27    10     9   ar
    28    68    66    1
    29    11     8   ar
    30    51    45   am
    31    46    45    2
    32    41    38    1
    33    80    79    2
    34    22    20   ar
    35     8     6   ar
    36    67    66    1
    37    45    44    1
    38    23    21   ar
    39    74    73    1
    40    40    39    2
    41     9     7   ar
    42    81    82    1
    43    81    78    1
    44    47    44    1
    45    47    48    1
    46    38    39    1
    47    38    37    1
    48    49    48    1
    49    66    65    1
    50    79    78    1
    51     6     7   ar
    52     6     5    1
    53    35    33   ar
    54    35    36   ar
    55    82    84    1
    56    73    70    1
    57    44    43    1
    58    20    21   ar
    59    20    19    1
    60    78    77    1
    61    48    50    1
    62    33    31   ar
    63    72    71    2
    64    70    71    1
    65    70    69    1
    66    36    34   ar
    67     5     2    1
    68    65    62    1
    69    37    28   am
    70    19    16    1
    71    18    17    2
    72    29    28    2
    73    28    27    1
    74     2     3    1
    75     2     1    1
    76    17    16    1
    77     4     3    2
    78    31    30    1
    79    31    32   ar
    80    34    32   ar
    81    64    63    2
    82    62    63    1
    83    62    61    1
    84    16    15    1
    85    30    27    1
    86    27    26    1
