@<TRIPOS>MOLECULE
tmp/6igkA02.pdb
 89 83 0 0 0
SMALL
GASTEIGER

@<TRIPOS>ATOM
      1  N         35.2640   25.2800  133.7220 N.3    13  GLU13      -0.1245
      2  CA        35.5880   26.1840  134.8190 C.3    13  GLU13       0.1567
      3  C         36.1090   27.5350  134.3220 C.2    13  GLU13       0.2260
      4  O         35.8420   28.5660  134.9480 O.2    13  GLU13      -0.2867
      5  CB        36.6160   25.5310  135.7490 C.3    13  GLU13       0.0388
      6  CG        36.7240   26.2210  137.1000 C.3    13  GLU13       0.1160
      7  CD        36.5880   25.2560  138.2670 C.2    13  GLU13       0.3649
      8  OE1       37.4360   24.3450  138.3890 O.co2  13  GLU13      -0.2457
      9  OE2       35.6250   25.4050  139.0550 O.co2  13  GLU13      -0.2457
     10  N         33.2730   29.6360  133.8360 N.3    16  LYS16      -0.1231
     11  CA        32.6940   30.0370  135.1160 C.3    16  LYS16       0.1693
     12  C         33.4420   31.2120  135.7160 C.2    16  LYS16       0.2592
     13  O         32.8260   32.1000  136.3200 O.2    16  LYS16      -0.2718
     14  CB        32.6940   28.8740  136.1050 C.3    16  LYS16       0.0285
     15  CG        31.6950   27.7770  135.7670 C.3    16  LYS16       0.0035
     16  CD        31.7500   26.6630  136.8030 C.3    16  LYS16       0.0206
     17  CE        30.7760   25.5390  136.4130 C.3    16  LYS16       0.1093
     18  NZ        30.5050   24.6280  137.5590 N.3    16  LYS16      -0.1314
     19  N         34.7760   31.2230  135.5950 N.am   17  TYR17      -0.1976
     20  CA        35.5440   32.3440  136.1300 C.3    17  TYR17       0.1639
     21  C         35.1890   33.6400  135.4220 C.2    17  TYR17       0.2290
     22  O         34.9390   34.6630  136.0720 O.2    17  TYR17      -0.2864
     23  CB        37.0420   32.0880  136.0070 C.3    17  TYR17       0.0560
     24  CG        37.6680   31.5430  137.2600 C.ar   17  TYR17      -0.0198
     25  CD1       38.1780   32.3900  138.2300 C.ar   17  TYR17      -0.0009
     26  CD2       37.7530   30.1730  137.4710 C.ar   17  TYR17      -0.0009
     27  CE1       38.7610   31.8850  139.3820 C.ar   17  TYR17       0.0417
     28  CE2       38.3300   29.6580  138.6160 C.ar   17  TYR17       0.0417
     29  CZ        38.8330   30.5160  139.5670 C.ar   17  TYR17       0.1957
     30  OH        39.4070   29.9960  140.7050 O.3    17  TYR17      -0.2866
     31  N         31.5430   34.8570  136.0690 N.3    20  THR20      -0.1203
     32  CA        31.2930   35.3360  137.4270 C.3    20  THR20       0.1994
     33  C         31.9220   36.7090  137.6660 C.2    20  THR20       0.2617
     34  O         31.3440   37.5460  138.3750 O.2    20  THR20      -0.2717
     35  CB        31.7970   34.3120  138.4470 C.3    20  THR20       0.1784
     36  OG1       31.0520   33.0950  138.2990 O.3    20  THR20      -0.2211
     37  CG2       31.6200   34.8180  139.8610 C.3    20  THR20       0.0376
     38  N         33.1010   36.9650  137.0870 N.am   21  VAL21      -0.1979
     39  CA        33.6730   38.3110  137.1580 C.3    21  VAL21       0.1595
     40  C         32.7270   39.3130  136.5110 C.2    21  VAL21       0.2287
     41  O         32.4380   40.3790  137.0760 O.2    21  VAL21      -0.2864
     42  CB        35.0650   38.3490  136.5030 C.3    21  VAL21       0.0276
     43  CG1       35.5810   39.8100  136.4150 C.3    21  VAL21       0.0022
     44  CG2       36.0430   37.4940  137.2990 C.3    21  VAL21       0.0022
     45  N         29.6910   39.9090  138.7680 N.3    24  CYS24      -0.1221
     46  CA        29.9500   40.7540  139.9310 C.3    24  CYS24       0.1808
     47  C         30.0760   42.2260  139.5380 C.2    24  CYS24       0.2601
     48  O         29.6160   43.1080  140.2700 O.2    24  CYS24      -0.2717
     49  CB        31.2110   40.2830  140.6510 C.3    24  CYS24       0.0970
     50  SG        31.0370   38.6370  141.3900 S.3    24  CYS24      -0.0800
     51  N         30.6960   42.5070  138.3890 N.am   25  LEU25      -0.1979
     52  CA        30.8270   43.8840  137.9210 C.3    25  LEU25       0.1596
     53  C         29.4670   44.4790  137.5790 C.2    25  LEU25       0.2287
     54  O         29.1400   45.5910  138.0080 O.2    25  LEU25      -0.2864
     55  CB        31.7530   43.9360  136.7070 C.3    25  LEU25       0.0297
     56  CG        33.2270   43.6570  136.9720 C.3    25  LEU25       0.0022
     57  CD1       33.9450   43.3680  135.6600 C.3    25  LEU25       0.0001
     58  CD2       33.8630   44.8350  137.6950 C.3    25  LEU25       0.0001
     59  N         27.5490   45.0710  140.9900 N.3    28  VAL28      -0.1231
     60  CA        27.9950   46.1940  141.8090 C.3    28  VAL28       0.1692
     61  C         27.7040   47.5090  141.0990 C.2    28  VAL28       0.2591
     62  O         27.1400   48.4460  141.6750 O.2    28  VAL28      -0.2718
     63  CB        29.4950   46.0670  142.1350 C.3    28  VAL28       0.0266
     64  CG1       30.0120   47.3740  142.7810 C.3    28  VAL28       0.0020
     65  CG2       29.7690   44.8760  143.0470 C.3    28  VAL28       0.0020
     66  N         28.0930   47.5960  139.8320 N.am   29  LEU29      -0.1980
     67  CA        27.8750   48.8140  139.0750 C.3    29  LEU29       0.1596
     68  C         26.3900   49.1000  138.8850 C.2    29  LEU29       0.2287
     69  O         25.9710   50.2620  138.9200 O.2    29  LEU29      -0.2864
     70  CB        28.6000   48.7140  137.7360 C.3    29  LEU29       0.0297
     71  CG        30.1220   48.7010  137.9060 C.3    29  LEU29       0.0022
     72  CD1       30.7980   48.7750  136.5520 C.3    29  LEU29       0.0001
     73  CD2       30.5810   49.8450  138.8000 C.3    29  LEU29       0.0001
     74  N         24.8590   50.4760  142.2630 N.3    32  ILE32      -0.1245
     75  CA        25.3010   51.8400  142.5470 C.3    32  ILE32       0.1561
     76  C         24.6520   52.8260  141.5790 C.2    32  ILE32       0.2260
     77  O         24.0860   53.8430  141.9940 O.2    32  ILE32      -0.2867
     78  CB        26.8340   51.9350  142.4960 C.3    32  ILE32       0.0252
     79  CG1       27.4600   51.0980  143.6140 C.3    32  ILE32       0.0019
     80  CG2       27.2770   53.3970  142.6000 C.3    32  ILE32       0.0019
     81  CD1       28.9560   50.9350  143.4900 C.3    32  ILE32       0.0001
     82  N         27.8700   28.1600  140.0530 N.3    78  LEU78      -0.1245
     83  CA        28.9910   27.6820  140.8540 C.3    78  LEU78       0.1561
     84  C         28.6380   26.4810  141.7270 C.2    78  LEU78       0.2260
     85  O         29.4950   25.6240  141.9570 O.2    78  LEU78      -0.2867
     86  CB        29.5170   28.8160  141.7310 C.3    78  LEU78       0.0270
     87  CG        29.9480   30.0680  140.9490 C.3    78  LEU78       0.0019
     88  CD1       30.4630   31.1600  141.8870 C.3    78  LEU78       0.0001
     89  CD2       30.9970   29.7010  139.8900 C.3    78  LEU78       0.0001
@<TRIPOS>BOND
     1     1     2    1
     2    10    11    1
     3     3     2    1
     4     3     4    2
     5     2     5    1
     6    11    12    1
     7    11    14    1
     8    21    22    2
     9    21    20    1
    10    19    12   am
    11    19    20    1
    12    57    56    1
    13    12    13    2
    14     5     6    1
    15    15    14    1
    16    15    16    1
    17    23    20    1
    18    23    24    1
    19    31    32    1
    20    17    16    1
    21    17    18    1
    22    43    42    1
    23    42    39    1
    24    42    44    1
    25    40    41    2
    26    40    39    1
    27    72    71    1
    28    55    56    1
    29    55    52    1
    30    56    58    1
    31    38    39    1
    32    38    33   am
    33     6     7    1
    34    24    26   ar
    35    24    25   ar
    36    32    33    1
    37    32    35    1
    38    26    28   ar
    39    53    52    1
    40    53    54    2
    41    33    34    2
    42    70    71    1
    43    70    67    1
    44    71    73    1
    45    52    51    1
    46    25    27   ar
    47     7     8   ar
    48     7     9   ar
    49    36    35    1
    50    51    47   am
    51    35    37    1
    52    28    29   ar
    53    45    46    1
    54    68    69    2
    55    68    67    1
    56    67    66    1
    57    27    29   ar
    58    47    46    1
    59    47    48    2
    60    29    30    1
    61    66    61   am
    62    89    87    1
    63    46    49    1
    64    82    83    1
    65    49    50    1
    66    83    84    1
    67    83    86    1
    68    87    86    1
    69    87    88    1
    70    59    60    1
    71    61    62    2
    72    61    60    1
    73    76    77    2
    74    76    75    1
    75    84    85    2
    76    60    63    1
    77    63    64    1
    78    63    65    1
    79    74    75    1
    80    78    75    1
    81    78    80    1
    82    78    79    1
    83    81    79    1
