@<TRIPOS>MOLECULE
tmp/6igkA10.pdb
 101 91 0 0 0
SMALL
GASTEIGER

@<TRIPOS>ATOM
      1  N         18.5310   61.9000  121.6090 N.3   391  LYS391     -0.1245
      2  CA        19.6410   60.9970  121.9100 C.3   391  LYS391      0.1561
      3  C         19.3200   60.0970  123.0970 C.2   391  LYS391      0.2260
      4  O         19.7560   58.9400  123.1430 O.2   391  LYS391     -0.2867
      5  CB        20.9170   61.7950  122.1780 C.3   391  LYS391      0.0271
      6  CG        21.5110   62.4330  120.9430 C.3   391  LYS391      0.0035
      7  CD        22.5130   63.5310  121.3100 C.3   391  LYS391      0.0206
      8  CE        23.0010   64.2780  120.0700 C.3   391  LYS391      0.1093
      9  NZ        23.7820   65.5080  120.4030 N.3   391  LYS391     -0.1314
     10  N         19.3370   56.0950  122.5560 N.3   395  CYS395     -0.1235
     11  CA        20.3500   55.3240  123.2640 C.3   395  CYS395      0.1677
     12  C         19.7220   54.2880  124.1840 C.2   395  CYS395      0.2270
     13  O         20.1740   53.1390  124.2200 O.2   395  CYS395     -0.2867
     14  CB        21.2610   56.2600  124.0520 C.3   395  CYS395      0.0956
     15  SG        22.4100   57.1550  122.9790 S.3   395  CYS395     -0.0801
     16  N         20.4180   50.2620  123.4670 N.3   399  VAL399     -0.1245
     17  CA        21.0810   49.4120  124.4470 C.3   399  VAL399      0.1561
     18  C         20.1430   48.3090  124.9250 C.2   399  VAL399      0.2260
     19  O         20.5990   47.2010  125.2130 O.2   399  VAL399     -0.2867
     20  CB        21.6340   50.2220  125.6350 C.3   399  VAL399      0.0252
     21  CG1       22.6230   51.2840  125.1530 C.3   399  VAL399      0.0019
     22  CG2       20.5150   50.8400  126.4490 C.3   399  VAL399      0.0019
     23  N         20.2800   45.5580  122.0990 N.3   402  LEU402     -0.1231
     24  CA        21.5320   44.8170  122.0320 C.3   402  LEU402      0.1693
     25  C         21.7210   43.9350  123.2600 C.2   402  LEU402      0.2592
     26  O         22.2410   42.8220  123.1520 O.2   402  LEU402     -0.2718
     27  CB        22.7110   45.7780  121.8850 C.3   402  LEU402      0.0284
     28  CG        22.7880   46.6040  120.5940 C.3   402  LEU402      0.0019
     29  CD1       23.8930   47.6610  120.6960 C.3   402  LEU402      0.0001
     30  CD2       22.9900   45.7180  119.3650 C.3   402  LEU402      0.0001
     31  N         21.3170   44.4190  124.4340 N.am  403  CYS403     -0.1970
     32  CA        21.5600   43.6780  125.6620 C.3   403  CYS403      0.1712
     33  C         20.6510   42.4650  125.7880 C.2   403  CYS403      0.2296
     34  O         21.0600   41.4470  126.3540 O.2   403  CYS403     -0.2864
     35  CB        21.3470   44.5820  126.8740 C.3   403  CYS403      0.0983
     36  SG        22.7360   45.7050  127.1700 S.3   403  CYS403     -0.0798
     37  N         20.7940   38.5850  123.0130 N.3   406  PRO406     -0.2116
     38  CA        21.4560   37.2800  123.1910 C.3   406  PRO406      0.1372
     39  C         20.6420   36.2670  123.9850 C.2   406  PRO406      0.2244
     40  O         20.6490   35.0780  123.6430 O.2   406  PRO406     -0.2868
     41  CB        22.7630   37.6530  123.9070 C.3   406  PRO406      0.0268
     42  CG        23.0700   39.0710  123.3820 C.3   406  PRO406      0.0207
     43  CD        21.6970   39.7050  123.3610 C.3   406  PRO406      0.0892
     44  N         24.1020   39.7440  129.9110 N.3   442  MET442     -0.1245
     45  CA        23.8450   40.8610  129.0060 C.3   442  MET442      0.1570
     46  C         22.5290   41.5420  129.3410 C.2   442  MET442      0.2261
     47  O         22.4200   42.7780  129.2860 O.2   442  MET442     -0.2867
     48  CB        23.8590   40.3690  127.5570 C.3   442  MET442      0.0387
     49  CG        25.2300   39.8710  127.1010 C.3   442  MET442      0.0595
     50  SD        26.4790   41.1850  127.1530 S.3   442  MET442     -0.1393
     51  CE        27.3580   40.8660  128.6830 C.3   442  MET442      0.0692
     52  N         23.1850   43.5990  132.1980 N.3   445  LEU445     -0.1245
     53  CA        23.9840   44.7470  131.8050 C.3   445  LEU445      0.1561
     54  C         23.0970   45.8940  131.3190 C.2   445  LEU445      0.2260
     55  O         23.4510   47.0610  131.4940 O.2   445  LEU445     -0.2867
     56  CB        24.9890   44.3390  130.7290 C.3   445  LEU445      0.0270
     57  CG        25.8590   45.4930  130.2030 C.3   445  LEU445      0.0019
     58  CD1       26.8200   45.9820  131.2870 C.3   445  LEU445      0.0001
     59  CD2       26.5980   45.1020  128.9360 C.3   445  LEU445      0.0001
     60  N         23.2720   49.5210  132.5370 N.3   449  ALA449     -0.1245
     61  CA        23.6720   50.5000  131.5250 C.3   449  ALA449      0.1562
     62  C         22.7840   51.7340  131.4760 C.2   449  ALA449      0.2260
     63  O         23.2470   52.7990  131.0440 O.2   449  ALA449     -0.2867
     64  CB        23.6640   49.8720  130.1270 C.3   449  ALA449      0.0290
     65  N         24.1220   54.7740  133.0800 N.3   452  ILE452     -0.1231
     66  CA        25.3150   55.2440  132.3810 C.3   452  ILE452      0.1692
     67  C         24.9280   55.9990  131.1150 C.2   452  ILE452      0.2591
     68  O         25.4830   57.0610  130.8120 O.2   452  ILE452     -0.2718
     69  CB        26.2550   54.0590  132.0850 C.3   452  ILE452      0.0266
     70  CG1       26.6680   53.3730  133.3930 C.3   452  ILE452      0.0019
     71  CG2       27.4940   54.5310  131.3070 C.3   452  ILE452      0.0020
     72  CD1       27.4910   52.0950  133.2060 C.3   452  ILE452      0.0001
     73  N         23.9540   55.4800  130.3710 N.am  453  ALA453     -0.1980
     74  CA        23.4880   56.1790  129.1830 C.3   453  ALA453      0.1597
     75  C         22.9720   57.5750  129.5300 C.2   453  ALA453      0.2287
     76  O         23.2840   58.5450  128.8330 O.2   453  ALA453     -0.2864
     77  CB        22.4110   55.3480  128.4840 C.3   453  ALA453      0.0319
     78  N         25.8000   60.0250  130.1730 N.3   456  LEU456     -0.1231
     79  CA        26.5530   60.4620  129.0040 C.3   456  LEU456      0.1693
     80  C         25.7390   61.3290  128.0580 C.2   456  LEU456      0.2591
     81  O         26.3150   62.1210  127.3030 O.2   456  LEU456     -0.2718
     82  CB        27.0790   59.2500  128.2360 C.3   456  LEU456      0.0284
     83  CG        27.9920   58.2950  129.0050 C.3   456  LEU456      0.0019
     84  CD1       28.2830   57.0670  128.1630 C.3   456  LEU456      0.0001
     85  CD2       29.2770   59.0070  129.4040 C.3   456  LEU456      0.0001
     86  N         24.4180   61.1970  128.0830 N.am  457  VAL457     -0.1980
     87  CA        23.5520   61.8260  127.0940 C.3   457  VAL457      0.1595
     88  C         22.9450   63.1120  127.6450 C.2   457  VAL457      0.2287
     89  O         22.7470   64.0860  126.9100 O.2   457  VAL457     -0.2864
     90  CB        22.4630   60.8250  126.6510 C.3   457  VAL457      0.0276
     91  CG1       21.1480   61.5010  126.5220 C.3   457  VAL457      0.0022
     92  CG2       22.8410   60.1740  125.3360 C.3   457  VAL457      0.0022
     93  N         23.0430   66.3580  130.0830 N.3   459  LYS459     -0.1245
     94  CA        23.8890   67.2330  130.8900 C.3   459  LYS459      0.1561
     95  C         23.3510   67.3620  132.3120 C.2   459  LYS459      0.2260
     96  O         24.1220   67.4080  133.2760 O.2   459  LYS459     -0.2867
     97  CB        24.0030   68.6130  130.2330 C.3   459  LYS459      0.0271
     98  CG        24.7680   68.5990  128.9210 C.3   459  LYS459      0.0035
     99  CD        26.2740   68.5980  129.1760 C.3   459  LYS459      0.0206
    100  CE        27.0920   68.2360  127.9390 C.3   459  LYS459      0.1093
    101  NZ        27.1030   66.7560  127.6820 N.3   459  LYS459     -0.1314
@<TRIPOS>BOND
     1    30    28    1
     2     8     9    1
     3     8     7    1
     4    28    29    1
     5    28    27    1
     6     6     7    1
     7     6     5    1
     8     1     2    1
     9    27    24    1
    10     2     5    1
    11     2     3    1
    12    24    23    1
    13    24    25    1
    14    10    11    1
    15    15    14    1
    16    37    38    1
    17    37    43    1
    18     3     4    2
    19    26    25    2
    20    38    41    1
    21    38    39    1
    22    25    31   am
    23    11    14    1
    24    11    12    1
    25    43    42    1
    26    42    41    1
    27    16    17    1
    28    40    39    2
    29    12    13    2
    30    31    32    1
    31    17    18    1
    32    17    20    1
    33    18    19    2
    34    21    20    1
    35    92    90    1
    36    20    22    1
    37    32    33    1
    38    32    35    1
    39    33    34    2
    40    91    90    1
    41    90    87    1
    42    35    36    1
    43    89    88    2
    44    87    88    1
    45    87    86    1
    46    49    50    1
    47    49    48    1
    48    50    51    1
    49    81    80    2
    50    48    45    1
    51   101   100    1
    52   100    99    1
    53    80    86   am
    54    80    79    1
    55    84    83    1
    56    82    79    1
    57    82    83    1
    58    77    74    1
    59    76    75    2
    60    98    99    1
    61    98    97    1
    62    59    57    1
    63    79    78    1
    64    83    85    1
    65    45    46    1
    66    45    44    1
    67    74    75    1
    68    74    73    1
    69    47    46    2
    70    93    94    1
    71    64    61    1
    72    57    56    1
    73    57    58    1
    74    97    94    1
    75    73    67   am
    76    56    53    1
    77    68    67    2
    78    94    95    1
    79    63    62    2
    80    67    66    1
    81    71    69    1
    82    54    55    2
    83    54    53    1
    84    62    61    1
    85    61    60    1
    86    53    52    1
    87    69    66    1
    88    69    70    1
    89    95    96    2
    90    66    65    1
    91    72    70    1
