@<TRIPOS>MOLECULE
tmp/6igkA05.pdb
 106 99 0 0 0
SMALL
GASTEIGER

@<TRIPOS>ATOM
      1  N         15.4000   45.8250  140.8120 N.3    64  LEU64      -0.1245
      2  CA        14.6830   44.5820  141.0640 C.3    64  LEU64       0.1561
      3  C         15.2520   43.4590  140.2130 C.2    64  LEU64       0.2260
      4  O         15.5330   42.3620  140.7070 O.2    64  LEU64      -0.2867
      5  CB        13.1990   44.7720  140.7550 C.3    64  LEU64       0.0270
      6  CG        12.2460   43.7580  141.3750 C.3    64  LEU64       0.0019
      7  CD1       12.3380   43.8420  142.8980 C.3    64  LEU64       0.0001
      8  CD2       10.8210   44.0080  140.8970 C.3    64  LEU64       0.0001
      9  N          9.4260   28.9980  142.7280 N.3    90  LYS90      -0.1231
     10  CA         8.3510   29.6910  142.0180 C.3    90  LYS90       0.1693
     11  C          8.5120   31.2120  142.0820 C.2    90  LYS90       0.2591
     12  O          8.2280   31.9120  141.1060 O.2    90  LYS90      -0.2718
     13  CB         6.9900   29.2820  142.6030 C.3    90  LYS90       0.0285
     14  CG         6.6520   27.7830  142.4840 C.3    90  LYS90       0.0035
     15  CD         5.3520   27.4360  143.2220 C.3    90  LYS90       0.0206
     16  CE         4.7890   26.0680  142.7890 C.3    90  LYS90       0.1093
     17  NZ         4.3950   26.0930  141.3380 N.3    90  LYS90      -0.1314
     18  N          8.9680   31.7360  143.2210 N.am   91  LEU91      -0.1980
     19  CA         8.9760   33.1810  143.4390 C.3    91  LEU91       0.1596
     20  C         10.0560   33.8750  142.6240 C.2    91  LEU91       0.2287
     21  O          9.8410   34.9790  142.1100 O.2    91  LEU91      -0.2864
     22  CB         9.1570   33.4570  144.9300 C.3    91  LEU91       0.0297
     23  CG         9.1820   34.9070  145.3980 C.3    91  LEU91       0.0022
     24  CD1        7.8130   35.5440  145.2030 C.3    91  LEU91       0.0001
     25  CD2        9.6270   34.9880  146.8540 C.3    91  LEU91       0.0001
     26  N          9.1130   34.3400  138.9920 N.3    94  PHE94      -0.1227
     27  CA         7.9710   35.2550  139.0140 C.3    94  PHE94       0.1736
     28  C          8.4390   36.7020  139.1440 C.2    94  PHE94       0.2595
     29  O          8.1240   37.5520  138.3030 O.2    94  PHE94      -0.2718
     30  CB         7.0280   34.8660  140.1620 C.3    94  PHE94       0.0547
     31  CG         5.9740   35.8960  140.4810 C.ar   94  PHE94      -0.0202
     32  CD1        4.9110   36.1170  139.6170 C.ar   94  PHE94      -0.0042
     33  CD2        6.0350   36.6280  141.6600 C.ar   94  PHE94      -0.0042
     34  CE1        3.9330   37.0610  139.9160 C.ar   94  PHE94      -0.0003
     35  CE2        5.0620   37.5670  141.9610 C.ar   94  PHE94      -0.0003
     36  CZ         4.0100   37.7820  141.0860 C.ar   94  PHE94      -0.0000
     37  N          9.2160   36.9970  140.1870 N.am   95  ILE95      -0.1980
     38  CA         9.7200   38.3570  140.3720 C.3    95  ILE95       0.1595
     39  C         10.6020   38.7730  139.2020 C.2    95  ILE95       0.2287
     40  O         10.5740   39.9310  138.7580 O.2    95  ILE95      -0.2864
     41  CB        10.4660   38.4660  141.7130 C.3    95  ILE95       0.0276
     42  CG1        9.4770   38.2860  142.8670 C.3    95  ILE95       0.0022
     43  CG2       11.2000   39.8250  141.7980 C.3    95  ILE95       0.0022
     44  CD1       10.1310   38.0520  144.2190 C.3    95  ILE95       0.0001
     45  N          8.3390   39.8320  136.4030 N.3    98  ALA98      -0.1245
     46  CA         7.6980   41.0810  136.7820 C.3    98  ALA98       0.1562
     47  C          8.6360   42.2510  136.5250 C.2    98  ALA98       0.2260
     48  O          8.2410   43.2540  135.9100 O.2    98  ALA98      -0.2867
     49  CB         7.2730   41.0250  138.2490 C.3    98  ALA98       0.0290
     50  N          8.2380   45.5700  134.0620 N.3   102  ILE102     -0.1245
     51  CA         8.3680   46.9680  134.4870 C.3   102  ILE102      0.1561
     52  C          9.3800   47.6980  133.6090 C.2   102  ILE102      0.2260
     53  O          9.1510   48.8290  133.1780 O.2   102  ILE102     -0.2867
     54  CB         8.7650   47.0320  135.9760 C.3   102  ILE102      0.0252
     55  CG1        7.6210   46.5290  136.8600 C.3   102  ILE102      0.0019
     56  CG2        9.1730   48.4800  136.3850 C.3   102  ILE102      0.0019
     57  CD1        8.0660   46.0970  138.2460 C.3   102  ILE102      0.0001
     58  N          3.0450   48.4810  136.8090 N.3   141  TRP141     -0.1241
     59  CA         3.4920   47.5010  137.7940 C.3   141  TRP141      0.1605
     60  C          2.4620   46.3960  137.9850 C.2   141  TRP141      0.2264
     61  O          2.8260   45.2230  138.0990 O.2   141  TRP141     -0.2867
     62  CB         3.8050   48.2080  139.1160 C.3   141  TRP141      0.0550
     63  CG         5.1170   48.9220  139.0650 C.ar  141  TRP141      0.0003
     64  CD1        5.4740   49.9350  138.2100 C.ar  141  TRP141      0.0946
     65  CD2        6.2700   48.6530  139.8720 C.ar  141  TRP141      0.0152
     66  NE1        6.7740   50.3190  138.4470 N.ar  141  TRP141     -0.2442
     67  CE2        7.2870   49.5490  139.4600 C.ar  141  TRP141      0.0810
     68  CE3        6.5400   47.7470  140.9070 C.ar  141  TRP141      0.0012
     69  CZ2        8.5470   49.5670  140.0520 C.ar  141  TRP141      0.0191
     70  CZ3        7.7950   47.7610  141.4900 C.ar  141  TRP141      0.0001
     71  CH2        8.7830   48.6620  141.0630 C.ar  141  TRP141      0.0015
     72  N          3.1780   42.4580  137.0100 N.3   145  VAL145     -0.1245
     73  CA         3.0070   41.4090  138.0040 C.3   145  VAL145      0.1561
     74  C          2.0390   40.3430  137.5000 C.2   145  VAL145      0.2260
     75  O          2.3290   39.1440  137.5770 O.2   145  VAL145     -0.2867
     76  CB         2.5560   42.0190  139.3450 C.3   145  VAL145      0.0252
     77  CG1        2.0450   40.9390  140.2850 C.3   145  VAL145      0.0019
     78  CG2        3.7150   42.7760  139.9810 C.3   145  VAL145      0.0019
     79  N          2.4750   35.8240  136.4840 N.3   149  VAL149     -0.1245
     80  CA         1.8870   34.7630  137.3100 C.3   149  VAL149      0.1561
     81  C          2.1350   33.3690  136.7600 C.2   149  VAL149      0.2260
     82  O          2.3800   32.4520  137.5650 O.2   149  VAL149     -0.2867
     83  CB         0.3960   35.0540  137.5590 C.3   149  VAL149      0.0252
     84  CG1       -0.3000   33.8210  138.1280 C.3   149  VAL149      0.0019
     85  CG2        0.2440   36.2310  138.5200 C.3   149  VAL149      0.0019
     86  N          5.0140   31.5130  138.4160 N.3   152  ALA152     -0.1231
     87  CA         4.8240   31.0050  139.7700 C.3   152  ALA152      0.1694
     88  C          3.9700   29.7410  139.7870 C.2   152  ALA152      0.2591
     89  O          4.0930   28.9290  140.7090 O.2   152  ALA152     -0.2718
     90  CB         4.1900   32.0910  140.6480 C.3   152  ALA152      0.0304
     91  N          3.0850   29.5700  138.8020 N.am  153  ILE153     -0.1980
     92  CA         2.2900   28.3500  138.7340 C.3   153  ILE153      0.1595
     93  C          3.0980   27.2210  138.1200 C.2   153  ILE153      0.2287
     94  O          2.9920   26.0690  138.5510 O.2   153  ILE153     -0.2864
     95  CB         0.9930   28.5840  137.9440 C.3   153  ILE153      0.0276
     96  CG1        0.2010   29.7470  138.5450 C.3   153  ILE153      0.0022
     97  CG2        0.1640   27.2720  137.8900 C.3   153  ILE153      0.0022
     98  CD1       -0.9620   30.1950  137.6970 C.3   153  ILE153      0.0001
     99  N          8.4370   24.3680  139.5020 N.3   156  ASP156     -0.1239
    100  CA         8.3270   23.4870  140.6550 C.3   156  ASP156      0.1674
    101  C          9.6090   22.6680  140.7420 C.2   156  ASP156      0.2266
    102  O         10.4250   22.6510  139.8200 O.2   156  ASP156     -0.2867
    103  CB         7.0970   22.5750  140.5500 C.3   156  ASP156      0.1410
    104  CG         6.4880   22.2550  141.9040 C.2   156  ASP156      0.3668
    105  OD1        7.2060   22.3410  142.9180 O.co2 156  ASP156     -0.2456
    106  OD2        5.2850   21.9170  141.9540 O.co2 156  ASP156     -0.2456
@<TRIPOS>BOND
     1    53    52    2
     2    52    51    1
     3    50    51    1
     4    51    54    1
     5    48    47    2
     6    54    56    1
     7    54    55    1
     8    45    46    1
     9    79    80    1
    10    47    46    1
    11    81    80    1
    12    81    82    2
    13    46    49    1
    14    58    59    1
    15    55    57    1
    16    72    73    1
    17    80    83    1
    18    74    75    2
    19    74    73    1
    20    83    84    1
    21    83    85    1
    22    98    96    1
    23    59    60    1
    24    59    62    1
    25    97    95    1
    26    95    96    1
    27    95    92    1
    28    60    61    2
    29    73    76    1
    30    93    94    2
    31    93    92    1
    32    64    66   ar
    33    64    63   ar
    34    29    28    2
    35    86    87    1
    36    66    67   ar
    37    92    91    1
    38    40    39    2
    39    91    88   am
    40    26    27    1
    41    27    28    1
    42    27    30    1
    43    63    62    1
    44    63    65   ar
    45    28    37   am
    46    39    38    1
    47    76    78    1
    48    76    77    1
    49    67    65   ar
    50    67    69   ar
    51    99   100    1
    52    32    34   ar
    53    32    31   ar
    54    87    88    1
    55    87    90    1
    56    88    89    2
    57   102   101    2
    58    65    68   ar
    59    34    36   ar
    60    69    71   ar
    61    30    31    1
    62    37    38    1
    63     3     4    2
    64     3     2    1
    65    38    41    1
    66    31    33   ar
    67   103   100    1
    68   103   104    1
    69   100   101    1
    70     5     2    1
    71     5     6    1
    72     1     2    1
    73     8     6    1
    74    68    70   ar
    75    71    70   ar
    76    36    35   ar
    77    12    11    2
    78    17    16    1
    79     6     7    1
    80    33    35   ar
    81    41    43    1
    82    41    42    1
    83   104   106   ar
    84   104   105   ar
    85    10    11    1
    86    10    13    1
    87    10     9    1
    88    11    18   am
    89    21    20    2
    90    14    13    1
    91    14    15    1
    92    20    19    1
    93    16    15    1
    94    42    44    1
    95    18    19    1
    96    19    22    1
    97    22    23    1
    98    24    23    1
    99    23    25    1
