@<TRIPOS>MOLECULE
tmp/6igkA04.pdb
 108 101 0 0 0
SMALL
GASTEIGER

@<TRIPOS>ATOM
      1  N         18.0450   56.9990  141.3700 N.3    38  LEU38      -0.1245
      2  CA        16.8600   57.2150  142.1960 C.3    38  LEU38       0.1561
      3  C         17.0840   58.3300  143.2090 C.2    38  LEU38       0.2260
      4  O         16.2260   59.2030  143.3870 O.2    38  LEU38      -0.2867
      5  CB        16.4680   55.9160  142.9010 C.3    38  LEU38       0.0270
      6  CG        15.7690   54.8800  142.0240 C.3    38  LEU38       0.0019
      7  CD1       15.8320   53.4940  142.6780 C.3    38  LEU38       0.0001
      8  CD2       14.3250   55.2820  141.7620 C.3    38  LEU38       0.0001
      9  N         10.0220   60.6670  136.5440 N.3    53  ILE53      -0.1245
     10  CA         9.3150   59.6930  137.3650 C.3    53  ILE53       0.1561
     11  C          9.1950   58.3720  136.6180 C.2    53  ILE53       0.2260
     12  O          9.2930   57.2930  137.2160 O.2    53  ILE53      -0.2867
     13  CB         7.9410   60.2480  137.7850 C.3    53  ILE53       0.0252
     14  CG1        8.1260   61.3650  138.8130 C.3    53  ILE53       0.0019
     15  CG2        7.0800   59.1620  138.3690 C.3    53  ILE53       0.0019
     16  CD1        8.9390   60.9220  140.0270 C.3    53  ILE53       0.0001
     17  N         12.4640   56.9330  137.0270 N.3    56  ALA56      -0.1231
     18  CA        12.5030   56.3290  138.3540 C.3    56  ALA56       0.1694
     19  C         11.8860   54.9360  138.3460 C.2    56  ALA56       0.2592
     20  O         12.3920   54.0230  139.0080 O.2    56  ALA56      -0.2718
     21  CB        11.7770   57.2170  139.3670 C.3    56  ALA56       0.0304
     22  N         10.7740   54.7580  137.6280 N.am   57  SER57      -0.1952
     23  CA        10.1790   53.4290  137.5270 C.3    57  SER57       0.1924
     24  C         11.1290   52.4570  136.8230 C.2    57  SER57       0.2314
     25  O         11.3080   51.3230  137.2670 O.2    57  SER57      -0.2863
     26  CB         8.8340   53.5120  136.7990 C.3    57  SER57       0.2116
     27  OG         8.3270   52.2070  136.5250 O.3    57  SER57      -0.2180
     28  N         13.9580   51.5200  139.2850 N.3    60  LEU60      -0.1245
     29  CA        13.5070   50.5370  140.2610 C.3    60  LEU60       0.1561
     30  C         13.4030   49.1580  139.6340 C.2    60  LEU60       0.2260
     31  O         13.7810   48.1590  140.2540 O.2    60  LEU60      -0.2867
     32  CB        12.1650   50.9580  140.8470 C.3    60  LEU60       0.0270
     33  CG        12.2570   51.9710  141.9710 C.3    60  LEU60       0.0019
     34  CD1       10.8890   52.5530  142.2490 C.3    60  LEU60       0.0001
     35  CD2       12.8190   51.2960  143.2130 C.3    60  LEU60       0.0001
     36  N          9.1130   34.3400  138.9920 N.3    94  PHE94      -0.1241
     37  CA         7.9710   35.2550  139.0140 C.3    94  PHE94       0.1605
     38  C          8.4390   36.7020  139.1440 C.2    94  PHE94       0.2264
     39  O          8.1240   37.5520  138.3030 O.2    94  PHE94      -0.2867
     40  CB         7.0280   34.8660  140.1620 C.3    94  PHE94       0.0534
     41  CG         5.9740   35.8960  140.4810 C.ar   94  PHE94      -0.0203
     42  CD1        4.9110   36.1170  139.6170 C.ar   94  PHE94      -0.0042
     43  CD2        6.0350   36.6280  141.6600 C.ar   94  PHE94      -0.0042
     44  CE1        3.9330   37.0610  139.9160 C.ar   94  PHE94      -0.0003
     45  CE2        5.0620   37.5670  141.9610 C.ar   94  PHE94      -0.0003
     46  CZ         4.0100   37.7820  141.0860 C.ar   94  PHE94      -0.0000
     47  N          0.9050   59.0720  137.6120 N.3   134  ALA134     -0.1245
     48  CA         0.8470   58.2560  138.8200 C.3   134  ALA134      0.1562
     49  C          0.0770   56.9590  138.5780 C.2   134  ALA134      0.2260
     50  O          0.5380   55.8690  138.9450 O.2   134  ALA134     -0.2867
     51  CB         0.2170   59.0620  139.9560 C.3   134  ALA134      0.0290
     52  N          1.9260   54.5190  136.1440 N.3   137  ILE137     -0.1231
     53  CA         2.9800   53.6800  136.6950 C.3   137  ILE137      0.1692
     54  C          2.3900   52.5400  137.5150 C.2   137  ILE137      0.2591
     55  O          2.8660   51.4020  137.4430 O.2   137  ILE137     -0.2718
     56  CB         3.9600   54.5430  137.5140 C.3   137  ILE137      0.0266
     57  CG1        4.6400   55.5630  136.5870 C.3   137  ILE137      0.0019
     58  CG2        4.9860   53.6710  138.2180 C.3   137  ILE137      0.0020
     59  CD1        5.9910   56.0300  137.0490 C.3   137  ILE137      0.0001
     60  N          1.3390   52.8130  138.2880 N.am  138  VAL138     -0.1980
     61  CA         0.6720   51.7420  139.0230 C.3   138  VAL138      0.1595
     62  C          0.1990   50.6560  138.0650 C.2   138  VAL138      0.2287
     63  O          0.3580   49.4600  138.3330 O.2   138  VAL138     -0.2864
     64  CB        -0.4890   52.3080  139.8610 C.3   138  VAL138      0.0276
     65  CG1       -1.3190   51.1730  140.4480 C.3   138  VAL138      0.0022
     66  CG2        0.0530   53.1850  140.9660 C.3   138  VAL138      0.0022
     67  N          3.0450   48.4810  136.8090 N.3   141  TRP141     -0.1227
     68  CA         3.4920   47.5010  137.7940 C.3   141  TRP141      0.1737
     69  C          2.4620   46.3960  137.9850 C.2   141  TRP141      0.2595
     70  O          2.8260   45.2230  138.0990 O.2   141  TRP141     -0.2718
     71  CB         3.8050   48.2080  139.1160 C.3   141  TRP141      0.0564
     72  CG         5.1170   48.9220  139.0650 C.ar  141  TRP141      0.0003
     73  CD1        5.4740   49.9350  138.2100 C.ar  141  TRP141      0.0946
     74  CD2        6.2700   48.6530  139.8720 C.ar  141  TRP141      0.0152
     75  NE1        6.7740   50.3190  138.4470 N.ar  141  TRP141     -0.2442
     76  CE2        7.2870   49.5490  139.4600 C.ar  141  TRP141      0.0810
     77  CE3        6.5400   47.7470  140.9070 C.ar  141  TRP141      0.0012
     78  CZ2        8.5470   49.5670  140.0520 C.ar  141  TRP141      0.0191
     79  CZ3        7.7950   47.7610  141.4900 C.ar  141  TRP141      0.0001
     80  CH2        8.7830   48.6620  141.0630 C.ar  141  TRP141      0.0015
     81  N          1.1690   46.7400  138.0140 N.am  142  VAL142     -0.1980
     82  CA         0.1520   45.7060  138.1990 C.3   142  VAL142      0.1595
     83  C          0.1450   44.7470  137.0160 C.2   142  VAL142      0.2287
     84  O          0.1290   43.5250  137.1920 O.2   142  VAL142     -0.2864
     85  CB        -1.2310   46.3400  138.4290 C.3   142  VAL142      0.0276
     86  CG1       -2.3320   45.2620  138.4580 C.3   142  VAL142      0.0022
     87  CG2       -1.2420   47.1240  139.7310 C.3   142  VAL142      0.0022
     88  N          3.1780   42.4580  137.0100 N.3   145  VAL145     -0.1231
     89  CA         3.0070   41.4090  138.0040 C.3   145  VAL145      0.1692
     90  C          2.0390   40.3430  137.5000 C.2   145  VAL145      0.2591
     91  O          2.3290   39.1440  137.5770 O.2   145  VAL145     -0.2718
     92  CB         2.5560   42.0190  139.3450 C.3   145  VAL145      0.0266
     93  CG1        2.0450   40.9390  140.2850 C.3   145  VAL145      0.0020
     94  CG2        3.7150   42.7760  139.9810 C.3   145  VAL145      0.0020
     95  N          0.8870   40.7530  136.9540 N.am  146  VAL146     -0.1980
     96  CA        -0.1090   39.7670  136.5280 C.3   146  VAL146      0.1595
     97  C          0.4460   38.8790  135.4140 C.2   146  VAL146      0.2287
     98  O          0.2440   37.6610  135.4180 O.2   146  VAL146     -0.2864
     99  CB        -1.4140   40.4600  136.0900 C.3   146  VAL146      0.0276
    100  CG1       -2.3640   39.4460  135.4810 C.3   146  VAL146      0.0022
    101  CG2       -2.0750   41.1400  137.2700 C.3   146  VAL146      0.0022
    102  N          2.4750   35.8240  136.4840 N.3   149  VAL149     -0.1245
    103  CA         1.8870   34.7630  137.3100 C.3   149  VAL149      0.1561
    104  C          2.1350   33.3690  136.7600 C.2   149  VAL149      0.2260
    105  O          2.3800   32.4520  137.5650 O.2   149  VAL149     -0.2867
    106  CB         0.3960   35.0540  137.5590 C.3   149  VAL149      0.0252
    107  CG1       -0.3000   33.8210  138.1280 C.3   149  VAL149      0.0019
    108  CG2        0.2440   36.2310  138.5200 C.3   149  VAL149      0.0019
@<TRIPOS>BOND
     1    97    98    2
     2    97    96    1
     3   100    99    1
     4    99    96    1
     5    99   101    1
     6    52    53    1
     7   102   103    1
     8    27    26    1
     9    96    95    1
    10     9    10    1
    11    57    59    1
    12    57    56    1
    13    11    12    2
    14    11    10    1
    15    53    56    1
    16    53    54    1
    17   104   103    1
    18   104   105    2
    19    26    23    1
    20    67    68    1
    21    24    25    2
    22    24    23    1
    23    95    90   am
    24    88    89    1
    25    83    84    2
    26    83    82    1
    27    17    18    1
    28   103   106    1
    29    10    13    1
    30    55    54    2
    31    90    91    2
    32    90    89    1
    33    56    58    1
    34    54    60   am
    35    23    22    1
    36   106   107    1
    37   106   108    1
    38    47    48    1
    39    22    19   am
    40    13    15    1
    41    13    14    1
    42    68    69    1
    43    68    71    1
    44    69    81   am
    45    69    70    2
    46    89    92    1
    47    81    82    1
    48    62    63    2
    49    62    61    1
    50    82    85    1
    51    73    75   ar
    52    73    72   ar
    53    60    61    1
    54    39    38    2
    55    19    18    1
    56    19    20    2
    57    18    21    1
    58    85    86    1
    59    85    87    1
    60    75    76   ar
    61    49    48    1
    62    49    50    2
    63    14    16    1
    64    48    51    1
    65    36    37    1
    66    37    38    1
    67    37    40    1
    68    61    64    1
    69    72    71    1
    70    72    74   ar
    71    28    29    1
    72    92    94    1
    73    92    93    1
    74    76    74   ar
    75    76    78   ar
    76    42    44   ar
    77    42    41   ar
    78    30    31    2
    79    30    29    1
    80    64    65    1
    81    64    66    1
    82    74    77   ar
    83    44    46   ar
    84    78    80   ar
    85    40    41    1
    86    29    32    1
    87    41    43   ar
    88    32    33    1
    89    77    79   ar
    90    80    79   ar
    91    46    45   ar
    92     1     2    1
    93    43    45   ar
    94     8     6    1
    95    33    34    1
    96    33    35    1
    97     6     7    1
    98     6     5    1
    99     2     5    1
   100     2     3    1
   101     3     4    2
