@<TRIPOS>MOLECULE
tmp/6igkA09.pdb
 105 103 0 0 0
SMALL
GASTEIGER

@<TRIPOS>ATOM
      1  N          0.8870   40.7530  136.9540 N.3   146  VAL146     -0.1231
      2  CA        -0.1090   39.7670  136.5280 C.3   146  VAL146      0.1692
      3  C          0.4460   38.8790  135.4140 C.2   146  VAL146      0.2591
      4  O          0.2440   37.6610  135.4180 O.2   146  VAL146     -0.2718
      5  CB        -1.4140   40.4600  136.0900 C.3   146  VAL146      0.0266
      6  CG1       -2.3640   39.4460  135.4810 C.3   146  VAL146      0.0020
      7  CG2       -2.0750   41.1400  137.2700 C.3   146  VAL146      0.0020
      8  N          1.1570   39.4750  134.4470 N.am  147  LEU147     -0.1980
      9  CA         1.6910   38.7220  133.3180 C.3   147  LEU147      0.1596
     10  C          2.7480   37.7120  133.7340 C.2   147  LEU147      0.2287
     11  O          3.0120   36.7690  132.9830 O.2   147  LEU147     -0.2864
     12  CB         2.3000   39.6710  132.2810 C.3   147  LEU147      0.0297
     13  CG         1.3420   40.5680  131.4960 C.3   147  LEU147      0.0022
     14  CD1        2.0940   41.3750  130.4810 C.3   147  LEU147      0.0001
     15  CD2        0.2760   39.7070  130.8160 C.3   147  LEU147      0.0001
     16  N          2.4750   35.8240  136.4840 N.3   149  VAL149     -0.1231
     17  CA         1.8870   34.7630  137.3100 C.3   149  VAL149      0.1678
     18  C          2.1350   33.3690  136.7600 C.2   149  VAL149      0.2434
     19  O          2.3800   32.4520  137.5650 O.2   149  VAL149     -0.2733
     20  CB         0.3960   35.0540  137.5590 C.3   149  VAL149      0.0265
     21  CG1       -0.3000   33.8210  138.1280 C.3   149  VAL149      0.0020
     22  CG2        0.2440   36.2310  138.5200 C.3   149  VAL149      0.0020
     23  N          2.0770   33.1080  135.4410 N.am  150  PRO150     -0.2729
     24  CA         2.3280   31.7300  134.9760 C.3   150  PRO150      0.1401
     25  C          3.6650   31.1600  135.4230 C.2   150  PRO150      0.2269
     26  O          3.7710   29.9360  135.5600 O.2   150  PRO150     -0.2865
     27  CB         2.2480   31.8560  133.4480 C.3   150  PRO150      0.0296
     28  CG         1.2930   32.9750  133.2340 C.3   150  PRO150      0.0237
     29  CD         1.5880   33.9580  134.3360 C.3   150  PRO150      0.0939
     30  N          3.0850   29.5700  138.8020 N.3   153  ILE153     -0.1245
     31  CA         2.2900   28.3500  138.7340 C.3   153  ILE153      0.1561
     32  C          3.0980   27.2210  138.1200 C.2   153  ILE153      0.2260
     33  O          2.9920   26.0690  138.5510 O.2   153  ILE153     -0.2867
     34  CB         0.9930   28.5840  137.9440 C.3   153  ILE153      0.0252
     35  CG1        0.2010   29.7470  138.5450 C.3   153  ILE153      0.0019
     36  CG2        0.1640   27.2720  137.8900 C.3   153  ILE153      0.0019
     37  CD1       -0.9620   30.1950  137.6970 C.3   153  ILE153      0.0001
     38  N         -2.8850   22.0950  133.6930 N.3   178  THR178     -0.1218
     39  CA        -4.0590   22.5590  132.9660 C.3   178  THR178      0.1862
     40  C         -3.7080   22.8600  131.5130 C.2   178  THR178      0.2287
     41  O         -2.5350   22.9720  131.1390 O.2   178  THR178     -0.2866
     42  CB        -4.6630   23.8120  133.6090 C.3   178  THR178      0.1770
     43  OG1       -3.6950   24.8660  133.5740 O.3   178  THR178     -0.2211
     44  CG2       -5.0670   23.5430  135.0440 C.3   178  THR178      0.0375
     45  N         -4.1780   25.5770  129.7700 N.3   180  PHE180     -0.1227
     46  CA        -3.5140   26.8650  129.6300 C.3   180  PHE180      0.1736
     47  C         -2.0330   26.7470  129.9620 C.2   180  PHE180      0.2595
     48  O         -1.1740   27.2320  129.2170 O.2   180  PHE180     -0.2718
     49  CB        -4.1790   27.9060  130.5320 C.3   180  PHE180      0.0547
     50  CG        -3.4660   29.2310  130.5460 C.ar  180  PHE180     -0.0202
     51  CD1       -3.6670   30.1480  129.5350 C.ar  180  PHE180     -0.0042
     52  CD2       -2.5770   29.5480  131.5630 C.ar  180  PHE180     -0.0042
     53  CE1       -2.9990   31.3670  129.5360 C.ar  180  PHE180     -0.0003
     54  CE2       -1.9020   30.7650  131.5700 C.ar  180  PHE180     -0.0003
     55  CZ        -2.1150   31.6750  130.5590 C.ar  180  PHE180     -0.0000
     56  N         -1.7170   26.1020  131.0860 N.am  181  MET181     -0.1979
     57  CA        -0.3280   26.0140  131.5110 C.3   181  MET181      0.1605
     58  C          0.4840   25.1130  130.5920 C.2   181  MET181      0.2287
     59  O          1.6780   25.3630  130.3900 O.2   181  MET181     -0.2864
     60  CB        -0.2580   25.5550  132.9660 C.3   181  MET181      0.0413
     61  CG        -0.6930   26.6550  133.9440 C.3   181  MET181      0.0598
     62  SD         0.2850   28.1710  133.7230 S.3   181  MET181     -0.1393
     63  CE         1.9470   27.5830  134.0230 C.3   181  MET181      0.0692
     64  N          0.0300   24.9410  127.3240 N.3   183  PHE183     -0.1227
     65  CA         0.3030   25.8580  126.2230 C.3   183  PHE183      0.1736
     66  C          1.4000   26.8550  126.5810 C.2   183  PHE183      0.2595
     67  O          2.3000   27.1170  125.7760 O.2   183  PHE183     -0.2718
     68  CB        -0.9850   26.5840  125.8420 C.3   183  PHE183      0.0547
     69  CG        -0.7820   27.7110  124.8890 C.ar  183  PHE183     -0.0202
     70  CD1       -0.6060   27.4670  123.5360 C.ar  183  PHE183     -0.0042
     71  CD2       -0.7690   29.0240  125.3410 C.ar  183  PHE183     -0.0042
     72  CE1       -0.4200   28.5200  122.6480 C.ar  183  PHE183     -0.0003
     73  CE2       -0.5810   30.0770  124.4610 C.ar  183  PHE183     -0.0003
     74  CZ        -0.4030   29.8240  123.1170 C.ar  183  PHE183     -0.0000
     75  N          1.3270   27.4400  127.7810 N.am  184  TYR184     -0.1976
     76  CA         2.3820   28.3380  128.2470 C.3   184  TYR184      0.1639
     77  C          3.7430   27.6530  128.2050 C.2   184  TYR184      0.2290
     78  O          4.7260   28.2330  127.7320 O.2   184  TYR184     -0.2864
     79  CB         2.0750   28.8210  129.6660 C.3   184  TYR184      0.0560
     80  CG         3.1480   29.7280  130.2490 C.ar  184  TYR184     -0.0198
     81  CD1        3.2400   31.0700  129.8600 C.ar  184  TYR184     -0.0009
     82  CD2        4.0490   29.2560  131.2040 C.ar  184  TYR184     -0.0009
     83  CE1        4.2100   31.9060  130.3860 C.ar  184  TYR184      0.0417
     84  CE2        5.0210   30.0930  131.7390 C.ar  184  TYR184      0.0417
     85  CZ         5.0990   31.4080  131.3230 C.ar  184  TYR184      0.1957
     86  OH         6.0630   32.2350  131.8410 O.3   184  TYR184     -0.2866
     87  N          4.8700   27.5880  124.6100 N.3   187  ALA187     -0.1245
     88  CA         4.9700   28.8580  123.8950 C.3   187  ALA187      0.1562
     89  C          5.7620   29.9370  124.6280 C.2   187  ALA187      0.2260
     90  O          5.9900   30.9990  124.0520 O.2   187  ALA187     -0.2867
     91  CB         3.5700   29.3950  123.5820 C.3   187  ALA187      0.0290
     92  N          6.4610   33.7470  123.4450 N.3   191  TRP191     -0.1241
     93  CA         5.7410   34.7960  124.1590 C.3   191  TRP191      0.1605
     94  C          6.7010   35.8580  124.6800 C.2   191  TRP191      0.2264
     95  O          6.4540   37.0640  124.5220 O.2   191  TRP191     -0.2867
     96  CB         4.9230   34.1630  125.2960 C.3   191  TRP191      0.0550
     97  CG         4.5720   35.0630  126.4650 C.ar  191  TRP191      0.0003
     98  CD1        5.0760   34.9870  127.7380 C.ar  191  TRP191      0.0946
     99  CD2        3.6140   36.1320  126.4800 C.ar  191  TRP191      0.0152
    100  NE1        4.4980   35.9490  128.5360 N.ar  191  TRP191     -0.2442
    101  CE2        3.5990   36.6640  127.7890 C.ar  191  TRP191      0.0810
    102  CE3        2.7830   36.7060  125.5060 C.ar  191  TRP191      0.0012
    103  CZ2        2.7940   37.7540  128.1480 C.ar  191  TRP191      0.0191
    104  CZ3        1.9800   37.7870  125.8690 C.ar  191  TRP191      0.0001
    105  CH2        1.9940   38.2960  127.1760 C.ar  191  TRP191      0.0015
@<TRIPOS>BOND
     1    72    74   ar
     2    72    70   ar
     3    74    73   ar
     4    92    93    1
     5    70    69   ar
     6    91    88    1
     7    88    87    1
     8    88    89    1
     9    90    89    2
    10    93    94    1
    11    93    96    1
    12    73    71   ar
    13    95    94    2
    14    69    71   ar
    15    69    68    1
    16    96    97    1
    17   102   104   ar
    18   102    99   ar
    19    67    66    2
    20    68    65    1
    21   104   105   ar
    22    65    66    1
    23    65    64    1
    24    97    99   ar
    25    97    98   ar
    26    99   101   ar
    27    66    75   am
    28   105   103   ar
    29    78    77    2
    30    98   100   ar
    31    75    76    1
    32   101   103   ar
    33   101   100   ar
    34    77    76    1
    35    76    79    1
    36    48    47    2
    37    51    53   ar
    38    51    50   ar
    39    53    55   ar
    40    46    45    1
    41    46    47    1
    42    46    49    1
    43    79    80    1
    44    81    80   ar
    45    81    83   ar
    46    47    56   am
    47    80    82   ar
    48    83    85   ar
    49    59    58    2
    50    14    13    1
    51    49    50    1
    52    50    52   ar
    53    55    54   ar
    54    58    57    1
    55    15    13    1
    56    56    57    1
    57    41    40    2
    58    82    84   ar
    59    85    84   ar
    60    85    86    1
    61    13    12    1
    62    57    60    1
    63    40    39    1
    64    52    54   ar
    65    12     9    1
    66    39    42    1
    67    39    38    1
    68    60    61    1
    69    11    10    2
    70    28    27    1
    71    28    29    1
    72     9    10    1
    73     9     8    1
    74    27    24    1
    75    43    42    1
    76    42    44    1
    77    62    61    1
    78    62    63    1
    79    29    23    1
    80     8     3   am
    81    24    25    1
    82    24    23    1
    83     3     4    2
    84     3     2    1
    85    25    26    2
    86    23    18   am
    87     6     5    1
    88     5     2    1
    89     5     7    1
    90    16    17    1
    91     2     1    1
    92    18    17    1
    93    18    19    2
    94    17    20    1
    95    20    21    1
    96    20    22    1
    97    37    35    1
    98    36    34    1
    99    34    35    1
   100    34    31    1
   101    32    33    2
   102    32    31    1
   103    31    30    1
