@<TRIPOS>MOLECULE
tmp/6igkA06.pdb
 99 91 0 0 0
SMALL
GASTEIGER

@<TRIPOS>ATOM
      1  N         20.2800   45.5580  122.0990 N.3   402  LEU402     -0.1245
      2  CA        21.5320   44.8170  122.0320 C.3   402  LEU402      0.1561
      3  C         21.7210   43.9350  123.2600 C.2   402  LEU402      0.2260
      4  O         22.2410   42.8220  123.1520 O.2   402  LEU402     -0.2867
      5  CB        22.7110   45.7780  121.8850 C.3   402  LEU402      0.0270
      6  CG        22.7880   46.6040  120.5940 C.3   402  LEU402      0.0019
      7  CD1       23.8930   47.6610  120.6960 C.3   402  LEU402      0.0001
      8  CD2       22.9900   45.7180  119.3650 C.3   402  LEU402      0.0001
      9  N         18.9690   40.8910  123.1930 N.3   405  LEU405     -0.1231
     10  CA        18.9300   39.9660  122.0660 C.3   405  LEU405      0.1678
     11  C         19.6010   38.6330  122.3890 C.2   405  LEU405      0.2434
     12  O         19.0130   37.5860  122.0660 O.2   405  LEU405     -0.2733
     13  CB        19.5450   40.6200  120.8260 C.3   405  LEU405      0.0284
     14  CG        19.5580   39.6890  119.6060 C.3   405  LEU405      0.0019
     15  CD1       18.1530   39.5360  119.0340 C.3   405  LEU405      0.0001
     16  CD2       20.5320   40.1480  118.5490 C.3   405  LEU405      0.0001
     17  N         20.7940   38.5850  123.0130 N.am  406  PRO406     -0.2729
     18  CA        21.4560   37.2800  123.1910 C.3   406  PRO406      0.1401
     19  C         20.6420   36.2670  123.9850 C.2   406  PRO406      0.2269
     20  O         20.6490   35.0780  123.6430 O.2   406  PRO406     -0.2865
     21  CB        22.7630   37.6530  123.9070 C.3   406  PRO406      0.0296
     22  CG        23.0700   39.0710  123.3820 C.3   406  PRO406      0.0237
     23  CD        21.6970   39.7050  123.3610 C.3   406  PRO406      0.0939
     24  N         17.8450   34.9020  121.6620 N.3   409  LEU409     -0.1245
     25  CA        18.4180   34.0090  120.6650 C.3   409  LEU409      0.1561
     26  C         18.8080   32.6690  121.2830 C.2   409  LEU409      0.2260
     27  O         18.6550   31.6250  120.6440 O.2   409  LEU409     -0.2867
     28  CB        19.6350   34.6490  120.0030 C.3   409  LEU409      0.0270
     29  CG        19.3410   35.8540  119.1010 C.3   409  LEU409      0.0019
     30  CD1       20.6070   36.3310  118.4180 C.3   409  LEU409      0.0001
     31  CD2       18.2800   35.5130  118.0760 C.3   409  LEU409      0.0001
     32  N         17.2270   29.2910  119.8640 N.3   413  LEU413     -0.1245
     33  CA        18.0840   28.2760  119.2540 C.3   413  LEU413      0.1561
     34  C         17.7750   26.8910  119.8010 C.2   413  LEU413      0.2260
     35  O         17.7700   25.9080  119.0500 O.2   413  LEU413     -0.2867
     36  CB        19.5550   28.6110  119.4800 C.3   413  LEU413      0.0270
     37  CG        20.1420   29.7220  118.6000 C.3   413  LEU413      0.0019
     38  CD1       21.5350   30.0820  119.0820 C.3   413  LEU413      0.0001
     39  CD2       20.1850   29.2790  117.1470 C.3   413  LEU413      0.0001
     40  N         16.7070   24.0910  117.2770 N.3   417  LEU417     -0.1245
     41  CA        17.7950   23.1840  116.9310 C.3   417  LEU417      0.1561
     42  C         17.8310   21.8990  117.7410 C.2   417  LEU417      0.2260
     43  O         18.4920   20.9480  117.3160 O.2   417  LEU417     -0.2867
     44  CB        19.1540   23.8780  117.0890 C.3   417  LEU417      0.0270
     45  CG        19.4320   25.0750  116.1830 C.3   417  LEU417      0.0019
     46  CD1       20.8410   25.5850  116.4250 C.3   417  LEU417      0.0001
     47  CD2       19.2300   24.6740  114.7270 C.3   417  LEU417      0.0001
     48  N         17.1240   18.3740  119.1460 N.3   419  ASN419     -0.1240
     49  CA        16.4740   17.1260  118.7330 C.3   419  ASN419      0.1653
     50  C         16.7190   16.1050  119.8310 C.2   419  ASN419      0.2266
     51  O         17.8280   15.5680  119.9490 O.2   419  ASN419     -0.2867
     52  CB        17.0150   16.6500  117.3840 C.3   419  ASN419      0.1155
     53  CG        16.4930   15.2660  116.9610 C.2   419  ASN419      0.2627
     54  OD1       15.7600   14.5790  117.6870 O.2   419  ASN419     -0.2716
     55  ND2       16.8840   14.8580  115.7600 N.am  419  ASN419     -0.0877
     56  N         18.6230   12.7500  119.2760 N.3   422  ASP422     -0.1239
     57  CA        20.0020   12.7090  118.8130 C.3   422  ASP422      0.1674
     58  C         20.9170   12.3000  119.9610 C.2   422  ASP422      0.2266
     59  O         20.9830   13.0130  120.9700 O.2   422  ASP422     -0.2867
     60  CB        20.4000   14.0800  118.2610 C.3   422  ASP422      0.1410
     61  CG        21.8060   14.1080  117.6740 C.2   422  ASP422      0.3668
     62  OD1       22.0820   15.0460  116.9100 O.co2 422  ASP422     -0.2456
     63  OD2       22.6370   13.2150  117.9620 O.co2 422  ASP422     -0.2456
     64  N         26.2270   18.0120  123.1100 N.3   427  GLU427     -0.1231
     65  CA        27.1530   19.0740  122.7090 C.3   427  GLU427      0.1699
     66  C         26.4120   20.3810  122.4640 C.2   427  GLU427      0.2592
     67  O         26.8900   21.4530  122.8540 O.2   427  GLU427     -0.2718
     68  CB        27.9510   18.6690  121.4700 C.3   427  GLU427      0.0402
     69  CG        28.9090   17.5050  121.7540 C.3   427  GLU427      0.1161
     70  CD        29.8720   17.2250  120.6180 C.2   427  GLU427      0.3649
     71  OE1       30.0840   18.1180  119.7680 O.co2 427  GLU427     -0.2457
     72  OE2       30.4190   16.1000  120.5900 O.co2 427  GLU427     -0.2457
     73  N         25.2470   20.3170  121.8160 N.am  428  LEU428     -0.1980
     74  CA        24.4130   21.5060  121.6990 C.3   428  LEU428      0.1596
     75  C         23.9520   21.9960  123.0710 C.2   428  LEU428      0.2287
     76  O         23.9540   23.2020  123.3360 O.2   428  LEU428     -0.2864
     77  CB        23.2110   21.2220  120.8070 C.3   428  LEU428      0.0297
     78  CG        22.1820   22.3560  120.7670 C.3   428  LEU428      0.0022
     79  CD1       22.7680   23.6180  120.1320 C.3   428  LEU428      0.0001
     80  CD2       20.9200   21.9110  120.0320 C.3   428  LEU428      0.0001
     81  N         26.6630   23.9120  124.7210 N.3   431  PHE431     -0.1241
     82  CA        26.8300   25.2370  124.1260 C.3   431  PHE431      0.1605
     83  C         25.7270   26.1810  124.5780 C.2   431  PHE431      0.2264
     84  O         25.9800   27.3660  124.8460 O.2   431  PHE431     -0.2867
     85  CB        26.8490   25.1170  122.6020 C.3   431  PHE431      0.0534
     86  CG        26.9920   26.4390  121.8690 C.ar  431  PHE431     -0.0203
     87  CD1       28.1750   27.1580  121.9200 C.ar  431  PHE431     -0.0042
     88  CD2       25.9510   26.9340  121.0990 C.ar  431  PHE431     -0.0042
     89  CE1       28.3180   28.3620  121.2170 C.ar  431  PHE431     -0.0003
     90  CE2       26.0870   28.1250  120.3930 C.ar  431  PHE431     -0.0003
     91  CZ        27.2710   28.8410  120.4580 C.ar  431  PHE431     -0.0000
     92  N         25.6380   30.1240  126.1910 N.3   435  LEU435     -0.1245
     93  CA        24.8510   31.2420  125.6730 C.3   435  LEU435      0.1561
     94  C         23.8600   31.7460  126.7170 C.2   435  LEU435      0.2260
     95  O         23.6140   32.9570  126.8230 O.2   435  LEU435     -0.2867
     96  CB        24.1020   30.8350  124.4070 C.3   435  LEU435      0.0270
     97  CG        24.8370   30.3510  123.1600 C.3   435  LEU435      0.0019
     98  CD1       23.8200   30.1460  122.0480 C.3   435  LEU435      0.0001
     99  CD2       25.9010   31.3450  122.7370 C.3   435  LEU435      0.0001
@<TRIPOS>BOND
     1    47    45    1
     2    55    53   am
     3    45    46    1
     4    45    44    1
     5    62    61   ar
     6    41    44    1
     7    41    40    1
     8    41    42    1
     9    53    52    1
    10    53    54    2
    11    39    37    1
    12    43    42    2
    13    52    49    1
    14    61    63   ar
    15    61    60    1
    16    31    29    1
    17    60    57    1
    18    30    29    1
    19    16    14    1
    20    37    38    1
    21    37    36    1
    22    49    48    1
    23    49    50    1
    24    57    56    1
    25    57    58    1
    26    15    14    1
    27    35    34    2
    28    29    28    1
    29    33    36    1
    30    33    34    1
    31    33    32    1
    32     8     6    1
    33    14    13    1
    34    71    70   ar
    35    50    51    2
    36    58    59    2
    37    28    25    1
    38    80    78    1
    39    79    78    1
    40    90    91   ar
    41    90    88   ar
    42    91    89   ar
    43    72    70   ar
    44     6     7    1
    45     6     5    1
    46    70    69    1
    47    27    26    2
    48    25    26    1
    49    25    24    1
    50    78    77    1
    51    77    74    1
    52    13    10    1
    53    88    86   ar
    54    89    87   ar
    55    68    69    1
    56    68    65    1
    57    74    73    1
    58    74    75    1
    59    73    66   am
    60    86    87   ar
    61    86    85    1
    62     5     2    1
    63     2     1    1
    64     2     3    1
    65    98    97    1
    66    12    11    2
    67    10    11    1
    68    10     9    1
    69    11    17   am
    70    66    65    1
    71    66    67    2
    72    85    82    1
    73    65    64    1
    74    99    97    1
    75    17    18    1
    76    17    23    1
    77    75    76    2
    78     4     3    2
    79    97    96    1
    80    18    21    1
    81    18    19    1
    82    23    22    1
    83    22    21    1
    84    20    19    2
    85    82    83    1
    86    82    81    1
    87    96    93    1
    88    83    84    2
    89    93    92    1
    90    93    94    1
    91    94    95    2
