@<TRIPOS>MOLECULE
tmp/6igkA08.pdb
 88 84 0 0 0
SMALL
GASTEIGER

@<TRIPOS>ATOM
      1  N         28.2080   19.7740  130.4100 N.3    10  GLU10      -0.1245
      2  CA        29.1170   20.3490  131.3840 C.3    10  GLU10       0.1567
      3  C         29.3700   21.8110  131.0500 C.2    10  GLU10       0.2260
      4  O         29.1900   22.2570  129.9110 O.2    10  GLU10      -0.2867
      5  CB        30.4400   19.5680  131.4500 C.3    10  GLU10       0.0388
      6  CG        31.1100   19.3600  130.1100 C.3    10  GLU10       0.1160
      7  CD        32.3250   18.4310  130.1880 C.2    10  GLU10       0.3649
      8  OE1       33.2880   18.6670  129.4270 O.co2  10  GLU10      -0.2457
      9  OE2       32.3210   17.4760  131.0040 O.co2  10  GLU10      -0.2457
     10  N         32.5220   24.5240  131.5440 N.3    12  LYS12      -0.1245
     11  CA        33.9450   24.5130  131.8440 C.3    12  LYS12       0.1561
     12  C         34.2850   25.5840  132.8740 C.2    12  LYS12       0.2260
     13  O         33.7020   26.6670  132.8910 O.2    12  LYS12      -0.2867
     14  CB        34.7520   24.7290  130.5650 C.3    12  LYS12       0.0271
     15  CG        34.4520   23.7290  129.4610 C.3    12  LYS12       0.0035
     16  CD        34.8940   22.3280  129.8630 C.3    12  LYS12       0.0206
     17  CE        34.7840   21.3570  128.6910 C.3    12  LYS12       0.1093
     18  NZ        35.5520   21.8280  127.4950 N.3    12  LYS12      -0.1314
     19  N         36.8800   27.5540  133.2270 N.3    14  THR14      -0.1203
     20  CA        37.3520   28.8360  132.6940 C.3    14  THR14       0.1994
     21  C         36.1850   29.7580  132.3510 C.2    14  THR14       0.2617
     22  O         36.2420   30.9670  132.6060 O.2    14  THR14      -0.2717
     23  CB        38.2140   28.6330  131.4500 C.3    14  THR14       0.1784
     24  OG1       39.2970   27.7470  131.7420 O.3    14  THR14      -0.2211
     25  CG2       38.7790   29.9900  130.9740 C.3    14  THR14       0.0376
     26  N         35.1190   29.2090  131.7660 N.am   15  PHE15      -0.1975
     27  CA        33.9430   30.0280  131.5170 C.3    15  PHE15       0.1639
     28  C         33.3120   30.5010  132.8210 C.2    15  PHE15       0.2290
     29  O         32.8490   31.6420  132.9130 O.2    15  PHE15      -0.2864
     30  CB        32.9100   29.2750  130.6870 C.3    15  PHE15       0.0560
     31  CG        31.6040   30.0220  130.5790 C.ar   15  PHE15      -0.0200
     32  CD1       31.5210   31.1900  129.8090 C.ar   15  PHE15      -0.0042
     33  CD2       30.4860   29.6150  131.2970 C.ar   15  PHE15      -0.0042
     34  CE1       30.3370   31.9000  129.7160 C.ar   15  PHE15      -0.0003
     35  CE2       29.2950   30.3440  131.2250 C.ar   15  PHE15      -0.0003
     36  CZ        29.2240   31.4890  130.4160 C.ar   15  PHE15      -0.0000
     37  N         34.7760   31.2230  135.5950 N.3    17  TYR17      -0.1227
     38  CA        35.5440   32.3440  136.1300 C.3    17  TYR17       0.1736
     39  C         35.1890   33.6400  135.4220 C.2    17  TYR17       0.2595
     40  O         34.9390   34.6630  136.0720 O.2    17  TYR17      -0.2718
     41  CB        37.0420   32.0880  136.0070 C.3    17  TYR17       0.0548
     42  CG        37.6680   31.5430  137.2600 C.ar   17  TYR17      -0.0200
     43  CD1       38.1780   32.3900  138.2300 C.ar   17  TYR17      -0.0009
     44  CD2       37.7530   30.1730  137.4710 C.ar   17  TYR17      -0.0009
     45  CE1       38.7610   31.8850  139.3820 C.ar   17  TYR17       0.0417
     46  CE2       38.3300   29.6580  138.6160 C.ar   17  TYR17       0.0417
     47  CZ        38.8330   30.5160  139.5670 C.ar   17  TYR17       0.1957
     48  OH        39.4070   29.9960  140.7050 O.3    17  TYR17      -0.2866
     49  N         35.2160   33.6260  134.0860 N.am   18  ILE18      -0.1980
     50  CA        34.9810   34.8490  133.3180 C.3    18  ILE18       0.1595
     51  C         33.5640   35.3490  133.5550 C.2    18  ILE18       0.2287
     52  O         33.3400   36.5390  133.8020 O.2    18  ILE18      -0.2864
     53  CB        35.2420   34.6160  131.8160 C.3    18  ILE18       0.0276
     54  CG1       36.6000   33.9610  131.5670 C.3    18  ILE18       0.0022
     55  CG2       35.1550   35.9360  131.0470 C.3    18  ILE18       0.0022
     56  CD1       37.7600   34.6780  132.1560 C.3    18  ILE18       0.0001
     57  N         25.4460   21.6900  125.9450 N.3   430  SER430     -0.1202
     58  CA        26.5690   22.3500  126.6090 C.3   430  SER430      0.2020
     59  C         26.8290   23.7410  126.0330 C.2   430  SER430      0.2618
     60  O         27.2140   24.6570  126.7680 O.2   430  SER430     -0.2717
     61  CB        27.8210   21.4750  126.5160 C.3   430  SER430      0.2103
     62  OG        27.6670   20.3280  127.3650 O.3   430  SER430     -0.2182
     63  N         26.6630   23.9120  124.7210 N.am  431  PHE431     -0.1975
     64  CA        26.8300   25.2370  124.1260 C.3   431  PHE431      0.1639
     65  C         25.7270   26.1810  124.5780 C.2   431  PHE431      0.2290
     66  O         25.9800   27.3660  124.8460 O.2   431  PHE431     -0.2864
     67  CB        26.8490   25.1170  122.6020 C.3   431  PHE431      0.0560
     68  CG        26.9920   26.4390  121.8690 C.ar  431  PHE431     -0.0200
     69  CD1       28.1750   27.1580  121.9200 C.ar  431  PHE431     -0.0042
     70  CD2       25.9510   26.9340  121.0990 C.ar  431  PHE431     -0.0042
     71  CE1       28.3180   28.3620  121.2170 C.ar  431  PHE431     -0.0003
     72  CE2       26.0870   28.1250  120.3930 C.ar  431  PHE431     -0.0003
     73  CZ        27.2710   28.8410  120.4580 C.ar  431  PHE431     -0.0000
     74  N         26.2960   27.9030  127.8720 N.3   434  VAL434     -0.1245
     75  CA        27.1670   29.0740  127.7850 C.3   434  VAL434      0.1561
     76  C         26.3870   30.2850  127.2880 C.2   434  VAL434      0.2260
     77  O         26.4460   31.3650  127.8860 O.2   434  VAL434     -0.2867
     78  CB        28.3790   28.7770  126.8920 C.3   434  VAL434      0.0252
     79  CG1       29.0950   30.0750  126.4990 C.3   434  VAL434      0.0019
     80  CG2       29.3460   27.8290  127.6340 C.3   434  VAL434      0.0019
     81  N         25.7230   33.7770  129.4190 N.3   438  ILE438     -0.1245
     82  CA        26.0440   35.0490  128.7750 C.3   438  ILE438      0.1561
     83  C         24.7920   35.9070  128.6580 C.2   438  ILE438      0.2260
     84  O         24.8050   37.1000  128.9870 O.2   438  ILE438     -0.2867
     85  CB        26.6950   34.8170  127.4010 C.3   438  ILE438      0.0252
     86  CG1       28.0880   34.1960  127.5680 C.3   438  ILE438      0.0019
     87  CG2       26.7790   36.1470  126.6020 C.3   438  ILE438      0.0019
     88  CD1       28.7520   33.8890  126.2410 C.3   438  ILE438      0.0001
@<TRIPOS>BOND
     1    72    73   ar
     2    72    70   ar
     3    73    71   ar
     4    70    68   ar
     5    71    69   ar
     6    68    69   ar
     7    68    67    1
     8    67    64    1
     9    64    65    1
    10    64    63    1
    11    65    66    2
    12    63    59   am
    13    57    58    1
    14    59    58    1
    15    59    60    2
    16    88    86    1
    17    79    78    1
    18    61    58    1
    19    61    62    1
    20    87    85    1
    21    78    80    1
    22    78    75    1
    23    76    75    1
    24    76    77    2
    25    85    86    1
    26    85    82    1
    27    18    17    1
    28    75    74    1
    29    83    82    1
    30    83    84    2
    31    17    16    1
    32    82    81    1
    33     8     7   ar
    34    15    16    1
    35    15    14    1
    36    34    32   ar
    37    34    36   ar
    38    32    31   ar
    39     4     3    2
    40     6     7    1
    41     6     5    1
    42     7     9   ar
    43     1     2    1
    44    36    35   ar
    45    14    11    1
    46    31    30    1
    47    31    33   ar
    48    30    27    1
    49    25    23    1
    50    55    53    1
    51     3     2    1
    52    35    33   ar
    53     2     5    1
    54    23    24    1
    55    23    20    1
    56    27    26    1
    57    27    28    1
    58    10    11    1
    59    54    53    1
    60    54    56    1
    61    26    21   am
    62    53    50    1
    63    11    12    1
    64    21    22    2
    65    21    20    1
    66    20    19    1
    67    28    29    2
    68    12    13    2
    69    50    51    1
    70    50    49    1
    71    51    52    2
    72    49    39   am
    73    39    40    2
    74    39    38    1
    75    37    38    1
    76    41    38    1
    77    41    42    1
    78    42    44   ar
    79    42    43   ar
    80    44    46   ar
    81    43    45   ar
    82    46    47   ar
    83    45    47   ar
    84    47    48    1
