@<TRIPOS>MOLECULE
tmp/6igkA03.pdb
 104 99 0 0 0
SMALL
GASTEIGER

@<TRIPOS>ATOM
      1  N         18.8840   42.3290  141.2960 N.3    67  VAL67      -0.1231
      2  CA        18.8890   41.6180  142.5660 C.3    67  VAL67       0.1692
      3  C         18.2550   40.2330  142.4310 C.2    67  VAL67       0.2591
      4  O         18.6660   39.2870  143.1130 O.2    67  VAL67      -0.2718
      5  CB        18.1700   42.4720  143.6300 C.3    67  VAL67       0.0266
      6  CG1       17.8970   41.6550  144.8850 C.3    67  VAL67       0.0020
      7  CG2       18.9880   43.7250  143.9690 C.3    67  VAL67       0.0020
      8  N         17.2510   40.0830  141.5690 N.am   68  ILE68      -0.1980
      9  CA        16.5790   38.7940  141.4560 C.3    68  ILE68       0.1595
     10  C         17.2820   37.8750  140.4580 C.2    68  ILE68       0.2287
     11  O         17.2260   36.6530  140.6100 O.2    68  ILE68      -0.2864
     12  CB        15.0850   38.9630  141.0930 C.3    68  ILE68       0.0276
     13  CG1       14.3210   37.6470  141.3330 C.3    68  ILE68       0.0022
     14  CG2       14.8920   39.3840  139.6440 C.3    68  ILE68       0.0022
     15  CD1       14.0350   37.3760  142.7880 C.3    68  ILE68       0.0001
     16  N         22.2900   37.2200  141.5340 N.3    71  PRO71      -0.2102
     17  CA        22.7940   36.3560  142.6130 C.3    71  PRO71       0.1504
     18  C         22.3850   34.8970  142.4660 C.2    71  PRO71       0.2575
     19  O         23.2370   34.0080  142.6200 O.2    71  PRO71      -0.2718
     20  CB        22.2040   37.0030  143.8740 C.3    71  PRO71       0.0282
     21  CG        22.0720   38.4730  143.4950 C.3    71  PRO71       0.0208
     22  CD        21.6400   38.4400  142.0690 C.3    71  PRO71       0.0893
     23  N         21.1140   34.6280  142.1440 N.am   72  ILE72      -0.1980
     24  CA        20.6490   33.2550  142.0230 C.3    72  ILE72       0.1595
     25  C         21.3190   32.5460  140.8400 C.2    72  ILE72       0.2287
     26  O         21.5740   31.3360  140.8950 O.2    72  ILE72      -0.2864
     27  CB        19.1100   33.2190  141.9100 C.3    72  ILE72       0.0276
     28  CG1       18.5930   31.7850  142.0790 C.3    72  ILE72       0.0022
     29  CG2       18.6430   33.7270  140.5610 C.3    72  ILE72       0.0022
     30  CD1       18.8860   31.1950  143.4240 C.3    72  ILE72       0.0001
     31  N         24.4060   33.3370  139.5910 N.3    74  VAL74      -0.1231
     32  CA        25.7830   33.0750  140.0100 C.3    74  VAL74       0.1692
     33  C         25.8300   31.8130  140.8640 C.2    74  VAL74       0.2592
     34  O         26.6970   30.9500  140.6830 O.2    74  VAL74      -0.2718
     35  CB        26.3710   34.2790  140.7690 C.3    74  VAL74       0.0266
     36  CG1       27.7530   33.9300  141.3240 C.3    74  VAL74       0.0020
     37  CG2       26.4440   35.5160  139.8690 C.3    74  VAL74       0.0020
     38  N         24.8890   31.6840  141.7990 N.am   75  TYR75      -0.1976
     39  CA        24.8400   30.5060  142.6530 C.3    75  TYR75       0.1639
     40  C         24.6240   29.2360  141.8380 C.2    75  TYR75       0.2290
     41  O         25.2640   28.2120  142.0940 O.2    75  TYR75      -0.2864
     42  CB        23.7410   30.6550  143.7070 C.3    75  TYR75       0.0560
     43  CG        23.6830   29.4560  144.6240 C.ar   75  TYR75      -0.0198
     44  CD1       24.4500   29.4060  145.7860 C.ar   75  TYR75      -0.0009
     45  CD2       22.8980   28.3530  144.3090 C.ar   75  TYR75      -0.0009
     46  CE1       24.4210   28.3000  146.6140 C.ar   75  TYR75       0.0417
     47  CE2       22.8660   27.2410  145.1350 C.ar   75  TYR75       0.0417
     48  CZ        23.6240   27.2240  146.2850 C.ar   75  TYR75       0.1957
     49  OH        23.5880   26.1260  147.1060 O.3    75  TYR75      -0.2866
     50  N         27.8700   28.1600  140.0530 N.3    78  LEU78      -0.1231
     51  CA        28.9910   27.6820  140.8540 C.3    78  LEU78       0.1693
     52  C         28.6380   26.4810  141.7270 C.2    78  LEU78       0.2591
     53  O         29.4950   25.6240  141.9570 O.2    78  LEU78      -0.2718
     54  CB        29.5170   28.8160  141.7310 C.3    78  LEU78       0.0284
     55  CG        29.9480   30.0680  140.9490 C.3    78  LEU78       0.0019
     56  CD1       30.4630   31.1600  141.8870 C.3    78  LEU78       0.0001
     57  CD2       30.9970   29.7010  139.8900 C.3    78  LEU78       0.0001
     58  N         27.4050   26.4060  142.2300 N.am   79  ALA79      -0.1980
     59  CA        27.0010   25.3420  143.1320 C.3    79  ALA79       0.1597
     60  C         26.2690   24.2100  142.4240 C.2    79  ALA79       0.2287
     61  O         26.2160   23.0980  142.9620 O.2    79  ALA79      -0.2864
     62  CB        26.1200   25.9050  144.2530 C.3    79  ALA79       0.0319
     63  N         16.9290   25.9090  147.8970 N.3    84  PHE84      -0.1241
     64  CA        16.0340   26.8970  148.4880 C.3    84  PHE84       0.1605
     65  C         14.5740   26.4600  148.5830 C.2    84  PHE84       0.2264
     66  O         13.7560   27.2230  149.1040 O.2    84  PHE84      -0.2867
     67  CB        16.1350   28.2080  147.7040 C.3    84  PHE84       0.0534
     68  CG        17.5480   28.6350  147.4570 C.ar   84  PHE84      -0.0203
     69  CD1       18.1200   28.4960  146.2010 C.ar   84  PHE84      -0.0042
     70  CD2       18.3240   29.1300  148.4940 C.ar   84  PHE84      -0.0042
     71  CE1       19.4350   28.8710  145.9770 C.ar   84  PHE84      -0.0003
     72  CE2       19.6360   29.5090  148.2750 C.ar   84  PHE84      -0.0003
     73  CZ        20.1930   29.3770  147.0130 C.ar   84  PHE84      -0.0000
     74  N         10.6770   29.2800  146.7600 N.3    88  MET88      -0.1245
     75  CA        11.6360   30.1300  146.0690 C.3    88  MET88       0.1570
     76  C         11.7830   29.7240  144.6060 C.2    88  MET88       0.2261
     77  O         12.0000   30.5840  143.7490 O.2    88  MET88      -0.2867
     78  CB        12.9790   30.0830  146.7880 C.3    88  MET88       0.0387
     79  CG        12.9570   30.7660  148.1480 C.3    88  MET88       0.0595
     80  SD        12.6490   32.5340  147.9290 S.3    88  MET88      -0.1393
     81  CE        14.1580   33.0310  147.0990 C.3    88  MET88       0.0692
     82  N          8.9680   31.7360  143.2210 N.3    91  LEU91      -0.1231
     83  CA         8.9760   33.1810  143.4390 C.3    91  LEU91       0.1693
     84  C         10.0560   33.8750  142.6240 C.2    91  LEU91       0.2591
     85  O          9.8410   34.9790  142.1100 O.2    91  LEU91      -0.2718
     86  CB         9.1570   33.4570  144.9300 C.3    91  LEU91       0.0284
     87  CG         9.1820   34.9070  145.3980 C.3    91  LEU91       0.0019
     88  CD1        7.8130   35.5440  145.2030 C.3    91  LEU91       0.0001
     89  CD2        9.6270   34.9880  146.8540 C.3    91  LEU91       0.0001
     90  N         11.2260   33.2460  142.4860 N.am   92  VAL92      -0.1980
     91  CA        12.3450   33.9050  141.8000 C.3    92  VAL92       0.1595
     92  C         12.0240   34.1860  140.3350 C.2    92  VAL92       0.2287
     93  O         12.1110   35.3550  139.9200 O.2    92  VAL92      -0.2864
     94  CB        13.6400   33.0970  141.9850 C.3    92  VAL92       0.0276
     95  CG1       14.7430   33.6430  141.0670 C.3    92  VAL92       0.0022
     96  CG2       14.0780   33.1450  143.4410 C.3    92  VAL92       0.0022
     97  N          9.2160   36.9970  140.1870 N.3    95  ILE95      -0.1245
     98  CA         9.7200   38.3570  140.3720 C.3    95  ILE95       0.1561
     99  C         10.6020   38.7730  139.2020 C.2    95  ILE95       0.2260
    100  O         10.5740   39.9310  138.7580 O.2    95  ILE95      -0.2867
    101  CB        10.4660   38.4660  141.7130 C.3    95  ILE95       0.0252
    102  CG1        9.4770   38.2860  142.8670 C.3    95  ILE95       0.0019
    103  CG2       11.2000   39.8250  141.7980 C.3    95  ILE95       0.0019
    104  CD1       10.1310   38.0520  144.2190 C.3    95  ILE95       0.0001
@<TRIPOS>BOND
     1   100    99    2
     2    99    98    1
     3    31    32    1
     4    14    12    1
     5    37    35    1
     6    57    55    1
     7    93    92    2
     8    32    35    1
     9    32    33    1
    10    50    51    1
    11    97    98    1
    12    92    91    1
    13    98   101    1
    14    10    11    2
    15    10     9    1
    16    29    27    1
    17    34    33    2
    18    35    36    1
    19    25    26    2
    20    25    24    1
    21    51    52    1
    22    51    54    1
    23    33    38   am
    24    55    54    1
    25    55    56    1
    26    95    94    1
    27    12    13    1
    28    12     9    1
    29     1     2    1
    30    13    15    1
    31     9     8    1
    32    16    22    1
    33    16    17    1
    34     8     3   am
    35   101   103    1
    36   101   102    1
    37    52    53    2
    38    52    58   am
    39    38    39    1
    40    91    94    1
    41    91    90    1
    42    40    41    2
    43    40    39    1
    44    27    24    1
    45    27    28    1
    46    94    96    1
    47    24    23    1
    48    22    21    1
    49    28    30    1
    50    85    84    2
    51    23    18   am
    52    58    59    1
    53    60    61    2
    54    60    59    1
    55     3     2    1
    56     3     4    2
    57    18    17    1
    58    18    19    2
    59    90    84   am
    60     2     5    1
    61    17    20    1
    62    84    83    1
    63    39    42    1
    64   102   104    1
    65    59    62    1
    66    82    83    1
    67    83    86    1
    68    21    20    1
    69     5     7    1
    70     5     6    1
    71    42    43    1
    72    77    76    2
    73    45    43   ar
    74    45    47   ar
    75    76    75    1
    76    43    44   ar
    77    86    87    1
    78    47    48   ar
    79    88    87    1
    80    87    89    1
    81    44    46   ar
    82    71    69   ar
    83    71    73   ar
    84    75    74    1
    85    75    78    1
    86    69    68   ar
    87    48    46   ar
    88    48    49    1
    89    78    79    1
    90    73    72   ar
    91    81    80    1
    92    68    67    1
    93    68    70   ar
    94    67    64    1
    95    63    64    1
    96    80    79    1
    97    72    70   ar
    98    64    65    1
    99    65    66    2
