@<TRIPOS>MOLECULE
tmp/6iglA01.pdb
 87 84 0 0 0
SMALL
GASTEIGER

@<TRIPOS>ATOM
      1  N         12.1550   48.1630  -13.1460 N.3   111  ILE111     -0.1245
      2  CA        10.8770   48.6970  -13.6040 C.3   111  ILE111      0.1561
      3  C         10.4860   49.9200  -12.7860 C.2   111  ILE111      0.2260
      4  O          9.9910   50.9140  -13.3310 O.2   111  ILE111     -0.2867
      5  CB         9.7900   47.6080  -13.5470 C.3   111  ILE111      0.0252
      6  CG1       10.1430   46.4510  -14.4830 C.3   111  ILE111      0.0019
      7  CG2        8.4260   48.1880  -13.9060 C.3   111  ILE111      0.0019
      8  CD1        9.1720   45.2980  -14.4100 C.3   111  ILE111      0.0001
      9  N         12.5390   53.0200  -13.7710 N.3   114  TYR114     -0.1227
     10  CA        12.1490   53.5390  -15.0780 C.3   114  TYR114      0.1736
     11  C         10.9000   54.4060  -14.9760 C.2   114  TYR114      0.2595
     12  O         10.8300   55.4760  -15.5920 O.2   114  TYR114     -0.2718
     13  CB        11.9280   52.3870  -16.0580 C.3   114  TYR114      0.0548
     14  CG        11.0280   52.7470  -17.2200 C.ar  114  TYR114     -0.0200
     15  CD1       11.4670   53.5950  -18.2290 C.ar  114  TYR114     -0.0009
     16  CD2        9.7380   52.2410  -17.3060 C.ar  114  TYR114     -0.0009
     17  CE1       10.6450   53.9300  -19.2890 C.ar  114  TYR114      0.0417
     18  CE2        8.9100   52.5700  -18.3620 C.ar  114  TYR114      0.0417
     19  CZ         9.3690   53.4130  -19.3510 C.ar  114  TYR114      0.1957
     20  OH         8.5490   53.7420  -20.4050 O.3   114  TYR114     -0.2866
     21  N          9.9040   53.9650  -14.2030 N.am  115  ARG115     -0.1980
     22  CA         8.6820   54.7440  -14.0470 C.3   115  ARG115      0.1597
     23  C          8.9010   56.0120  -13.2340 C.2   115  ARG115      0.2287
     24  O          8.0880   56.9370  -13.3220 O.2   115  ARG115     -0.2864
     25  CB         7.5880   53.8990  -13.3880 C.3   115  ARG115      0.0334
     26  CG         7.1830   52.6710  -14.1850 C.3   115  ARG115      0.0492
     27  CD         5.9080   52.0400  -13.6410 C.3   115  ARG115      0.2205
     28  NE         4.7330   52.8700  -13.8950 N.pl3 115  ARG115     -0.0865
     29  CZ         3.4850   52.5070  -13.6170 C.cat 115  ARG115      0.5346
     30  NH1        3.2400   51.3210  -13.0750 N.pl3 115  ARG115      0.1354
     31  NH2        2.4790   53.3300  -13.8840 N.pl3 115  ARG115      0.1354
     32  N         16.2840   35.7060  -18.4960 N.3   198  LEU198     -0.1245
     33  CA        15.1160   36.5820  -18.4060 C.3   198  LEU198      0.1561
     34  C         15.3690   37.8000  -17.5250 C.2   198  LEU198      0.2260
     35  O         14.9980   38.9140  -17.9340 O.2   198  LEU198     -0.2867
     36  CB        13.8980   35.7850  -17.9330 C.3   198  LEU198      0.0270
     37  CG        12.5610   36.4960  -18.1540 C.3   198  LEU198      0.0019
     38  CD1       12.2500   36.6010  -19.6420 C.3   198  LEU198      0.0001
     39  CD2       11.4350   35.7970  -17.4090 C.3   198  LEU198      0.0001
     40  N         17.6560   40.1550  -19.4480 N.3   201  ALA201     -0.1231
     41  CA        16.9730   40.7690  -20.5820 C.3   201  ALA201      0.1694
     42  C         15.9410   41.7890  -20.1200 C.2   201  ALA201      0.2591
     43  O         15.7700   42.8360  -20.7550 O.2   201  ALA201     -0.2718
     44  CB        16.3160   39.6970  -21.4490 C.3   201  ALA201      0.0304
     45  N         15.2450   41.5050  -19.0180 N.am  202  ILE202     -0.1980
     46  CA        14.2280   42.4320  -18.5300 C.3   202  ILE202      0.1595
     47  C         14.8760   43.6790  -17.9390 C.2   202  ILE202      0.2287
     48  O         14.4450   44.8060  -18.2100 O.2   202  ILE202     -0.2864
     49  CB        13.3070   41.7310  -17.5140 C.3   202  ILE202      0.0276
     50  CG1       12.3650   40.7620  -18.2310 C.3   202  ILE202      0.0022
     51  CG2       12.5160   42.7500  -16.7100 C.3   202  ILE202      0.0022
     52  CD1       11.3630   40.0950  -17.3170 C.3   202  ILE202      0.0001
     53  N         17.9440   44.8910  -18.5400 N.3   204  ALA204     -0.1231
     54  CA        18.6170   45.6570  -19.5840 C.3   204  ALA204      0.1694
     55  C         17.6260   46.4490  -20.4270 C.2   204  ALA204      0.2592
     56  O         17.9570   47.5360  -20.9160 O.2   204  ALA204     -0.2718
     57  CB        19.4430   44.7280  -20.4730 C.3   204  ALA204      0.0304
     58  N         16.4120   45.9280  -20.6050 N.am  205  PHE205     -0.1962
     59  CA        15.4080   46.6440  -21.3840 C.3   205  PHE205      0.1771
     60  C         14.9120   47.8760  -20.6370 C.2   205  PHE205      0.2619
     61  O         14.9000   48.9840  -21.1860 O.2   205  PHE205     -0.2715
     62  CB        14.2450   45.7110  -21.7260 C.3   205  PHE205      0.0574
     63  CG        13.1500   46.3720  -22.5130 C.ar  205  PHE205     -0.0200
     64  CD1       13.3390   46.7040  -23.8430 C.ar  205  PHE205     -0.0042
     65  CD2       11.9290   46.6590  -21.9260 C.ar  205  PHE205     -0.0042
     66  CE1       12.3350   47.3130  -24.5720 C.ar  205  PHE205     -0.0003
     67  CE2       10.9210   47.2660  -22.6510 C.ar  205  PHE205     -0.0003
     68  CZ        11.1250   47.5940  -23.9750 C.ar  205  PHE205     -0.0000
     69  N         14.5050   47.7040  -19.3760 N.am  206  PHE206     -0.1974
     70  CA        13.9560   48.8290  -18.6250 C.3   206  PHE206      0.1639
     71  C         15.0370   49.8170  -18.2070 C.2   206  PHE206      0.2290
     72  O         14.7560   51.0140  -18.0730 O.2   206  PHE206     -0.2864
     73  CB        13.1810   48.3250  -17.4080 C.3   206  PHE206      0.0560
     74  CG        11.8300   47.7590  -17.7480 C.ar  206  PHE206     -0.0200
     75  CD1       10.7590   48.6000  -17.9970 C.ar  206  PHE206     -0.0042
     76  CD2       11.6330   46.3910  -17.8240 C.ar  206  PHE206     -0.0042
     77  CE1        9.5150   48.0880  -18.3140 C.ar  206  PHE206     -0.0003
     78  CE2       10.3910   45.8720  -18.1410 C.ar  206  PHE206     -0.0003
     79  CZ         9.3310   46.7230  -18.3860 C.ar  206  PHE206     -0.0000
     80  N         15.3400   51.9710  -21.3620 N.3   209  LEU209     -0.1245
     81  CA        14.2510   52.9370  -21.4440 C.3   209  LEU209      0.1561
     82  C         14.4100   54.0510  -20.4180 C.2   209  LEU209      0.2260
     83  O         14.0320   55.1980  -20.6840 O.2   209  LEU209     -0.2867
     84  CB        12.9070   52.2360  -21.2530 C.3   209  LEU209      0.0270
     85  CG        12.4530   51.2350  -22.3120 C.3   209  LEU209      0.0019
     86  CD1       11.0540   50.7390  -21.9850 C.3   209  LEU209      0.0001
     87  CD2       12.4930   51.8620  -23.6940 C.3   209  LEU209      0.0001
@<TRIPOS>BOND
     1    66    68   ar
     2    66    64   ar
     3    68    67   ar
     4    64    63   ar
     5    87    85    1
     6    67    65   ar
     7    63    65   ar
     8    63    62    1
     9    85    86    1
    10    85    84    1
    11    62    59    1
    12    44    41    1
    13    81    80    1
    14    81    84    1
    15    81    82    1
    16    59    60    1
    17    59    58    1
    18    61    60    2
    19    56    55    2
    20    43    42    2
    21    83    82    2
    22    60    69   am
    23    58    55   am
    24    41    42    1
    25    41    40    1
    26    57    54    1
    27    55    54    1
    28    20    19    1
    29    42    45   am
    30    38    37    1
    31    54    53    1
    32    69    70    1
    33    19    17   ar
    34    19    18   ar
    35    17    15   ar
    36    45    46    1
    37    70    71    1
    38    70    73    1
    39    46    47    1
    40    46    49    1
    41    32    33    1
    42    33    36    1
    43    33    34    1
    44    79    77   ar
    45    79    78   ar
    46    18    16   ar
    47    77    75   ar
    48    50    49    1
    49    50    52    1
    50    15    14   ar
    51    48    47    2
    52    71    72    2
    53    37    36    1
    54    37    39    1
    55    78    76   ar
    56    75    74   ar
    57    35    34    2
    58    76    74   ar
    59    74    73    1
    60    49    51    1
    61    16    14   ar
    62    14    13    1
    63    13    10    1
    64    12    11    2
    65    10    11    1
    66    10     9    1
    67    11    21   am
    68     6     8    1
    69     6     5    1
    70    21    22    1
    71    26    27    1
    72    26    25    1
    73    22    25    1
    74    22    23    1
    75     7     5    1
    76    28    27    1
    77    28    29    2
    78    31    29    1
    79    29    30    1
    80     2     5    1
    81     2     1    1
    82     2     3    1
    83     4     3    2
    84    24    23    2
