@<TRIPOS>MOLECULE
tmp/6iglA03.pdb
 105 98 0 0 0
SMALL
GASTEIGER

@<TRIPOS>ATOM
      1  N         16.2710   49.3480  -17.9960 N.3   207  TYR207     -0.1241
      2  CA        17.3720   50.2800  -17.7730 C.3   207  TYR207      0.1605
      3  C         17.6030   51.1460  -19.0030 C.2   207  TYR207      0.2264
      4  O         17.8780   52.3460  -18.8850 O.2   207  TYR207     -0.2867
      5  CB        18.6510   49.5240  -17.4080 C.3   207  TYR207      0.0534
      6  CG        19.8780   50.4080  -17.3080 C.ar  207  TYR207     -0.0201
      7  CD1       20.1960   51.0550  -16.1240 C.ar  207  TYR207     -0.0009
      8  CD2       20.7170   50.5950  -18.4000 C.ar  207  TYR207     -0.0009
      9  CE1       21.3110   51.8630  -16.0250 C.ar  207  TYR207      0.0417
     10  CE2       21.8350   51.4050  -18.3110 C.ar  207  TYR207      0.0417
     11  CZ        22.1270   52.0360  -17.1210 C.ar  207  TYR207      0.1957
     12  OH        23.2380   52.8420  -17.0250 O.3   207  TYR207     -0.2866
     13  N         27.0210   64.3410  -27.4660 N.3   311  ARG311     -0.1245
     14  CA        27.4590   65.2930  -28.4780 C.3   311  ARG311      0.1563
     15  C         26.3580   65.6180  -29.4800 C.2   311  ARG311      0.2260
     16  O         26.3500   66.7170  -30.0460 O.2   311  ARG311     -0.2867
     17  CB        28.7010   64.7570  -29.1890 C.3   311  ARG311      0.0307
     18  CG        29.9060   64.6520  -28.2690 C.3   311  ARG311      0.0489
     19  CD        31.1540   64.2630  -29.0290 C.3   311  ARG311      0.2205
     20  NE        32.3540   64.3460  -28.2020 N.pl3 311  ARG311     -0.0865
     21  CZ        32.8910   63.3180  -27.5550 C.cat 311  ARG311      0.5346
     22  NH1       32.3350   62.1160  -27.6370 N.pl3 311  ARG311      0.1354
     23  NH2       33.9870   63.4900  -26.8290 N.pl3 311  ARG311      0.1354
     24  N         34.1120   68.5870  -26.7040 N.3   370  ARG370     -0.1231
     25  CA        35.4620   68.1350  -26.3880 C.3   370  ARG370      0.1694
     26  C         35.4420   66.8940  -25.5030 C.2   370  ARG370      0.2592
     27  O         36.1570   65.9210  -25.7670 O.2   370  ARG370     -0.2718
     28  CB        36.2410   69.2660  -25.7130 C.3   370  ARG370      0.0321
     29  CG        37.6580   68.8950  -25.3110 C.3   370  ARG370      0.0489
     30  CD        38.4050   70.0850  -24.7280 C.3   370  ARG370      0.2205
     31  NE        37.7680   70.5880  -23.5140 N.pl3 370  ARG370     -0.0865
     32  CZ        38.0070   70.1170  -22.2940 C.cat 370  ARG370      0.5346
     33  NH1       37.3800   70.6350  -21.2460 N.pl3 370  ARG370      0.1354
     34  NH2       38.8720   69.1260  -22.1230 N.pl3 370  ARG370      0.1354
     35  N         34.6240   66.9080  -24.4520 N.am  371  THR371     -0.1953
     36  CA        34.6300   65.8440  -23.4540 C.3   371  THR371      0.1897
     37  C         33.5900   64.7620  -23.7040 C.2   371  THR371      0.2313
     38  O         33.8350   63.5990  -23.3730 O.2   371  THR371     -0.2863
     39  CB        34.4070   66.4280  -22.0540 C.3   371  THR371      0.1794
     40  OG1       33.0750   66.9470  -21.9530 O.3   371  THR371     -0.2208
     41  CG2       35.4030   67.5480  -21.7780 C.3   371  THR371      0.0378
     42  N         30.6700   64.7360  -22.1770 N.3   373  THR373     -0.1218
     43  CA        29.9890   64.5780  -20.9010 C.3   373  THR373      0.1862
     44  C         29.1320   65.8090  -20.6330 C.2   373  THR373      0.2287
     45  O         29.2250   66.8250  -21.3270 O.2   373  THR373     -0.2866
     46  CB        30.9860   64.3690  -19.7490 C.3   373  THR373      0.1770
     47  OG1       31.7310   65.5740  -19.5310 O.3   373  THR373     -0.2211
     48  CG2       31.9520   63.2400  -20.0740 C.3   373  THR373      0.0375
     49  N         29.4320   67.6580  -18.0390 N.3   375  ASP375     -0.1239
     50  CA        30.1300   68.3420  -16.9540 C.3   375  ASP375      0.1674
     51  C         29.9050   69.8470  -16.9880 C.2   375  ASP375      0.2266
     52  O         29.9600   70.5030  -15.9420 O.2   375  ASP375     -0.2867
     53  CB        31.6250   68.0220  -17.0100 C.3   375  ASP375      0.1410
     54  CG        31.9350   66.6070  -16.5580 C.2   375  ASP375      0.3668
     55  OD1       31.0160   65.9260  -16.0540 O.co2 375  ASP375     -0.2456
     56  OD2       33.0980   66.1750  -16.7090 O.co2 375  ASP375     -0.2456
     57  N         21.7110   60.6590  -12.2360 N.3   386  ARG386     -0.1245
     58  CA        22.9870   59.9640  -12.4030 C.3   386  ARG386      0.1563
     59  C         23.2210   58.9480  -11.2920 C.2   386  ARG386      0.2260
     60  O         23.7830   57.8760  -11.5370 O.2   386  ARG386     -0.2867
     61  CB        24.1340   60.9780  -12.4330 C.3   386  ARG386      0.0307
     62  CG        25.5230   60.3790  -12.5990 C.3   386  ARG386      0.0489
     63  CD        26.5840   61.4510  -12.5590 C.3   386  ARG386      0.2205
     64  NE        26.6470   62.2110  -13.7940 N.pl3 386  ARG386     -0.0865
     65  CZ        27.5430   63.1580  -14.0290 C.cat 386  ARG386      0.5346
     66  NH1       28.4580   63.4710  -13.1180 N.pl3 386  ARG386      0.1354
     67  NH2       27.5130   63.8010  -15.1840 N.pl3 386  ARG386      0.1354
     68  N         20.8250   55.8900  -11.9760 N.3   389  ALA389     -0.1231
     69  CA        21.2890   55.0430  -13.0710 C.3   389  ALA389      0.1694
     70  C         22.5030   54.2180  -12.6600 C.2   389  ALA389      0.2591
     71  O         22.6340   53.0540  -13.0560 O.2   389  ALA389     -0.2718
     72  CB        21.6050   55.9020  -14.2950 C.3   389  ALA389      0.0304
     73  N         23.4050   54.8020  -11.8680 N.am  390  LYS390     -0.1980
     74  CA        24.5430   54.0370  -11.3680 C.3   390  LYS390      0.1596
     75  C         24.1030   52.9300  -10.4220 C.2   390  LYS390      0.2287
     76  O         24.7250   51.8610  -10.3880 O.2   390  LYS390     -0.2864
     77  CB        25.5350   54.9560  -10.6540 C.3   390  LYS390      0.0298
     78  CG        26.4100   55.7840  -11.5660 C.3   390  LYS390      0.0038
     79  CD        27.4230   56.6010  -10.7810 C.3   390  LYS390      0.0206
     80  CE        28.5230   57.1060  -11.7030 C.3   390  LYS390      0.1093
     81  NZ        29.3680   58.1680  -11.0870 N.3   390  LYS390     -0.1314
     82  N         22.5640   49.9360  -12.4440 N.3   393  PHE393     -0.1227
     83  CA        23.5440   49.3600  -13.3600 C.3   393  PHE393      0.1736
     84  C         24.5100   48.4420  -12.6260 C.2   393  PHE393      0.2595
     85  O         24.8560   47.3660  -13.1250 O.2   393  PHE393     -0.2718
     86  CB        24.3150   50.4620  -14.0890 C.3   393  PHE393      0.0547
     87  CG        25.4020   49.9420  -14.9940 C.ar  393  PHE393     -0.0202
     88  CD1       25.1150   49.5630  -16.2950 C.ar  393  PHE393     -0.0042
     89  CD2       26.7090   49.8250  -14.5400 C.ar  393  PHE393     -0.0042
     90  CE1       26.1080   49.0790  -17.1270 C.ar  393  PHE393     -0.0003
     91  CE2       27.7060   49.3400  -15.3680 C.ar  393  PHE393     -0.0003
     92  CZ        27.4040   48.9680  -16.6630 C.ar  393  PHE393     -0.0000
     93  N         24.9660   48.8540  -11.4430 N.am  394  CYS394     -0.1970
     94  CA        25.9220   48.0360  -10.7070 C.3   394  CYS394      0.1712
     95  C         25.2560   46.7990  -10.1210 C.2   394  CYS394      0.2296
     96  O         25.8720   45.7280  -10.0570 O.2   394  CYS394     -0.2864
     97  CB        26.5830   48.8640   -9.6070 C.3   394  CYS394      0.0983
     98  SG        27.5650   50.2440  -10.2300 S.3   394  CYS394     -0.0798
     99  N         28.5330   53.7390   -5.0900 N.3   456  VAL456     -0.1245
    100  CA        27.7740   54.5680   -6.0160 C.3   456  VAL456      0.1561
    101  C         26.7570   55.4670   -5.3230 C.2   456  VAL456      0.2260
    102  O         26.2990   56.4400   -5.9410 O.2   456  VAL456     -0.2867
    103  CB        27.0740   53.7100   -7.0910 C.3   456  VAL456      0.0252
    104  CG1       28.0820   52.8130   -7.7890 C.3   456  VAL456      0.0019
    105  CG2       25.9520   52.8920   -6.4760 C.3   456  VAL456      0.0019
@<TRIPOS>BOND
     1    16    15    2
     2    15    14    1
     3    17    14    1
     4    17    18    1
     5    19    18    1
     6    19    20    1
     7    14    13    1
     8    20    21    2
     9    22    21    1
    10    21    23    1
    11    24    25    1
    12    25    28    1
    13    25    26    1
    14    27    26    2
    15    28    29    1
    16    26    35   am
    17    29    30    1
    18    30    31    1
    19    35    36    1
    20    37    36    1
    21    37    38    2
    22    31    32    2
    23    36    39    1
    24    32    34    1
    25    32    33    1
    26    42    43    1
    27    39    40    1
    28    39    41    1
    29    45    44    2
    30    43    44    1
    31    43    46    1
    32    48    46    1
    33    46    47    1
    34     3     4    2
    35     3     2    1
    36     8    10   ar
    37     8     6   ar
    38    10    11   ar
    39    49    50    1
    40     1     2    1
    41     2     5    1
    42     5     6    1
    43     6     7   ar
    44    90    92   ar
    45    90    88   ar
    46    11    12    1
    47    11     9   ar
    48    53    50    1
    49    53    54    1
    50    51    50    1
    51    51    52    2
    52    56    54   ar
    53    92    91   ar
    54    54    55   ar
    55    88    87   ar
    56     7     9   ar
    57    91    89   ar
    58    67    65    1
    59    87    89   ar
    60    87    86    1
    61    72    69    1
    62    86    83    1
    63    65    64    2
    64    65    66    1
    65    64    63    1
    66    83    84    1
    67    83    82    1
    68    85    84    2
    69    69    70    1
    70    69    68    1
    71    71    70    2
    72    70    73   am
    73    84    93   am
    74    62    63    1
    75    62    61    1
    76    61    58    1
    77    58    57    1
    78    58    59    1
    79    73    74    1
    80    80    81    1
    81    80    79    1
    82    78    79    1
    83    78    77    1
    84    60    59    2
    85    93    94    1
    86    74    77    1
    87    74    75    1
    88    94    95    1
    89    94    97    1
    90    75    76    2
    91    98    97    1
    92    95    96    2
    93   104   103    1
    94   103   105    1
    95   103   100    1
    96   100   101    1
    97   100    99    1
    98   102   101    2
