@<TRIPOS>MOLECULE
tmp/6igxC00.pdb
 80 76 0 0 0
SMALL
GASTEIGER

@<TRIPOS>ATOM
      1  N        358.5830   28.5570  433.9490 N.3   110  GLY110     -0.1225
      2  CA       359.1640   28.9480  432.6770 C.3   110  GLY110      0.1811
      3  C        358.3810   28.3830  431.5120 C.2   110  GLY110      0.2280
      4  O        358.5240   28.8240  430.3720 O.2   110  GLY110     -0.2866
      5  N        352.2110   33.6610  429.2070 N.3   114  GLU114     -0.1245
      6  CA       352.4120   35.0510  429.5940 C.3   114  GLU114      0.1567
      7  C        351.1000   35.7220  429.9850 C.2   114  GLU114      0.2260
      8  O        351.0130   36.3710  431.0280 O.2   114  GLU114     -0.2867
      9  CB       353.0840   35.8210  428.4550 C.3   114  GLU114      0.0388
     10  CG       354.4910   35.3340  428.1340 C.3   114  GLU114      0.1160
     11  CD       354.9490   35.7300  426.7430 C.2   114  GLU114      0.3649
     12  OE1      354.1000   36.1700  425.9380 O.co2 114  GLU114     -0.2457
     13  OE2      356.1570   35.5980  426.4530 O.co2 114  GLU114     -0.2457
     14  N        348.8440   32.7800  433.5780 N.3   115  ALA115     -0.1231
     15  CA       349.5700   34.0060  433.8900 C.3   115  ALA115      0.1694
     16  C        349.3520   34.4150  435.3410 C.2   115  ALA115      0.2592
     17  O        349.5710   35.5690  435.7100 O.2   115  ALA115     -0.2718
     18  CB       349.1440   35.1270  432.9550 C.3   115  ALA115      0.0304
     19  N        348.9240   33.4630  436.1640 N.am  116  GLN116     -0.1966
     20  CA       348.6060   33.7560  437.5540 C.3   116  GLN116      0.1733
     21  C        348.6220   32.4950  438.4150 C.2   116  GLN116      0.2616
     22  O        348.0370   31.4740  438.0520 O.2   116  GLN116     -0.2715
     23  CB       347.2410   34.4450  437.6440 C.3   116  GLN116      0.0408
     24  CG       346.9960   35.2020  438.9380 C.3   116  GLN116      0.0908
     25  CD       345.8260   36.1610  438.8320 C.2   116  GLN116      0.2608
     26  OE1      345.9360   37.3330  439.1940 O.2   116  GLN116     -0.2717
     27  NE2      344.6980   35.6690  438.3320 N.am  116  GLN116     -0.0878
     28  N        349.3050   32.5720  439.5520 N.am  117  ILE117     -0.1977
     29  CA       349.3380   31.4700  440.5040 C.3   117  ILE117      0.1596
     30  C        348.7090   31.9050  441.8230 C.2   117  ILE117      0.2287
     31  O        348.7730   33.0800  442.1870 O.2   117  ILE117     -0.2864
     32  CB       350.7740   30.9650  440.7560 C.3   117  ILE117      0.0276
     33  CG1      351.8030   31.9920  440.2770 C.3   117  ILE117      0.0022
     34  CG2      351.0000   29.6390  440.0470 C.3   117  ILE117      0.0022
     35  CD1      352.1010   31.9210  438.7910 C.3   117  ILE117      0.0001
     36  N        352.0170   31.2180  445.6120 N.3   122  PHE122     -0.1241
     37  CA       352.9460   32.2890  445.2600 C.3   122  PHE122      0.1605
     38  C        353.7580   32.7650  446.4630 C.2   122  PHE122      0.2264
     39  O        354.9440   33.0680  446.3380 O.2   122  PHE122     -0.2867
     40  CB       352.1910   33.4710  444.6450 C.3   122  PHE122      0.0534
     41  CG       353.0840   34.5990  444.2120 C.ar  122  PHE122     -0.0203
     42  CD1      353.4120   35.6180  445.0900 C.ar  122  PHE122     -0.0042
     43  CD2      353.5970   34.6390  442.9260 C.ar  122  PHE122     -0.0042
     44  CE1      354.2360   36.6560  444.6950 C.ar  122  PHE122     -0.0003
     45  CE2      354.4220   35.6760  442.5240 C.ar  122  PHE122     -0.0003
     46  CZ       354.7410   36.6850  443.4100 C.ar  122  PHE122     -0.0000
     47  N        362.8480   34.4340  439.1100 N.3   149  SER149     -0.1202
     48  CA       363.0200   35.3890  438.0210 C.3   149  SER149      0.2020
     49  C        361.6960   36.0160  437.5980 C.2   149  SER149      0.2619
     50  O        361.5960   37.2330  437.4500 O.2   149  SER149     -0.2717
     51  CB       363.6780   34.7150  436.8170 C.3   149  SER149      0.2103
     52  OG       362.7180   34.0300  436.0340 O.3   149  SER149     -0.2182
     53  N        360.6840   35.1810  437.3940 N.am  150  ARG150     -0.1965
     54  CA       359.3740   35.6780  436.9960 C.3   150  ARG150      0.1729
     55  C        358.6710   36.4470  438.1120 C.2   150  ARG150      0.2616
     56  O        357.7540   37.2180  437.8510 O.2   150  ARG150     -0.2715
     57  CB       358.4860   34.5240  436.5270 C.3   150  ARG150      0.0348
     58  CG       359.0100   33.7970  435.3010 C.3   150  ARG150      0.0492
     59  CD       357.8740   33.1670  434.5150 C.3   150  ARG150      0.2205
     60  NE       357.0800   34.1690  433.8100 N.pl3 150  ARG150     -0.0865
     61  CZ       355.7850   34.0430  433.5390 C.cat 150  ARG150      0.5346
     62  NH1      355.1260   32.9580  433.9210 N.pl3 150  ARG150      0.1354
     63  NH2      355.1460   35.0080  432.8910 N.pl3 150  ARG150      0.1354
     64  N        359.1000   36.2530  439.3550 N.am  151  LEU151     -0.1963
     65  CA       358.3580   36.8190  440.4770 C.3   151  LEU151      0.1728
     66  C        358.9550   38.1250  441.0040 C.2   151  LEU151      0.2616
     67  O        358.7230   38.4950  442.1550 O.2   151  LEU151     -0.2715
     68  CB       358.2700   35.7970  441.6130 C.3   151  LEU151      0.0311
     69  CG       358.1060   34.3340  441.1930 C.3   151  LEU151      0.0022
     70  CD1      357.9980   33.4280  442.4090 C.3   151  LEU151      0.0001
     71  CD2      356.9030   34.1620  440.2830 C.3   151  LEU151      0.0001
     72  N        359.7170   38.8210  440.1640 N.am  152  GLN152     -0.1977
     73  CA       360.2770   40.1200  440.5380 C.3   152  GLN152      0.1601
     74  C        359.3190   41.2590  440.1690 C.2   152  GLN152      0.2287
     75  O        358.4190   41.0760  439.3490 O.2   152  GLN152     -0.2864
     76  CB       361.6430   40.3280  439.8820 C.3   152  GLN152      0.0394
     77  CG       361.6860   40.0060  438.4020 C.3   152  GLN152      0.0908
     78  CD       363.0580   40.2380  437.8030 C.2   152  GLN152      0.2608
     79  OE1      363.8660   40.9890  438.3500 O.2   152  GLN152     -0.2717
     80  NE2      363.3290   39.5910  436.6750 N.am  152  GLN152     -0.0878
@<TRIPOS>BOND
     1    12    11   ar
     2    13    11   ar
     3    11    10    1
     4    10     9    1
     5     9     6    1
     6     5     6    1
     7     6     7    1
     8     7     8    2
     9     4     3    2
    10     3     2    1
    11     2     1    1
    12    63    61    1
    13    18    15    1
    14    61    60    2
    15    61    62    1
    16    14    15    1
    17    60    59    1
    18    15    16    1
    19    59    58    1
    20    58    57    1
    21    16    17    2
    22    16    19   am
    23    52    51    1
    24    19    20    1
    25    57    54    1
    26    80    78   am
    27    51    48    1
    28    54    53    1
    29    54    55    1
    30    53    49   am
    31    50    49    2
    32    20    23    1
    33    20    21    1
    34    49    48    1
    35    23    24    1
    36    78    79    2
    37    78    77    1
    38    56    55    2
    39    48    47    1
    40    22    21    2
    41    55    64   am
    42    27    25   am
    43    77    76    1
    44    21    28   am
    45    35    33    1
    46    25    24    1
    47    25    26    2
    48    75    74    2
    49    64    65    1
    50    28    29    1
    51    76    73    1
    52    34    32    1
    53    72    73    1
    54    72    66   am
    55    74    73    1
    56    33    32    1
    57    71    69    1
    58    65    66    1
    59    65    68    1
    60    29    32    1
    61    29    30    1
    62    66    67    2
    63    69    68    1
    64    69    70    1
    65    30    31    2
    66    45    43   ar
    67    45    46   ar
    68    43    41   ar
    69    46    44   ar
    70    41    40    1
    71    41    42   ar
    72    40    37    1
    73    44    42   ar
    74    37    36    1
    75    37    38    1
    76    39    38    2
