@<TRIPOS>MOLECULE
tmp/6igzP00.pdb
 136 134 0 0 0
SMALL
GASTEIGER

@<TRIPOS>ATOM
      1  N        197.4490  210.4400  170.4220 N.3    38  TRP38      -0.1241
      2  CA       197.3410  211.8820  170.5790 C.3    38  TRP38       0.1605
      3  C        198.7110  212.5190  170.7420 C.2    38  TRP38       0.2264
      4  O        199.0880  213.4090  169.9740 O.2    38  TRP38      -0.2867
      5  CB       196.4410  212.1780  171.7750 C.3    38  TRP38       0.0550
      6  CG       196.3410  213.5900  172.1630 C.ar   38  TRP38       0.0003
      7  CD1      196.9340  214.1810  173.2290 C.ar   38  TRP38       0.0946
      8  CD2      195.5750  214.6000  171.5190 C.ar   38  TRP38       0.0152
      9  NE1      196.5970  215.5060  173.2870 N.ar   38  TRP38      -0.2442
     10  CE2      195.7610  215.7890  172.2440 C.ar   38  TRP38       0.0810
     11  CE3      194.7570  214.6180  170.3950 C.ar   38  TRP38       0.0012
     12  CZ2      195.1590  216.9800  171.8850 C.ar   38  TRP38       0.0191
     13  CZ3      194.1650  215.8000  170.0350 C.ar   38  TRP38       0.0001
     14  CH2      194.3660  216.9680  170.7770 C.ar   38  TRP38       0.0015
     15  N        201.0550  213.2290  167.8430 N.3    41  GLN41      -0.1231
     16  CA       200.7720  214.4440  167.0980 C.3    41  GLN41       0.1698
     17  C        201.1630  215.6770  167.8960 C.2    41  GLN41       0.2592
     18  O        201.6760  216.6460  167.3330 O.2    41  GLN41      -0.2718
     19  CB       199.2990  214.4890  166.7190 C.3    41  GLN41       0.0381
     20  CG       198.9390  215.6260  165.8100 C.3    41  GLN41       0.0905
     21  CD       197.5110  215.5410  165.3450 C.2    41  GLN41       0.2608
     22  OE1      196.8090  214.5770  165.6390 O.2    41  GLN41      -0.2717
     23  NE2      197.0690  216.5500  164.6170 N.am   41  GLN41      -0.0878
     24  N        200.9430  215.6560  169.2110 N.am   42  ALA42      -0.1980
     25  CA       201.3570  216.7820  170.0400 C.3    42  ALA42       0.1597
     26  C        202.8560  217.0070  169.9700 C.2    42  ALA42       0.2287
     27  O        203.3220  218.1420  170.1040 O.2    42  ALA42      -0.2864
     28  CB       200.9380  216.5570  171.4870 C.3    42  ALA42       0.0319
     29  N        203.6270  218.6560  166.2620 N.3    45  VAL45      -0.1231
     30  CA       203.2030  220.0510  166.2210 C.3    45  VAL45       0.1692
     31  C        204.1760  220.9170  167.0020 C.2    45  VAL45       0.2592
     32  O        204.5840  221.9860  166.5460 O.2    45  VAL45      -0.2718
     33  CB       201.7730  220.2000  166.7540 C.3    45  VAL45       0.0266
     34  CG1      201.3940  221.6430  166.7520 C.3    45  VAL45       0.0020
     35  CG2      200.8210  219.4050  165.9080 C.3    45  VAL45       0.0020
     36  N        204.5590  220.4720  168.1980 N.am   46  HIS46      -0.1976
     37  CA       205.6820  221.1050  168.8800 C.3    46  HIS46       0.1656
     38  C        206.9420  221.0360  168.0390 C.2    46  HIS46       0.2291
     39  O        207.5480  222.0620  167.7190 O.2    46  HIS46      -0.2864
     40  CB       205.9290  220.4580  170.2350 C.3    46  HIS46       0.0771
     41  CG       205.0250  220.9480  171.3070 C.ar   46  HIS46       0.0820
     42  ND1      204.8510  220.2830  172.4990 N.ar   46  HIS46      -0.2267
     43  CD2      204.2910  222.0760  171.3950 C.ar   46  HIS46       0.1154
     44  CE1      204.0190  220.9660  173.2620 C.ar   46  HIS46       0.1986
     45  NE2      203.6610  222.0570  172.6130 N.ar   46  HIS46      -0.2212
     46  N        206.7520  223.5390  165.1990 N.3    49  PHE49      -0.1241
     47  CA       206.8760  224.9280  165.6310 C.3    49  PHE49       0.1605
     48  C        208.2760  225.2210  166.1280 C.2    49  PHE49       0.2264
     49  O        208.8630  226.2510  165.7870 O.2    49  PHE49      -0.2867
     50  CB       205.8630  225.2780  166.7190 C.3    49  PHE49       0.0534
     51  CG       204.4940  225.5490  166.2070 C.ar   49  PHE49      -0.0203
     52  CD1      204.2330  226.7170  165.5300 C.ar   49  PHE49      -0.0042
     53  CD2      203.4560  224.6900  166.4640 C.ar   49  PHE49      -0.0042
     54  CE1      202.9850  226.9890  165.0580 C.ar   49  PHE49      -0.0003
     55  CE2      202.1950  224.9640  166.0050 C.ar   49  PHE49      -0.0003
     56  CZ       201.9590  226.1140  165.3020 C.ar   49  PHE49      -0.0000
     57  N        194.8390  236.9530  165.0550 N.3    96  GLN96      -0.1231
     58  CA       195.5030  235.6570  165.1210 C.3    96  GLN96       0.1698
     59  C        194.5640  234.5800  165.6330 C.2    96  GLN96       0.2592
     60  O        194.2270  233.6360  164.9150 O.2    96  GLN96      -0.2718
     61  CB       196.7180  235.7530  166.0340 C.3    96  GLN96       0.0381
     62  CG       197.4030  234.4390  166.2510 C.3    96  GLN96       0.0905
     63  CD       198.5700  234.5580  167.1900 C.2    96  GLN96       0.2608
     64  OE1      198.9510  235.6540  167.5830 O.2    96  GLN96      -0.2717
     65  NE2      199.1310  233.4260  167.5810 N.am   96  GLN96      -0.0878
     66  N        194.1410  234.7140  166.8900 N.am   97  PHE97      -0.1962
     67  CA       193.3750  233.6820  167.5770 C.3    97  PHE97       0.1771
     68  C        192.2280  233.1820  166.7180 C.2    97  PHE97       0.2619
     69  O        192.0390  231.9760  166.5480 O.2    97  PHE97      -0.2715
     70  CB       192.8520  234.2550  168.8910 C.3    97  PHE97       0.0574
     71  CG       192.0290  233.3030  169.7000 C.ar   97  PHE97      -0.0200
     72  CD1      192.6300  232.4610  170.6200 C.ar   97  PHE97      -0.0042
     73  CD2      190.6470  233.2530  169.5480 C.ar   97  PHE97      -0.0042
     74  CE1      191.8690  231.5880  171.3860 C.ar   97  PHE97      -0.0003
     75  CE2      189.8770  232.3770  170.2980 C.ar   97  PHE97      -0.0003
     76  CZ       190.4890  231.5440  171.2230 C.ar   97  PHE97      -0.0000
     77  N        191.4500  234.1060  166.1650 N.am   98  LEU98      -0.1977
     78  CA       190.3660  233.7280  165.2680 C.3    98  LEU98       0.1596
     79  C        190.9040  233.0530  164.0200 C.2    98  LEU98       0.2287
     80  O        190.3030  232.1050  163.5080 O.2    98  LEU98      -0.2864
     81  CB       189.5500  234.9660  164.9010 C.3    98  LEU98       0.0297
     82  CG       188.3960  235.3730  165.8150 C.3    98  LEU98       0.0022
     83  CD1      188.8460  235.5820  167.2350 C.3    98  LEU98       0.0001
     84  CD2      187.8270  236.6580  165.3010 C.3    98  LEU98       0.0001
     85  N        194.0790  231.5170  163.3880 N.3   100  MET100     -0.1230
     86  CA       194.6800  230.2180  163.6770 C.3   100  MET100      0.1702
     87  C        193.6200  229.1950  164.0300 C.2   100  MET100      0.2592
     88  O        193.5150  228.1430  163.3950 O.2   100  MET100     -0.2718
     89  CB       195.6770  230.3360  164.8250 C.3   100  MET100      0.0401
     90  CG       196.9470  231.0630  164.4910 C.3   100  MET100      0.0596
     91  SD       197.8730  230.1750  163.2380 S.3   100  MET100     -0.1393
     92  CE       198.2480  228.6740  164.1280 C.3   100  MET100      0.0692
     93  N        192.8150  229.4960  165.0450 N.am  101  GLY101     -0.1957
     94  CA       191.8690  228.5340  165.5710 C.3   101  GLY101      0.1869
     95  C        190.9510  227.9440  164.5340 C.2   101  GLY101      0.2309
     96  O        190.4080  226.8590  164.7450 O.2   101  GLY101     -0.2863
     97  N        193.4250  225.1990  163.1740 N.3   104  GLU104     -0.1231
     98  CA       193.8430  224.1680  164.1010 C.3   104  GLU104      0.1699
     99  C        192.6880  223.3420  164.6530 C.2   104  GLU104      0.2592
    100  O        192.8880  222.1750  165.0010 O.2   104  GLU104     -0.2718
    101  CB       194.6610  224.7910  165.2180 C.3   104  GLU104      0.0402
    102  CG       195.4710  223.7640  165.9140 C.3   104  GLU104      0.1161
    103  CD       196.5660  224.3680  166.7070 C.2   104  GLU104      0.3649
    104  OE1      196.6240  225.6100  166.7700 O.co2 104  GLU104     -0.2457
    105  OE2      197.3860  223.6060  167.2440 O.co2 104  GLU104     -0.2457
    106  N        191.4750  223.8870  164.7240 N.am  105  ILE105     -0.1980
    107  CA       190.3380  223.0100  164.9760 C.3   105  ILE105      0.1595
    108  C        190.1350  222.0640  163.8040 C.2   105  ILE105      0.2287
    109  O        189.8100  220.8880  163.9910 O.2   105  ILE105     -0.2864
    110  CB       189.0660  223.8110  165.2820 C.3   105  ILE105      0.0276
    111  CG1      189.2120  224.5560  166.5970 C.3   105  ILE105      0.0022
    112  CG2      187.9060  222.8800  165.4260 C.3   105  ILE105      0.0022
    113  CD1      189.4050  223.6290  167.7680 C.3   105  ILE105      0.0001
    114  N        192.4870  220.8550  162.2670 N.3   107  ARG107     -0.1231
    115  CA       193.4860  219.8190  162.4880 C.3   107  ARG107      0.1694
    116  C        193.0120  218.8080  163.5160 C.2   107  ARG107      0.2592
    117  O        193.2780  217.6110  163.3800 O.2   107  ARG107     -0.2718
    118  CB       194.8070  220.4380  162.9260 C.3   107  ARG107      0.0321
    119  CG       195.8730  219.4130  163.1950 C.3   107  ARG107      0.0489
    120  CD       197.1900  220.0650  163.5070 C.3   107  ARG107      0.2205
    121  NE       197.1240  220.8730  164.7120 N.pl3 107  ARG107     -0.0865
    122  CZ       197.2400  220.3830  165.9360 C.cat 107  ARG107      0.5346
    123  NH1      197.4190  219.0870  166.1200 N.pl3 107  ARG107      0.1354
    124  NH2      197.1690  221.1900  166.9790 N.pl3 107  ARG107      0.1354
    125  N        192.3170  219.2640  164.5550 N.am  108  TYR108     -0.1976
    126  CA       191.8540  218.3410  165.5830 C.3   108  TYR108      0.1639
    127  C        190.7200  217.4690  165.0730 C.2   108  TYR108      0.2290
    128  O        190.7900  216.2380  165.1400 O.2   108  TYR108     -0.2864
    129  CB       191.4050  219.1070  166.8160 C.3   108  TYR108      0.0560
    130  CG       190.7660  218.2240  167.8430 C.ar  108  TYR108     -0.0198
    131  CD1      191.5290  217.4120  168.6510 C.ar  108  TYR108     -0.0009
    132  CD2      189.3980  218.1960  167.9980 C.ar  108  TYR108     -0.0009
    133  CE1      190.9500  216.5990  169.5850 C.ar  108  TYR108      0.0417
    134  CE2      188.8090  217.3860  168.9320 C.ar  108  TYR108      0.0417
    135  CZ       189.5900  216.5890  169.7230 C.ar  108  TYR108      0.1957
    136  OH       189.0050  215.7790  170.6600 O.3   108  TYR108     -0.2866
@<TRIPOS>BOND
     1   114   115    1
     2   115   118    1
     3   115   116    1
     4   118   119    1
     5    97    98    1
     6   119   120    1
     7    91    92    1
     8    91    90    1
     9   117   116    2
    10    85    86    1
    11    88    87    2
    12   120   121    1
    13    80    79    2
    14   116   125   am
    15    86    87    1
    16    86    89    1
    17   108   109    2
    18   108   107    1
    19    79    78    1
    20    87    93   am
    21    98    99    1
    22    98   101    1
    23    90    89    1
    24    95    96    2
    25    95    94    1
    26   125   126    1
    27    23    21   am
    28    99   106   am
    29    99   100    2
    30   121   122    2
    31   106   107    1
    32    81    78    1
    33    81    82    1
    34    60    59    2
    35   107   110    1
    36    93    94    1
    37    57    58    1
    38    54    56   ar
    39    54    52   ar
    40   127   128    2
    41   127   126    1
    42    58    59    1
    43    58    61    1
    44    46    47    1
    45   101   102    1
    46    78    77    1
    47   110   112    1
    48   110   111    1
    49    84    82    1
    50    56    55   ar
    51    21    22    2
    52    21    20    1
    53    52    51   ar
    54   126   129    1
    55    47    48    1
    56    47    50    1
    57    59    66   am
    58    49    48    2
    59    20    19    1
    60    82    83    1
    61    35    33    1
    62   102   103    1
    63   122   123    1
    64   122   124    1
    65    55    53   ar
    66    61    62    1
    67    77    68   am
    68    51    53   ar
    69    51    50    1
    70    30    29    1
    71    30    33    1
    72    30    31    1
    73    62    63    1
    74    32    31    2
    75    69    68    2
    76   111   113    1
    77   103   104   ar
    78   103   105   ar
    79    68    67    1
    80    19    16    1
    81    34    33    1
    82   129   130    1
    83    66    67    1
    84    31    36   am
    85    16    15    1
    86    16    17    1
    87    63    65   am
    88    63    64    2
    89    18    17    2
    90    67    70    1
    91    39    38    2
    92   130   132   ar
    93   130   131   ar
    94    17    24   am
    95   132   134   ar
    96    38    37    1
    97    36    37    1
    98   131   133   ar
    99    37    40    1
   100    70    71    1
   101   134   135   ar
   102    24    25    1
   103    73    71   ar
   104    73    75   ar
   105   133   135   ar
   106    71    72   ar
   107   135   136    1
   108    26    25    1
   109    26    27    2
   110     4     3    2
   111    13    11   ar
   112    13    14   ar
   113    25    28    1
   114    40    41    1
   115    75    76   ar
   116    11     8   ar
   117     1     2    1
   118     2     3    1
   119     2     5    1
   120    72    74   ar
   121    14    12   ar
   122    76    74   ar
   123    41    43   ar
   124    41    42   ar
   125    43    45   ar
   126     8     6   ar
   127     8    10   ar
   128     5     6    1
   129    12    10   ar
   130     6     7   ar
   131    10     9   ar
   132    42    44   ar
   133    45    44   ar
   134     7     9   ar
