@<TRIPOS>MOLECULE
tmp/6igzO15.pdb
 113 110 0 0 0
SMALL
GASTEIGER

@<TRIPOS>ATOM
      1  N        249.8680  199.9370  224.2150 N.3   108  PHE108     -0.1241
      2  CA       249.4060  199.6040  222.8740 C.3   108  PHE108      0.1605
      3  C        250.0130  198.2930  222.4050 C.2   108  PHE108      0.2264
      4  O        249.3090  197.4290  221.8770 O.2   108  PHE108     -0.2867
      5  CB       249.7600  200.7160  221.8940 C.3   108  PHE108      0.0534
      6  CG       249.2950  200.4580  220.4990 C.ar  108  PHE108     -0.0203
      7  CD1      248.0150  200.8000  220.1150 C.ar  108  PHE108     -0.0042
      8  CD2      250.1270  199.8600  219.5750 C.ar  108  PHE108     -0.0042
      9  CE1      247.5790  200.5710  218.8310 C.ar  108  PHE108     -0.0003
     10  CE2      249.6940  199.6230  218.2900 C.ar  108  PHE108     -0.0003
     11  CZ       248.4180  199.9790  217.9180 C.ar  108  PHE108     -0.0000
     12  N        248.3080  195.4700  224.4540 N.3   111  VAL111     -0.1231
     13  CA       246.9480  195.1230  224.0580 C.3   111  VAL111      0.1692
     14  C        246.9350  194.3810  222.7340 C.2   111  VAL111      0.2591
     15  O        246.1990  193.4060  222.5690 O.2   111  VAL111     -0.2718
     16  CB       246.0730  196.3800  224.0040 C.3   111  VAL111      0.0266
     17  CG1      244.7690  196.0620  223.3450 C.3   111  VAL111      0.0020
     18  CG2      245.8120  196.8590  225.3920 C.3   111  VAL111      0.0020
     19  N        247.7280  194.8300  221.7650 N.am  112  VAL112     -0.1980
     20  CA       247.8520  194.0810  220.5180 C.3   112  VAL112      0.1595
     21  C        248.3910  192.6880  220.7940 C.2   112  VAL112      0.2287
     22  O        247.7180  191.6810  220.5610 O.2   112  VAL112     -0.2864
     23  CB       248.7430  194.8260  219.5160 C.3   112  VAL112      0.0276
     24  CG1      248.9240  193.9850  218.2790 C.3   112  VAL112      0.0022
     25  CG2      248.1300  196.1470  219.1590 C.3   112  VAL112      0.0022
     26  N        246.6140  190.2880  223.0590 N.3   115  GLN115     -0.1231
     27  CA       245.3510  189.8120  222.5270 C.3   115  GLN115      0.1698
     28  C        245.5530  188.6330  221.5880 C.2   115  GLN115      0.2592
     29  O        244.7340  187.7110  221.5700 O.2   115  GLN115     -0.2718
     30  CB       244.6480  190.9490  221.8170 C.3   115  GLN115      0.0381
     31  CG       243.2550  190.6820  221.4590 C.3   115  GLN115      0.0905
     32  CD       242.6230  191.9140  220.9180 C.2   115  GLN115      0.2608
     33  OE1      243.2340  192.9730  220.9010 O.2   115  GLN115     -0.2717
     34  NE2      241.4010  191.7940  220.4670 N.am  115  GLN115     -0.0878
     35  N        246.6230  188.6460  220.7920 N.am  116  PHE116     -0.1976
     36  CA       246.9940  187.4330  220.0750 C.3   116  PHE116      0.1639
     37  C        247.1770  186.2620  221.0160 C.2   116  PHE116      0.2290
     38  O        246.9600  185.1190  220.6200 O.2   116  PHE116     -0.2864
     39  CB       248.2770  187.6160  219.2710 C.3   116  PHE116      0.0560
     40  CG       248.0800  188.2750  217.9540 C.ar  116  PHE116     -0.0200
     41  CD1      247.6880  187.5330  216.8620 C.ar  116  PHE116     -0.0042
     42  CD2      248.3200  189.6190  217.7920 C.ar  116  PHE116     -0.0042
     43  CE1      247.5170  188.1220  215.6400 C.ar  116  PHE116     -0.0003
     44  CE2      248.1510  190.2150  216.5680 C.ar  116  PHE116     -0.0003
     45  CZ       247.7500  189.4640  215.4910 C.ar  116  PHE116     -0.0000
     46  N        242.9030  185.6920  222.8000 N.3   119  LEU119     -0.1231
     47  CA       241.9330  185.2940  221.7790 C.3   119  LEU119      0.1693
     48  C        242.3330  183.9780  221.1350 C.2   119  LEU119      0.2591
     49  O        241.4780  183.1480  220.8180 O.2   119  LEU119     -0.2718
     50  CB       241.7830  186.3810  220.7240 C.3   119  LEU119      0.0284
     51  CG       240.6020  187.3270  220.8650 C.3   119  LEU119      0.0019
     52  CD1      240.6440  187.9910  222.1770 C.3   119  LEU119      0.0001
     53  CD2      240.6790  188.3640  219.7770 C.3   119  LEU119      0.0001
     54  N        243.6330  183.7670  220.9420 N.am  120  ARG120     -0.1980
     55  CA       244.1180  182.4710  220.4960 C.3   120  ARG120      0.1597
     56  C        243.7550  181.3710  221.4830 C.2   120  ARG120      0.2287
     57  O        243.5750  180.2170  221.0880 O.2   120  ARG120     -0.2864
     58  CB       245.6260  182.5580  220.2840 C.3   120  ARG120      0.0334
     59  CG       246.3080  181.2930  219.9350 C.3   120  ARG120      0.0492
     60  CD       245.7870  180.7010  218.6860 C.3   120  ARG120      0.2205
     61  NE       246.0880  181.5040  217.5180 N.pl3 120  ARG120     -0.0865
     62  CZ       247.1800  181.3330  216.7900 C.cat 120  ARG120      0.5346
     63  NH1      248.0370  180.3940  217.1270 N.pl3 120  ARG120      0.1354
     64  NH2      247.4080  182.0950  215.7350 N.pl3 120  ARG120      0.1354
     65  N        239.6930  180.0790  221.3250 N.3   123  GLN123     -0.1245
     66  CA       239.3580  179.2240  220.2050 C.3   123  GLN123      0.1566
     67  C        239.7860  177.7910  220.4520 C.2   123  GLN123      0.2260
     68  O        239.2320  176.8740  219.8420 O.2   123  GLN123     -0.2867
     69  CB       240.0030  179.7730  218.9510 C.3   123  GLN123      0.0367
     70  CG       239.5120  181.1370  218.5890 C.3   123  GLN123      0.0905
     71  CD       238.0610  181.1330  218.2430 C.2   123  GLN123      0.2608
     72  OE1      237.2230  181.5400  219.0390 O.2   123  GLN123     -0.2717
     73  NE2      237.7440  180.6540  217.0510 N.am  123  GLN123     -0.0878
     74  N        243.0270  175.4300  216.8020 N.3   131  MET131     -0.1245
     75  CA       244.1040  176.3860  216.6150 C.3   131  MET131      0.1570
     76  C        245.3900  175.7380  216.1450 C.2   131  MET131      0.2261
     77  O        246.4030  176.4290  216.0040 O.2   131  MET131     -0.2867
     78  CB       244.3280  177.1700  217.9010 C.3   131  MET131      0.0387
     79  CG       243.0580  177.8670  218.2830 C.3   131  MET131      0.0595
     80  SD       242.3440  178.6210  216.7990 S.3   131  MET131     -0.1393
     81  CE       243.4650  179.9350  216.4090 C.3   131  MET131      0.0692
     82  N        244.8040  176.1490  210.9940 N.3   134  GLN134     -0.1231
     83  CA       245.1850  177.2420  210.1150 C.3   134  GLN134      0.1698
     84  C        246.6390  177.6350  210.3420 C.2   134  GLN134      0.2592
     85  O        247.1660  177.5360  211.4490 O.2   134  GLN134     -0.2718
     86  CB       244.2630  178.4360  210.3400 C.3   134  GLN134      0.0381
     87  CG       244.5500  179.6140  209.4500 C.3   134  GLN134      0.0905
     88  CD       243.4880  180.6620  209.5290 C.2   134  GLN134      0.2608
     89  OE1      242.4360  180.4470  210.1130 O.2   134  GLN134     -0.2717
     90  NE2      243.7580  181.8150  208.9520 N.am  134  GLN134     -0.0878
     91  N        247.2880  178.0860  209.2730 N.am  135  TYR135     -0.1962
     92  CA       248.7110  178.3920  209.3230 C.3   135  TYR135      0.1771
     93  C        248.9660  179.6080  210.1910 C.2   135  TYR135      0.2619
     94  O        248.4260  180.6840  209.9330 O.2   135  TYR135     -0.2715
     95  CB       249.2460  178.6470  207.9210 C.3   135  TYR135      0.0574
     96  CG       250.6900  179.0800  207.9030 C.ar  135  TYR135     -0.0198
     97  CD1      251.7040  178.1610  208.0730 C.ar  135  TYR135     -0.0009
     98  CD2      251.0380  180.4030  207.7180 C.ar  135  TYR135     -0.0009
     99  CE1      253.0160  178.5460  208.0590 C.ar  135  TYR135      0.0417
    100  CE2      252.3500  180.7930  207.7040 C.ar  135  TYR135      0.0417
    101  CZ       253.3340  179.8590  207.8740 C.ar  135  TYR135      0.1957
    102  OH       254.6530  180.2300  207.8620 O.3   135  TYR135     -0.2866
    103  N        249.7910  179.4430  211.2160 N.am  136  PHE136     -0.1974
    104  CA       250.3360  180.5700  211.9620 C.3   136  PHE136      0.1639
    105  C        251.8340  180.3520  212.1040 C.2   136  PHE136      0.2290
    106  O        252.2700  179.6350  213.0080 O.2   136  PHE136     -0.2864
    107  CB       249.6400  180.6410  213.3080 C.3   136  PHE136      0.0560
    108  CG       250.2110  181.6320  214.2460 C.ar  136  PHE136     -0.0200
    109  CD1      249.9640  182.9670  214.0800 C.ar  136  PHE136     -0.0042
    110  CD2      250.9250  181.2220  215.3420 C.ar  136  PHE136     -0.0042
    111  CE1      250.4600  183.8750  214.9520 C.ar  136  PHE136     -0.0003
    112  CE2      251.4230  182.1340  216.2250 C.ar  136  PHE136     -0.0003
    113  CZ       251.1880  183.4650  216.0290 C.ar  136  PHE136     -0.0000
@<TRIPOS>BOND
     1   100    98   ar
     2   100   101   ar
     3    98    96   ar
     4   102   101    1
     5   101    99   ar
     6    96    95    1
     7    96    97   ar
     8    95    92    1
     9    99    97   ar
    10    90    88   am
    11    91    92    1
    12    91    84   am
    13    92    93    1
    14    87    88    1
    15    87    86    1
    16    88    89    2
    17    94    93    2
    18    83    86    1
    19    83    84    1
    20    83    82    1
    21    93   103   am
    22    84    85    2
    23   103   104    1
    24   104   105    1
    25   104   107    1
    26   105   106    2
    27   107   108    1
    28   109   108   ar
    29   109   111   ar
    30   108   110   ar
    31   111   113   ar
    32   110   112   ar
    33    45    43   ar
    34    45    44   ar
    35    43    41   ar
    36    64    62    1
    37    77    76    2
    38   113   112   ar
    39    76    75    1
    40    81    80    1
    41    44    42   ar
    42    75    74    1
    43    75    78    1
    44    62    63    1
    45    62    61    2
    46    80    79    1
    47    41    40   ar
    48    73    71   am
    49    61    60    1
    50    42    40   ar
    51    78    79    1
    52    11    10   ar
    53    11     9   ar
    54    40    39    1
    55    71    70    1
    56    71    72    2
    57    24    23    1
    58    10     8   ar
    59    70    69    1
    60    60    59    1
    61     9     7   ar
    62    69    66    1
    63    25    23    1
    64    39    36    1
    65    23    20    1
    66     8     6   ar
    67    53    51    1
    68    68    67    2
    69    59    58    1
    70    36    35    1
    71    36    37    1
    72     7     6   ar
    73    66    67    1
    74    66    65    1
    75    58    55    1
    76    34    32   am
    77    55    54    1
    78    55    56    1
    79     6     5    1
    80    20    21    1
    81    20    19    1
    82    22    21    2
    83    38    37    2
    84    50    51    1
    85    50    47    1
    86    35    28   am
    87    49    48    2
    88    51    52    1
    89    33    32    2
    90    32    31    1
    91    54    48   am
    92    57    56    2
    93    48    47    1
    94    31    30    1
    95    29    28    2
    96    28    27    1
    97    19    14   am
    98    47    46    1
    99    30    27    1
   100     4     3    2
   101     5     2    1
   102     3     2    1
   103    27    26    1
   104    15    14    2
   105    14    13    1
   106     2     1    1
   107    17    16    1
   108    16    13    1
   109    16    18    1
   110    13    12    1
