@<TRIPOS>MOLECULE
tmp/6igzO19.pdb
 125 119 0 0 0
SMALL
GASTEIGER

@<TRIPOS>ATOM
      1  N        248.3660  183.4970  236.8780 N.3    56  PHE56      -0.1241
      2  CA       248.6720  184.9210  236.9690 C.3    56  PHE56       0.1605
      3  C        249.0540  185.3180  238.3840 C.2    56  PHE56       0.2264
      4  O        250.0120  186.0690  238.5920 O.2    56  PHE56      -0.2867
      5  CB       247.4940  185.7640  236.4940 C.3    56  PHE56       0.0534
      6  CG       247.3080  185.7700  235.0140 C.ar   56  PHE56      -0.0203
      7  CD1      248.0600  186.6110  234.2260 C.ar   56  PHE56      -0.0042
      8  CD2      246.3730  184.9670  234.4110 C.ar   56  PHE56      -0.0042
      9  CE1      247.8920  186.6350  232.8660 C.ar   56  PHE56      -0.0003
     10  CE2      246.2060  184.9960  233.0540 C.ar   56  PHE56      -0.0003
     11  CZ       246.9640  185.8280  232.2840 C.ar   56  PHE56      -0.0000
     12  N        252.4730  184.4890  238.9360 N.3    59  LEU59      -0.1231
     13  CA       253.3060  185.4600  238.2500 C.3    59  LEU59       0.1693
     14  C        253.1190  186.8470  238.8290 C.2    59  LEU59       0.2592
     15  O        254.0370  187.6690  238.7780 O.2    59  LEU59      -0.2718
     16  CB       252.9950  185.4620  236.7630 C.3    59  LEU59       0.0284
     17  CG       253.2590  184.1190  236.1010 C.3    59  LEU59       0.0019
     18  CD1      252.9010  184.1810  234.6390 C.3    59  LEU59       0.0001
     19  CD2      254.6970  183.7300  236.2920 C.3    59  LEU59       0.0001
     20  N        251.9400  187.1340  239.3700 N.am   60  GLY60      -0.1957
     21  CA       251.7540  188.4070  240.0360 C.3    60  GLY60       0.1869
     22  C        252.5480  188.4980  241.3230 C.2    60  GLY60       0.2309
     23  O        253.3590  189.4100  241.5040 O.2    60  GLY60      -0.2863
     24  N        255.0450  186.7220  242.5710 N.3    62  ALA62      -0.1231
     25  CA       256.4800  186.7000  242.3490 C.3    62  ALA62       0.1694
     26  C        256.9840  187.9700  241.6870 C.2    62  ALA62       0.2592
     27  O        258.1650  188.2970  241.8220 O.2    62  ALA62      -0.2718
     28  CB       256.8490  185.4940  241.4990 C.3    62  ALA62       0.0304
     29  N        256.1270  188.6900  240.9770 N.am   63  GLY63      -0.1957
     30  CA       256.5580  189.8840  240.2820 C.3    63  GLY63       0.1869
     31  C        256.4170  191.1520  241.0910 C.2    63  GLY63       0.2309
     32  O        257.0850  192.1510  240.8190 O.2    63  GLY63      -0.2863
     33  N        259.6360  190.6300  243.9270 N.3    66  THR66      -0.1204
     34  CA       261.0340  190.4770  243.5270 C.3    66  THR66       0.1979
     35  C        261.7580  191.7990  243.3290 C.2    66  THR66       0.2459
     36  O        262.8810  191.9400  243.8420 O.2    66  THR66      -0.2732
     37  CB       261.1230  189.6120  242.2710 C.3    66  THR66       0.1783
     38  OG1      260.6320  188.3000  242.5600 O.3    66  THR66      -0.2211
     39  CG2      262.5510  189.5200  241.8060 C.3    66  THR66       0.0376
     40  N        261.2140  192.7880  242.6210 N.am   67  PRO67      -0.2728
     41  CA       261.9100  194.0770  242.5510 C.3    67  PRO67       0.1401
     42  C        262.0750  194.7360  243.8960 C.2    67  PRO67       0.2269
     43  O        263.0790  195.4170  244.1270 O.2    67  PRO67      -0.2865
     44  CB       261.0110  194.9070  241.6330 C.3    67  PRO67       0.0296
     45  CG       260.3520  193.9070  240.7910 C.3    67  PRO67       0.0237
     46  CD       260.0610  192.7680  241.7110 C.3    67  PRO67       0.0939
     47  N        265.1740  192.7260  245.6190 N.3    70  LEU70      -0.1245
     48  CA       266.5010  192.8060  245.0220 C.3    70  LEU70       0.1561
     49  C        267.1370  194.1720  245.2220 C.2    70  LEU70       0.2260
     50  O        268.3660  194.2770  245.3060 O.2    70  LEU70      -0.2867
     51  CB       266.4400  192.4590  243.5380 C.3    70  LEU70       0.0270
     52  CG       266.1050  190.9990  243.2580 C.3    70  LEU70       0.0019
     53  CD1      266.0270  190.7610  241.7740 C.3    70  LEU70       0.0001
     54  CD2      267.1450  190.1090  243.8810 C.3    70  LEU70       0.0001
     55  N        270.1240  195.2230  242.5470 N.3    76  ILE76      -0.1245
     56  CA       269.7340  196.0620  241.4200 C.3    76  ILE76       0.1561
     57  C        269.6050  197.4900  241.9340 C.2    76  ILE76       0.2260
     58  O        269.4320  197.6890  243.1430 O.2    76  ILE76      -0.2867
     59  CB       268.4320  195.5610  240.7850 C.3    76  ILE76       0.0252
     60  CG1      267.2680  195.7060  241.7540 C.3    76  ILE76       0.0019
     61  CG2      268.5690  194.1110  240.4340 C.3    76  ILE76       0.0019
     62  CD1      265.9420  195.4230  241.1150 C.3    76  ILE76       0.0001
     63  N        264.9260  201.4420  240.3510 N.3    80  THR80      -0.1218
     64  CA       264.0730  200.3820  239.8470 C.3    80  THR80       0.1862
     65  C        263.4670  199.5320  240.9540 C.2    80  THR80       0.2287
     66  O        262.7530  198.5720  240.6590 O.2    80  THR80      -0.2866
     67  CB       264.8620  199.5000  238.8900 C.3    80  THR80       0.1770
     68  OG1      265.9260  198.8660  239.6010 O.3    80  THR80      -0.2211
     69  CG2      265.4610  200.3550  237.8090 C.3    80  THR80       0.0375
     70  N        261.1930  200.3730  242.8120 N.3    82  ILE82      -0.1245
     71  CA       259.8740  200.9350  243.0400 C.3    82  ILE82       0.1561
     72  C        258.9150  199.8640  243.5330 C.2    82  ILE82       0.2260
     73  O        258.8930  198.7390  243.0250 O.2    82  ILE82      -0.2867
     74  CB       259.3980  201.5910  241.7350 C.3    82  ILE82       0.0252
     75  CG1      259.6500  200.6170  240.5930 C.3    82  ILE82       0.0019
     76  CG2      260.1340  202.8820  241.4910 C.3    82  ILE82       0.0019
     77  CD1      259.2210  201.0960  239.2450 C.3    82  ILE82       0.0001
     78  N        254.8360  201.6010  240.5280 N.3    87  ASN87      -0.1240
     79  CA       255.6120  201.4140  239.3110 C.3    87  ASN87       0.1653
     80  C        255.1890  202.3390  238.1840 C.2    87  ASN87       0.2266
     81  O        255.8420  202.3440  237.1380 O.2    87  ASN87      -0.2867
     82  CB       255.4900  199.9720  238.8330 C.3    87  ASN87       0.1155
     83  CG       256.0510  198.9840  239.8270 C.2    87  ASN87       0.2627
     84  OD1      256.8250  199.3440  240.7030 O.2    87  ASN87      -0.2716
     85  ND2      255.6690  197.7270  239.6840 N.am   87  ASN87      -0.0877
     86  N        251.9140  202.0770  237.1730 N.3    89  VAL89      -0.1245
     87  CA       250.6520  201.4890  236.7540 C.3    89  VAL89       0.1561
     88  C        249.4880  202.3250  237.2550 C.2    89  VAL89       0.2260
     89  O        248.4710  202.4680  236.5710 O.2    89  VAL89      -0.2867
     90  CB       250.5650  200.0360  237.2480 C.3    89  VAL89       0.0252
     91  CG1      250.7210  199.9830  238.7340 C.3    89  VAL89       0.0019
     92  CG2      249.2410  199.4570  236.8860 C.3    89  VAL89       0.0019
     93  N        260.6900  205.3200  234.7900 N.3    98  VAL98      -0.1231
     94  CA       261.9950  204.7180  234.5570 C.3    98  VAL98       0.1692
     95  C        262.1350  204.2470  233.1190 C.2    98  VAL98       0.2592
     96  O        263.2500  204.1460  232.6010 O.2    98  VAL98      -0.2718
     97  CB       262.1860  203.5410  235.5270 C.3    98  VAL98       0.0266
     98  CG1      263.5750  202.9510  235.4120 C.3    98  VAL98       0.0020
     99  CG2      261.8750  203.9650  236.9450 C.3    98  VAL98       0.0020
    100  N        261.0190  204.0000  232.4540 N.am   99  TYR99      -0.1962
    101  CA       260.9740  203.1520  231.2820 C.3    99  TYR99       0.1771
    102  C        261.5080  203.8720  230.0520 C.2    99  TYR99       0.2619
    103  O        261.5710  205.1000  229.9890 O.2    99  TYR99      -0.2715
    104  CB       259.5420  202.6910  231.0790 C.3    99  TYR99       0.0574
    105  CG       259.0290  202.0710  232.3440 C.ar   99  TYR99      -0.0198
    106  CD1      259.8010  201.1640  233.0430 C.ar   99  TYR99      -0.0009
    107  CD2      257.8210  202.4520  232.8880 C.ar   99  TYR99      -0.0009
    108  CE1      259.3600  200.6090  234.2110 C.ar   99  TYR99       0.0417
    109  CE2      257.3730  201.9040  234.0600 C.ar   99  TYR99       0.0417
    110  CZ       258.1490  200.9830  234.7190 C.ar   99  TYR99       0.1957
    111  OH       257.7120  200.4320  235.8970 O.3    99  TYR99      -0.2866
    112  N        261.8940  203.0780  229.0570 N.am  100  TRP100     -0.1974
    113  CA       262.4460  203.6300  227.8290 C.3   100  TRP100      0.1640
    114  C        261.4080  204.3670  226.9920 C.2   100  TRP100      0.2290
    115  O        261.7870  205.1690  226.1360 O.2   100  TRP100     -0.2864
    116  CB       263.1100  202.5100  227.0350 C.3   100  TRP100      0.0576
    117  CG       262.2130  201.3580  226.7570 C.ar  100  TRP100      0.0006
    118  CD1      261.8110  200.4110  227.6420 C.ar  100  TRP100      0.0946
    119  CD2      261.6880  200.9690  225.4900 C.ar  100  TRP100      0.0152
    120  NE1      261.0180  199.4890  227.0200 N.ar  100  TRP100     -0.2442
    121  CE2      260.9310  199.8070  225.6930 C.ar  100  TRP100      0.0810
    122  CE3      261.7610  201.5070  224.2070 C.ar  100  TRP100      0.0012
    123  CZ2      260.2560  199.1720  224.6650 C.ar  100  TRP100      0.0191
    124  CZ3      261.0880  200.8740  223.1890 C.ar  100  TRP100      0.0001
    125  CH2      260.3460  199.7200  223.4220 C.ar  100  TRP100      0.0015
@<TRIPOS>BOND
     1   124   125   ar
     2   124   122   ar
     3   125   123   ar
     4   122   119   ar
     5   123   121   ar
     6   119   121   ar
     7   119   117   ar
     8   121   120   ar
     9   115   114    2
    10   117   116    1
    11   117   118   ar
    12   114   113    1
    13   120   118   ar
    14   116   113    1
    15   113   112    1
    16   112   102   am
    17   103   102    2
    18   102   101    1
    19   104   101    1
    20   104   105    1
    21   101   100    1
    22    11     9   ar
    23    11    10   ar
    24   105   107   ar
    25   105   106   ar
    26   100    95   am
    27    96    95    2
    28     9     7   ar
    29   107   109   ar
    30   106   108   ar
    31    10     8   ar
    32    95    94    1
    33   109   110   ar
    34   108   110   ar
    35     7     6   ar
    36     8     6   ar
    37    94    93    1
    38    94    97    1
    39    18    17    1
    40   110   111    1
    41     6     5    1
    42    98    97    1
    43    97    99    1
    44    17    19    1
    45    17    16    1
    46     5     2    1
    47    89    88    2
    48    87    86    1
    49    87    90    1
    50    87    88    1
    51    16    13    1
    52     1     2    1
    53    92    90    1
    54     2     3    1
    55    81    80    2
    56    90    91    1
    57    69    67    1
    58    80    79    1
    59    13    14    1
    60    13    12    1
    61     3     4    2
    62    15    14    2
    63    14    20   am
    64    82    79    1
    65    82    83    1
    66    67    68    1
    67    67    64    1
    68    77    75    1
    69    79    78    1
    70    20    21    1
    71    85    83   am
    72    83    84    2
    73    64    63    1
    74    64    65    1
    75    21    22    1
    76    30    29    1
    77    30    31    1
    78    61    59    1
    79    75    74    1
    80    66    65    2
    81    59    56    1
    82    59    60    1
    83    45    44    1
    84    45    46    1
    85    32    31    2
    86    29    26   am
    87    62    60    1
    88    22    23    2
    89    56    57    1
    90    56    55    1
    91    76    74    1
    92    28    25    1
    93    44    41    1
    94    26    27    2
    95    26    25    1
    96    46    40    1
    97    74    71    1
    98    53    52    1
    99    39    37    1
   100    57    58    2
   101    37    38    1
   102    37    34    1
   103    25    24    1
   104    41    40    1
   105    41    42    1
   106    40    35   am
   107    70    71    1
   108    73    72    2
   109    71    72    1
   110    52    51    1
   111    52    54    1
   112    35    34    1
   113    35    36    2
   114    34    33    1
   115    51    48    1
   116    42    43    2
   117    48    49    1
   118    48    47    1
   119    49    50    2
