@<TRIPOS>MOLECULE
tmp/6igzO20.pdb
 100 98 0 0 0
SMALL
GASTEIGER

@<TRIPOS>ATOM
      1  N        248.3660  183.4970  236.8780 N.3    56  PHE56      -0.1241
      2  CA       248.6720  184.9210  236.9690 C.3    56  PHE56       0.1605
      3  C        249.0540  185.3180  238.3840 C.2    56  PHE56       0.2264
      4  O        250.0120  186.0690  238.5920 O.2    56  PHE56      -0.2867
      5  CB       247.4940  185.7640  236.4940 C.3    56  PHE56       0.0534
      6  CG       247.3080  185.7700  235.0140 C.ar   56  PHE56      -0.0203
      7  CD1      248.0600  186.6110  234.2260 C.ar   56  PHE56      -0.0042
      8  CD2      246.3730  184.9670  234.4110 C.ar   56  PHE56      -0.0042
      9  CE1      247.8920  186.6350  232.8660 C.ar   56  PHE56      -0.0003
     10  CE2      246.2060  184.9960  233.0540 C.ar   56  PHE56      -0.0003
     11  CZ       246.9640  185.8280  232.2840 C.ar   56  PHE56      -0.0000
     12  N        254.8360  201.6010  240.5280 N.3    87  ASN87      -0.1225
     13  CA       255.6120  201.4140  239.3110 C.3    87  ASN87       0.1785
     14  C        255.1890  202.3390  238.1840 C.2    87  ASN87       0.2598
     15  O        255.8420  202.3440  237.1380 O.2    87  ASN87      -0.2718
     16  CB       255.4900  199.9720  238.8330 C.3    87  ASN87       0.1169
     17  CG       256.0510  198.9840  239.8270 C.2    87  ASN87       0.2627
     18  OD1      256.8250  199.3440  240.7030 O.2    87  ASN87      -0.2716
     19  ND2      255.6690  197.7270  239.6840 N.am   87  ASN87      -0.0877
     20  N        254.1180  203.1000  238.3570 N.am   88  GLY88      -0.1942
     21  CA       253.5480  203.8710  237.2790 C.3    88  GLY88       0.2014
     22  C        252.3050  203.2550  236.6960 C.2    88  GLY88       0.2638
     23  O        251.7030  203.8470  235.7940 O.2    88  GLY88      -0.2714
     24  N        251.9140  202.0770  237.1730 N.am   89  VAL89      -0.1977
     25  CA       250.6520  201.4890  236.7540 C.3    89  VAL89       0.1596
     26  C        249.4880  202.3250  237.2550 C.2    89  VAL89       0.2287
     27  O        248.4710  202.4680  236.5710 O.2    89  VAL89      -0.2864
     28  CB       250.5650  200.0360  237.2480 C.3    89  VAL89       0.0276
     29  CG1      250.7210  199.9830  238.7340 C.3    89  VAL89       0.0022
     30  CG2      249.2410  199.4570  236.8860 C.3    89  VAL89       0.0022
     31  N        261.0190  204.0000  232.4540 N.3    99  TYR99      -0.1227
     32  CA       260.9740  203.1520  231.2820 C.3    99  TYR99       0.1736
     33  C        261.5080  203.8720  230.0520 C.2    99  TYR99       0.2595
     34  O        261.5710  205.1000  229.9890 O.2    99  TYR99      -0.2718
     35  CB       259.5420  202.6910  231.0790 C.3    99  TYR99       0.0548
     36  CG       259.0290  202.0710  232.3440 C.ar   99  TYR99      -0.0200
     37  CD1      259.8010  201.1640  233.0430 C.ar   99  TYR99      -0.0009
     38  CD2      257.8210  202.4520  232.8880 C.ar   99  TYR99      -0.0009
     39  CE1      259.3600  200.6090  234.2110 C.ar   99  TYR99       0.0417
     40  CE2      257.3730  201.9040  234.0600 C.ar   99  TYR99       0.0417
     41  CZ       258.1490  200.9830  234.7190 C.ar   99  TYR99       0.1957
     42  OH       257.7120  200.4320  235.8970 O.3    99  TYR99      -0.2866
     43  N        261.8940  203.0780  229.0570 N.am  100  TRP100     -0.1976
     44  CA       262.4460  203.6300  227.8290 C.3   100  TRP100      0.1640
     45  C        261.4080  204.3670  226.9920 C.2   100  TRP100      0.2290
     46  O        261.7870  205.1690  226.1360 O.2   100  TRP100     -0.2864
     47  CB       263.1100  202.5100  227.0350 C.3   100  TRP100      0.0576
     48  CG       262.2130  201.3580  226.7570 C.ar  100  TRP100      0.0006
     49  CD1      261.8110  200.4110  227.6420 C.ar  100  TRP100      0.0946
     50  CD2      261.6880  200.9690  225.4900 C.ar  100  TRP100      0.0152
     51  NE1      261.0180  199.4890  227.0200 N.ar  100  TRP100     -0.2442
     52  CE2      260.9310  199.8070  225.6930 C.ar  100  TRP100      0.0810
     53  CE3      261.7610  201.5070  224.2070 C.ar  100  TRP100      0.0012
     54  CZ2      260.2560  199.1720  224.6650 C.ar  100  TRP100      0.0191
     55  CZ3      261.0880  200.8740  223.1890 C.ar  100  TRP100      0.0001
     56  CH2      260.3460  199.7200  223.4220 C.ar  100  TRP100      0.0015
     57  N        254.1260  205.0050  229.3810 N.3   103  PRO103     -0.2116
     58  CA       253.2720  203.8430  229.6460 C.3   103  PRO103      0.1372
     59  C        252.2310  203.5980  228.5760 C.2   103  PRO103      0.2244
     60  O        251.8850  202.4380  228.3310 O.2   103  PRO103     -0.2868
     61  CB       252.6200  204.1880  230.9860 C.3   103  PRO103      0.0268
     62  CG       253.5720  205.1230  231.6210 C.3   103  PRO103      0.0207
     63  CD       254.1120  205.9530  230.5030 C.3   103  PRO103      0.0892
     64  N        253.5760  201.4520  225.7110 N.3   106  LEU106     -0.1245
     65  CA       253.6800  200.0880  226.2040 C.3   106  LEU106      0.1561
     66  C        252.3250  199.4110  226.2640 C.2   106  LEU106      0.2260
     67  O        252.2260  198.1960  226.0790 O.2   106  LEU106     -0.2867
     68  CB       254.3190  200.0970  227.5850 C.3   106  LEU106      0.0270
     69  CG       255.7340  200.6480  227.5580 C.3   106  LEU106      0.0019
     70  CD1      256.2760  200.8100  228.9490 C.3   106  LEU106      0.0001
     71  CD2      256.5920  199.7040  226.7620 C.3   106  LEU106      0.0001
     72  N        251.3250  198.1350  222.5810 N.3   109  VAL109     -0.1231
     73  CA       251.9790  196.8970  222.1790 C.3   109  VAL109      0.1692
     74  C        251.4460  195.7400  223.0010 C.2   109  VAL109      0.2591
     75  O        251.2270  194.6400  222.4870 O.2   109  VAL109     -0.2718
     76  CB       253.5030  197.0250  222.3160 C.3   109  VAL109      0.0266
     77  CG1      254.1640  195.7440  221.8780 C.3   109  VAL109      0.0020
     78  CG2      254.0110  198.1970  221.5140 C.3   109  VAL109      0.0020
     79  N        251.2440  195.9670  224.2930 N.am  110  GLU110     -0.1979
     80  CA       250.5880  194.9770  225.1310 C.3   110  GLU110      0.1602
     81  C        249.2670  194.5460  224.5220 C.2   110  GLU110      0.2287
     82  O        249.1160  193.4040  224.0830 O.2   110  GLU110     -0.2864
     83  CB       250.3710  195.5530  226.5200 C.3   110  GLU110      0.0415
     84  CG       249.6360  194.6520  227.4550 C.3   110  GLU110      0.1163
     85  CD       249.4440  195.3030  228.7970 C.2   110  GLU110      0.3649
     86  OE1      249.8770  196.4580  228.9570 O.co2 110  GLU110     -0.2457
     87  OE2      248.8540  194.6730  229.6920 O.co2 110  GLU110     -0.2457
     88  N        249.6200  192.6140  221.2890 N.3   113  ALA113     -0.1231
     89  CA       250.2880  191.3270  221.3870 C.3   113  ALA113      0.1694
     90  C        249.6430  190.4410  222.4350 C.2   113  ALA113      0.2591
     91  O        249.5720  189.2230  222.2580 O.2   113  ALA113     -0.2718
     92  CB       251.7630  191.5360  221.6930 C.3   113  ALA113      0.0304
     93  N        249.1730  191.0210  223.5350 N.am  114  MET114     -0.1979
     94  CA       248.5300  190.1960  224.5480 C.3   114  MET114      0.1605
     95  C        247.2080  189.6480  224.0550 C.2   114  MET114      0.2287
     96  O        246.7480  188.6180  224.5500 O.2   114  MET114     -0.2864
     97  CB       248.3290  190.9860  225.8380 C.3   114  MET114      0.0413
     98  CG       247.7210  190.1790  226.9390 C.3   114  MET114      0.0598
     99  SD       248.8070  188.8140  227.3430 S.3   114  MET114     -0.1393
    100  CE       247.8490  187.9770  228.5920 C.3   114  MET114      0.0692
@<TRIPOS>BOND
     1    88    89    1
     2    89    92    1
     3    89    90    1
     4    78    76    1
     5    77    76    1
     6    73    76    1
     7    73    72    1
     8    73    74    1
     9    91    90    2
    10    90    93   am
    11    75    74    2
    12    74    79   am
    13    55    56   ar
    14    55    53   ar
    15    56    54   ar
    16    93    94    1
    17    95    94    1
    18    95    96    2
    19    82    81    2
    20    53    50   ar
    21    79    80    1
    22    81    80    1
    23    94    97    1
    24    54    52   ar
    25    80    83    1
    26    50    52   ar
    27    50    48   ar
    28    52    51   ar
    29    64    65    1
    30    97    98    1
    31    67    66    2
    32    46    45    2
    33    65    66    1
    34    65    68    1
    35    83    84    1
    36    48    47    1
    37    48    49   ar
    38    71    69    1
    39    98    99    1
    40    45    44    1
    41    51    49   ar
    42    47    44    1
    43    99   100    1
    44    84    85    1
    45    69    68    1
    46    69    70    1
    47    44    43    1
    48    60    59    2
    49    59    58    1
    50    85    86   ar
    51    85    87   ar
    52    43    33   am
    53    57    58    1
    54    57    63    1
    55    58    61    1
    56    34    33    2
    57    33    32    1
    58    63    62    1
    59    61    62    1
    60    35    32    1
    61    35    36    1
    62    32    31    1
    63    11     9   ar
    64    11    10   ar
    65    36    38   ar
    66    36    37   ar
    67     9     7   ar
    68    38    40   ar
    69    37    39   ar
    70    10     8   ar
    71    40    41   ar
    72    39    41   ar
    73     7     6   ar
    74     8     6   ar
    75    41    42    1
    76     6     5    1
    77    23    22    2
    78     5     2    1
    79    27    26    2
    80    22    24   am
    81    22    21    1
    82    25    24    1
    83    25    28    1
    84    25    26    1
    85     1     2    1
    86    30    28    1
    87     2     3    1
    88    15    14    2
    89    28    29    1
    90    21    20    1
    91    14    20   am
    92    14    13    1
    93     3     4    2
    94    16    13    1
    95    16    17    1
    96    13    12    1
    97    19    17   am
    98    17    18    2
