@<TRIPOS>MOLECULE
tmp/6igzS00.pdb
 190 181 0 0 0
SMALL
GASTEIGER

@<TRIPOS>ATOM
      1  N        269.5380  175.4240  206.1140 N.3    43  GLN43      -0.1245
      2  CA       270.4410  176.2600  205.3330 C.3    43  GLN43       0.1566
      3  C        270.9050  177.4560  206.1440 C.2    43  GLN43       0.2260
      4  O        272.1000  177.7610  206.1970 O.2    43  GLN43      -0.2867
      5  CB       269.7520  176.7290  204.0640 C.3    43  GLN43       0.0367
      6  CG       269.2880  175.6050  203.2220 C.3    43  GLN43       0.0905
      7  CD       270.4020  174.6810  202.8900 C.2    43  GLN43       0.2608
      8  OE1      270.5080  173.5960  203.4550 O.2    43  GLN43      -0.2717
      9  NE2      271.2700  175.1090  201.9860 N.am   43  GLN43      -0.0878
     10  N        273.3650  176.5140  208.9520 N.3    46  LEU46      -0.1231
     11  CA       274.6920  176.3810  208.3790 C.3    46  LEU46       0.1693
     12  C        275.2910  177.7540  208.1280 C.2    46  LEU46       0.2591
     13  O        276.2300  178.1620  208.8150 O.2    46  LEU46      -0.2718
     14  CB       274.6330  175.5820  207.0860 C.3    46  LEU46       0.0284
     15  CG       274.1010  174.1830  207.3480 C.3    46  LEU46       0.0019
     16  CD1      273.9590  173.4180  206.0560 C.3    46  LEU46       0.0001
     17  CD2      275.0140  173.4670  208.3040 C.3    46  LEU46       0.0001
     18  N        274.7170  178.4780  207.1650 N.am   47  VAL47      -0.1980
     19  CA       275.2650  179.7590  206.7340 C.3    47  VAL47       0.1595
     20  C        275.5780  180.6470  207.9260 C.2    47  VAL47       0.2287
     21  O        276.6320  181.2880  207.9840 O.2    47  VAL47      -0.2864
     22  CB       274.2900  180.4450  205.7670 C.3    47  VAL47       0.0276
     23  CG1      274.8170  181.7870  205.3760 C.3    47  VAL47       0.0022
     24  CG2      274.0870  179.5910  204.5580 C.3    47  VAL47       0.0022
     25  N        278.6000  179.2880  209.8310 N.3    50  ARG50      -0.1231
     26  CA       279.8730  179.4790  209.1540 C.3    50  ARG50       0.1694
     27  C        280.3510  180.9160  209.3010 C.2    50  ARG50       0.2592
     28  O        281.4730  181.1600  209.7540 O.2    50  ARG50      -0.2718
     29  CB       279.7240  179.0860  207.6940 C.3    50  ARG50       0.0321
     30  CG       279.1880  177.6790  207.5350 C.3    50  ARG50       0.0489
     31  CD       278.9790  177.3620  206.0910 C.3    50  ARG50       0.2205
     32  NE       278.2160  176.1300  205.9220 N.pl3  50  ARG50      -0.0865
     33  CZ       278.7460  174.9210  205.9620 C.cat  50  ARG50       0.5346
     34  NH1      280.0380  174.7690  206.1690 N.pl3  50  ARG50       0.1354
     35  NH2      277.9820  173.8540  205.8130 N.pl3  50  ARG50       0.1354
     36  N        279.5030  181.8860  208.9550 N.am   51  TRP51      -0.1976
     37  CA       279.9040  183.2810  209.1000 C.3    51  TRP51       0.1640
     38  C        280.2540  183.6170  210.5350 C.2    51  TRP51       0.2290
     39  O        281.0700  184.5100  210.7820 O.2    51  TRP51      -0.2864
     40  CB       278.8030  184.2170  208.6170 C.3    51  TRP51       0.0576
     41  CG       278.6380  184.2340  207.1600 C.ar   51  TRP51       0.0006
     42  CD1      277.6610  183.6380  206.4410 C.ar   51  TRP51       0.0946
     43  CD2      279.5140  184.8480  206.2220 C.ar   51  TRP51       0.0152
     44  NE1      277.8520  183.8650  205.1040 N.ar   51  TRP51      -0.2442
     45  CE2      278.9910  184.6050  204.9450 C.ar   51  TRP51       0.0810
     46  CE3      280.6870  185.5910  206.3390 C.ar   51  TRP51       0.0012
     47  CZ2      279.6000  185.0770  203.7910 C.ar   51  TRP51       0.0191
     48  CZ3      281.2890  186.0560  205.1970 C.ar   51  TRP51       0.0001
     49  CH2      280.7470  185.8010  203.9380 C.ar   51  TRP51       0.0015
     50  N        283.8020  182.1220  211.0760 N.3    54  MET54      -0.1245
     51  CA       284.7350  183.0740  210.4930 C.3    54  MET54       0.1570
     52  C        284.7330  184.3770  211.2710 C.2    54  MET54       0.2261
     53  O        285.7830  184.9990  211.4550 O.2    54  MET54      -0.2867
     54  CB       284.3900  183.3260  209.0350 C.3    54  MET54       0.0387
     55  CG       284.6500  182.1560  208.1480 C.3    54  MET54       0.0595
     56  SD       286.3900  181.7300  208.2190 S.3    54  MET54      -0.1393
     57  CE       287.1080  183.2160  207.5350 C.3    54  MET54       0.0692
     58  N        278.6290  189.5860  196.0560 N.3   100  MET100     -0.1245
     59  CA       277.7890  188.7450  196.9020 C.3   100  MET100      0.1570
     60  C        276.4380  188.4890  196.2630 C.2   100  MET100      0.2261
     61  O        275.8800  187.3960  196.3980 O.2   100  MET100     -0.2867
     62  CB       277.6050  189.3830  198.2750 C.3   100  MET100      0.0387
     63  CG       278.8580  189.4050  199.1060 C.3   100  MET100      0.0595
     64  SD       279.4570  187.7420  199.4270 S.3   100  MET100     -0.1393
     65  CE       278.1570  187.1210  200.4780 C.3   100  MET100      0.0692
     66  N        275.7350  187.9400  193.2850 N.3   102  TYR102     -0.1227
     67  CA       275.8160  186.7990  192.3880 C.3   102  TYR102      0.1736
     68  C        275.8780  185.4990  193.1640 C.2   102  TYR102      0.2595
     69  O        275.0500  184.6080  192.9650 O.2   102  TYR102     -0.2718
     70  CB       277.0250  186.9170  191.4740 C.3   102  TYR102      0.0548
     71  CG       277.2420  185.6650  190.6770 C.ar  102  TYR102     -0.0200
     72  CD1      276.4030  185.3310  189.6340 C.ar  102  TYR102     -0.0009
     73  CD2      278.2810  184.8140  190.9690 C.ar  102  TYR102     -0.0009
     74  CE1      276.5930  184.1860  188.9140 C.ar  102  TYR102      0.0417
     75  CE2      278.4780  183.6720  190.2490 C.ar  102  TYR102      0.0417
     76  CZ       277.6330  183.3610  189.2270 C.ar  102  TYR102      0.1957
     77  OH       277.8360  182.2120  188.5090 O.3   102  TYR102     -0.2866
     78  N        276.8450  185.3840  194.0690 N.am  103  VAL103     -0.1966
     79  CA       277.0720  184.1210  194.7560 C.3   103  VAL103      0.1727
     80  C        275.8390  183.7000  195.5350 C.2   103  VAL103      0.2616
     81  O        275.4520  182.5280  195.5280 O.2   103  VAL103     -0.2715
     82  CB       278.2950  184.2390  195.6710 C.3   103  VAL103      0.0290
     83  CG1      278.4600  182.9750  196.4560 C.3   103  VAL103      0.0023
     84  CG2      279.5150  184.5190  194.8490 C.3   103  VAL103      0.0023
     85  N        275.2010  184.6450  196.2190 N.am  104  GLU104     -0.1977
     86  CA       274.0320  184.3060  197.0180 C.3   104  GLU104      0.1602
     87  C        272.8590  183.8940  196.1410 C.2   104  GLU104      0.2287
     88  O        272.2300  182.8610  196.3830 O.2   104  GLU104     -0.2864
     89  CB       273.6670  185.4790  197.9090 C.3   104  GLU104      0.0415
     90  CG       274.6380  185.7020  199.0360 C.3   104  GLU104      0.1163
     91  CD       274.6260  184.5710  200.0360 C.2   104  GLU104      0.3649
     92  OE1      273.5270  184.0770  200.3500 O.co2 104  GLU104     -0.2457
     93  OE2      275.7050  184.1730  200.5140 O.co2 104  GLU104     -0.2457
     94  N        273.2230  182.7310  193.3200 N.3   106  ARG106     -0.1231
     95  CA       273.7100  181.4600  192.8090 C.3   106  ARG106      0.1694
     96  C        273.3840  180.3290  193.7650 C.2   106  ARG106      0.2591
     97  O        273.0660  179.2160  193.3390 O.2   106  ARG106     -0.2718
     98  CB       275.2090  181.5450  192.5980 C.3   106  ARG106      0.0321
     99  CG       275.8280  180.3160  192.0520 C.3   106  ARG106      0.0489
    100  CD       275.3660  180.0500  190.6520 C.3   106  ARG106      0.2205
    101  NE       276.1060  178.9340  190.0840 N.pl3 106  ARG106     -0.0865
    102  CZ       275.8280  178.3630  188.9240 C.cat 106  ARG106      0.5346
    103  NH1      276.5680  177.3560  188.4930 N.pl3 106  ARG106      0.1354
    104  NH2      274.8320  178.8180  188.1840 N.pl3 106  ARG106      0.1354
    105  N        273.4710  180.5900  195.0660 N.am  107  ARG107     -0.1980
    106  CA       273.1740  179.5480  196.0350 C.3   107  ARG107      0.1597
    107  C        271.6800  179.3950  196.2430 C.2   107  ARG107      0.2287
    108  O        271.1830  178.2750  196.3910 O.2   107  ARG107     -0.2864
    109  CB       273.8380  179.8520  197.3660 C.3   107  ARG107      0.0334
    110  CG       273.6670  178.7360  198.3450 C.3   107  ARG107      0.0492
    111  CD       274.1270  179.1490  199.7050 C.3   107  ARG107      0.2205
    112  NE       273.2070  180.1030  200.3010 N.pl3 107  ARG107     -0.0865
    113  CZ       273.5350  180.9160  201.2900 C.cat 107  ARG107      0.5346
    114  NH1      274.7690  180.9030  201.7570 N.pl3 107  ARG107      0.1354
    115  NH2      272.6450  181.7530  201.7920 N.pl3 107  ARG107      0.1354
    116  N        269.9040  177.2570  193.8570 N.3   110  ASP110     -0.1239
    117  CA       270.2330  175.8580  194.0540 C.3   110  ASP110      0.1674
    118  C        269.5540  175.2740  195.2790 C.2   110  ASP110      0.2266
    119  O        269.6650  174.0680  195.5130 O.2   110  ASP110     -0.2867
    120  CB       271.7450  175.7090  194.1350 C.3   110  ASP110      0.1410
    121  CG       272.4140  176.1200  192.8440 C.2   110  ASP110      0.3668
    122  OD1      271.6880  176.2740  191.8440 O.co2 110  ASP110     -0.2456
    123  OD2      273.6450  176.2920  192.8130 O.co2 110  ASP110     -0.2456
    124  N        271.5650  173.6070  188.9070 N.3   117  VAL117     -0.1231
    125  CA       272.8350  174.0870  188.4110 C.3   117  VAL117      0.1692
    126  C        273.8250  173.9640  189.5590 C.2   117  VAL117      0.2592
    127  O        273.8800  174.7920  190.4730 O.2   117  VAL117     -0.2718
    128  CB       272.7350  175.5110  187.8490 C.3   117  VAL117      0.0266
    129  CG1      272.2560  176.5210  188.8870 C.3   117  VAL117      0.0020
    130  CG2      274.0520  175.9210  187.2160 C.3   117  VAL117      0.0020
    131  N        274.6000  172.8930  189.5160 N.am  118  ASN118     -0.1974
    132  CA       275.8490  172.7690  190.2380 C.3   118  ASN118      0.1688
    133  C        277.0410  172.9670  189.3230 C.2   118  ASN118      0.2292
    134  O        278.1810  172.8200  189.7670 O.2   118  ASN118     -0.2864
    135  CB       275.9090  171.4140  190.9270 C.3   118  ASN118      0.1181
    136  CG       275.7900  170.2780  189.9560 C.2   118  ASN118      0.2629
    137  OD1      275.4680  170.4820  188.7870 O.2   118  ASN118     -0.2716
    138  ND2      276.0200  169.0640  190.4360 N.am  118  ASN118     -0.0877
    139  N        278.9880  177.9510  184.8120 N.3   121  PRO121     -0.2116
    140  CA       278.6430  178.6350  183.5590 C.3   121  PRO121      0.1372
    141  C        279.9230  179.0670  182.8680 C.2   121  PRO121      0.2244
    142  O        280.9890  178.6190  183.2820 O.2   121  PRO121     -0.2868
    143  CB       277.7950  179.8190  184.0230 C.3   121  PRO121      0.0268
    144  CG       278.2780  180.0920  185.3910 C.3   121  PRO121      0.0207
    145  CD       278.6640  178.7700  185.9890 C.3   121  PRO121      0.0892
    146  N        280.5480  170.9200  190.4840 N.3   128  VAL128     -0.1245
    147  CA       280.7950  170.3970  191.8250 C.3   128  VAL128      0.1561
    148  C        280.0270  169.0910  191.9590 C.2   128  VAL128      0.2260
    149  O        279.0040  168.9070  191.2890 O.2   128  VAL128     -0.2867
    150  CB       280.3890  171.3990  192.9160 C.3   128  VAL128      0.0252
    151  CG1      281.2680  172.6210  192.8540 C.3   128  VAL128      0.0019
    152  CG2      278.9400  171.7750  192.7800 C.3   128  VAL128      0.0019
    153  N        275.6520  166.3270  196.3740 N.3   131  GLU131     -0.1245
    154  CA       275.6060  166.6900  197.7750 C.3   131  GLU131      0.1567
    155  C        274.1780  166.5060  198.2520 C.2   131  GLU131      0.2260
    156  O        273.3360  165.9490  197.5410 O.2   131  GLU131     -0.2867
    157  CB       276.1010  168.1230  197.9870 C.3   131  GLU131      0.0388
    158  CG       275.1710  169.2330  197.5150 C.3   131  GLU131      0.1160
    159  CD       275.2450  169.4950  196.0300 C.2   131  GLU131      0.3649
    160  OE1      275.9060  168.7220  195.3170 O.co2 131  GLU131     -0.2457
    161  OE2      274.6520  170.4930  195.5790 O.co2 131  GLU131     -0.2457
    162  N        273.5400  172.0910  200.3050 N.3   134  GLY134     -0.1225
    163  CA       274.4640  172.8330  201.1230 C.3   134  GLY134      0.1811
    164  C        275.7610  172.1690  201.5370 C.2   134  GLY134      0.2280
    165  O        276.4150  172.6690  202.4570 O.2   134  GLY134     -0.2866
    166  N        278.5250  171.3980  199.1050 N.3   136  PRO136     -0.2116
    167  CA       279.2910  171.3350  197.8530 C.3   136  PRO136      0.1372
    168  C        280.7320  170.9400  198.1100 C.2   136  PRO136      0.2244
    169  O        281.0260  170.2420  199.0810 O.2   136  PRO136     -0.2868
    170  CB       279.1910  172.7630  197.3180 C.3   136  PRO136      0.0268
    171  CG       279.1280  173.5750  198.5380 C.3   136  PRO136      0.0207
    172  CD       278.3730  172.7850  199.5670 C.3   136  PRO136      0.0892
    173  N        285.0320  173.6390  196.5190 N.3   140  PHE140     -0.1241
    174  CA       284.9540  174.1850  197.8690 C.3   140  PHE140      0.1605
    175  C        285.6440  173.3060  198.8960 C.2   140  PHE140      0.2264
    176  O        286.0120  173.7990  199.9670 O.2   140  PHE140     -0.2867
    177  CB       283.4980  174.4170  198.2400 C.3   140  PHE140      0.0534
    178  CG       282.8520  175.4900  197.4370 C.ar  140  PHE140     -0.0203
    179  CD1      283.5930  176.5520  196.9750 C.ar  140  PHE140     -0.0042
    180  CD2      281.5290  175.4010  197.0820 C.ar  140  PHE140     -0.0042
    181  CE1      283.0100  177.5300  196.2260 C.ar  140  PHE140     -0.0003
    182  CE2      280.9460  176.3710  196.3230 C.ar  140  PHE140     -0.0003
    183  CZ       281.6880  177.4340  195.8930 C.ar  140  PHE140     -0.0000
    184  N        289.0290  171.5350  198.2810 N.3   142  PRO142     -0.2116
    185  CA       290.1120  171.0510  197.4230 C.3   142  PRO142      0.1372
    186  C        290.8110  169.8290  197.9780 C.2   142  PRO142      0.2244
    187  O        291.3120  169.0100  197.1980 O.2   142  PRO142     -0.2868
    188  CB       291.0550  172.2570  197.3370 C.3   142  PRO142      0.0268
    189  CG       290.8010  173.0070  198.5790 C.3   142  PRO142      0.0207
    190  CD       289.3320  172.8580  198.8500 C.3   142  PRO142      0.0892
@<TRIPOS>BOND
     1   141   142    2
     2   141   140    1
     3   140   143    1
     4   140   139    1
     5   143   144    1
     6   139   145    1
     7   144   145    1
     8   130   128    1
     9   128   125    1
    10   128   129    1
    11   104   102    1
    12   125   124    1
    13   125   126    1
    14   103   102    1
    15    77    76    1
    16   137   136    2
    17    74    76   ar
    18    74    72   ar
    19   102   101    2
    20    76    75   ar
    21   133   134    2
    22   133   132    1
    23   131   126   am
    24   131   132    1
    25   126   127    2
    26    72    71   ar
    27   136   138   am
    28   136   135    1
    29   101   100    1
    30   132   135    1
    31    75    73   ar
    32   146   147    1
    33   100    99    1
    34    71    73   ar
    35    71    70    1
    36   149   148    2
    37    70    67    1
    38   147   148    1
    39   147   150    1
    40   122   121   ar
    41    99    98    1
    42    67    68    1
    43    67    66    1
    44    98    95    1
    45   152   150    1
    46    95    94    1
    47    95    96    1
    48   123   121   ar
    49   121   120    1
    50   151   150    1
    51    69    68    2
    52    68    78   am
    53    97    96    2
    54    96   105   am
    55   116   117    1
    56   117   120    1
    57   117   118    1
    58    78    79    1
    59    79    80    1
    60    79    82    1
    61    84    82    1
    62   105   106    1
    63   118   119    2
    64   160   159   ar
    65    81    80    2
    66    80    85   am
    67   161   159   ar
    68    82    83    1
    69   183   181   ar
    70   183   182   ar
    71   159   158    1
    72   106   107    1
    73   106   109    1
    74    58    59    1
    75    87    88    2
    76    87    86    1
    77    85    86    1
    78   181   179   ar
    79   107   108    2
    80    60    61    2
    81    60    59    1
    82   182   180   ar
    83   153   154    1
    84   173   174    1
    85    59    62    1
    86   179   178   ar
    87    86    89    1
    88   180   178   ar
    89   187   186    2
    90   170   167    1
    91   170   171    1
    92   188   185    1
    93   188   189    1
    94   109   110    1
    95   185   186    1
    96   185   184    1
    97   178   177    1
    98   158   157    1
    99   156   155    2
   100   154   157    1
   101   154   155    1
   102   167   168    1
   103   167   166    1
   104   174   177    1
   105   174   175    1
   106    89    90    1
   107   168   169    2
   108    62    63    1
   109   184   190    1
   110   110   111    1
   111   171   172    1
   112   189   190    1
   113   175   176    2
   114    90    91    1
   115   166   172    1
   116    63    64    1
   117    64    65    1
   118   111   112    1
   119    91    92   ar
   120    91    93   ar
   121   112   113    2
   122   162   163    1
   123   163   164    1
   124   113   114    1
   125   113   115    1
   126   164   165    2
   127     9     7   am
   128     7     6    1
   129     7     8    2
   130     6     5    1
   131    47    49   ar
   132    47    45   ar
   133    49    48   ar
   134     5     2    1
   135    24    22    1
   136    45    44   ar
   137    45    43   ar
   138    44    42   ar
   139    48    46   ar
   140     2     1    1
   141     2     3    1
   142    23    22    1
   143    22    19    1
   144    35    33    1
   145    32    33    2
   146    32    31    1
   147    33    34    1
   148    16    15    1
   149    31    30    1
   150     3     4    2
   151    43    46   ar
   152    43    41   ar
   153    42    41   ar
   154    19    18    1
   155    19    20    1
   156    14    15    1
   157    14    11    1
   158    41    40    1
   159    18    12   am
   160    15    17    1
   161    57    56    1
   162    30    29    1
   163    29    26    1
   164    20    21    2
   165    12    11    1
   166    12    13    2
   167    55    56    1
   168    55    54    1
   169    11    10    1
   170    40    37    1
   171    36    37    1
   172    36    27   am
   173    54    51    1
   174    37    38    1
   175    26    27    1
   176    26    25    1
   177    27    28    2
   178    51    50    1
   179    51    52    1
   180    38    39    2
   181    52    53    2
