@<TRIPOS>MOLECULE
tmp/6igzO07.pdb
 161 159 0 0 0
SMALL
GASTEIGER

@<TRIPOS>ATOM
      1  N        235.2720  171.6710  249.3650 N.3    25  PHE25      -0.1227
      2  CA       234.7670  172.9580  249.8150 C.3    25  PHE25       0.1736
      3  C        234.0910  173.6020  248.6220 C.2    25  PHE25       0.2595
      4  O        234.7490  174.1410  247.7340 O.2    25  PHE25      -0.2718
      5  CB       235.9040  173.8150  250.3490 C.3    25  PHE25       0.0547
      6  CG       235.5070  175.2100  250.6680 C.ar   25  PHE25      -0.0202
      7  CD1      234.8050  175.4920  251.8130 C.ar   25  PHE25      -0.0042
      8  CD2      235.8610  176.2440  249.8390 C.ar   25  PHE25      -0.0042
      9  CE1      234.4450  176.7770  252.1110 C.ar   25  PHE25      -0.0003
     10  CE2      235.5100  177.5310  250.1370 C.ar   25  PHE25      -0.0003
     11  CZ       234.8000  177.7980  251.2710 C.ar   25  PHE25      -0.0000
     12  N        232.7630  173.5520  248.6110 N.am   26  ASP26      -0.1960
     13  CA       231.9660  174.1580  247.5500 C.3    26  ASP26       0.1825
     14  C        230.6540  174.6160  248.1640 C.2    26  ASP26       0.2464
     15  O        229.5840  174.0690  247.8780 O.2    26  ASP26      -0.2730
     16  CB       231.7560  173.1640  246.4110 C.3    26  ASP26       0.1450
     17  CG       230.9840  173.7470  245.2630 C.2    26  ASP26       0.3671
     18  OD1      231.3920  174.8020  244.7460 O.co2  26  ASP26      -0.2456
     19  OD2      229.9960  173.1170  244.8400 O.co2  26  ASP26      -0.2456
     20  N        230.6820  175.6510  249.0300 N.am   27  PRO27      -0.2715
     21  CA       229.4990  176.0490  249.8010 C.3    27  PRO27       0.1536
     22  C        228.2670  176.4490  248.9790 C.2    27  PRO27       0.2599
     23  O        227.1720  176.1040  249.3790 O.2    27  PRO27      -0.2715
     24  CB       229.9890  177.2460  250.6320 C.3    27  PRO27       0.0310
     25  CG       231.2040  177.7490  249.8840 C.3    27  PRO27       0.0237
     26  CD       231.8370  176.5070  249.2940 C.3    27  PRO27       0.0939
     27  N        228.4680  177.1580  247.8700 N.am   28  PHE28      -0.1960
     28  CA       227.3160  177.6080  247.0480 C.3    28  PHE28       0.1771
     29  C        226.9820  176.5870  245.9540 C.2    28  PHE28       0.2620
     30  O        226.0400  176.8580  245.1860 O.2    28  PHE28      -0.2715
     31  CB       227.5870  179.0000  246.4720 C.3    28  PHE28       0.0574
     32  CG       227.8600  180.0560  247.5130 C.ar   28  PHE28      -0.0200
     33  CD1      226.8400  180.5460  248.3110 C.ar   28  PHE28      -0.0042
     34  CD2      229.1370  180.5580  247.6970 C.ar   28  PHE28      -0.0042
     35  CE1      227.0920  181.5160  249.2680 C.ar   28  PHE28      -0.0003
     36  CE2      229.3880  181.5270  248.6550 C.ar   28  PHE28      -0.0003
     37  CZ       228.3650  182.0040  249.4390 C.ar   28  PHE28      -0.0000
     38  N        227.6920  175.4540  245.8790 N.am   29  GLY29      -0.1940
     39  CA       227.3770  174.5520  244.7950 C.3    29  GLY29       0.2014
     40  C        227.3920  175.2210  243.4390 C.2    29  GLY29       0.2638
     41  O        226.3950  175.1810  242.7170 O.2    29  GLY29      -0.2714
     42  N        228.5040  175.8600  243.0840 N.am   30  LEU30      -0.1977
     43  CA       228.6050  176.4470  241.7510 C.3    30  LEU30       0.1596
     44  C        228.9410  175.3810  240.7190 C.2    30  LEU30       0.2287
     45  O        228.1180  175.0530  239.8620 O.2    30  LEU30      -0.2864
     46  CB       229.6260  177.5830  241.7460 C.3    30  LEU30       0.0297
     47  CG       228.9700  178.9500  241.9190 C.3    30  LEU30       0.0022
     48  CD1      228.2160  179.0400  243.2090 C.3    30  LEU30       0.0001
     49  CD2      230.0210  180.0280  241.8680 C.3    30  LEU30       0.0001
     50  N        243.4500  182.1290  236.9680 N.3    53  HIS53      -0.1241
     51  CA       243.6820  183.0450  238.0770 C.3    53  HIS53       0.1621
     52  C        244.8400  182.5800  238.9300 C.2    53  HIS53       0.2264
     53  O        245.6050  183.3960  239.4490 O.2    53  HIS53      -0.2867
     54  CB       242.4470  183.1820  238.9560 C.3    53  HIS53       0.0745
     55  CG       241.3760  184.0380  238.3770 C.ar   53  HIS53       0.0817
     56  ND1      240.4610  183.5690  237.4660 N.ar   53  HIS53      -0.2268
     57  CD2      241.0510  185.3280  238.6110 C.ar   53  HIS53       0.1154
     58  CE1      239.6260  184.5400  237.1520 C.ar   53  HIS53       0.1986
     59  NE2      239.9630  185.6180  237.8320 N.ar   53  HIS53      -0.2212
     60  N        248.3660  183.4970  236.8780 N.3    56  PHE56      -0.1227
     61  CA       248.6720  184.9210  236.9690 C.3    56  PHE56       0.1736
     62  C        249.0540  185.3180  238.3840 C.2    56  PHE56       0.2595
     63  O        250.0120  186.0690  238.5920 O.2    56  PHE56      -0.2718
     64  CB       247.4940  185.7640  236.4940 C.3    56  PHE56       0.0547
     65  CG       247.3080  185.7700  235.0140 C.ar   56  PHE56      -0.0202
     66  CD1      248.0600  186.6110  234.2260 C.ar   56  PHE56      -0.0042
     67  CD2      246.3730  184.9670  234.4110 C.ar   56  PHE56      -0.0042
     68  CE1      247.8920  186.6350  232.8660 C.ar   56  PHE56      -0.0003
     69  CE2      246.2060  184.9960  233.0540 C.ar   56  PHE56      -0.0003
     70  CZ       246.9640  185.8280  232.2840 C.ar   56  PHE56      -0.0000
     71  N        248.3080  184.8360  239.3740 N.am   57  ALA57      -0.1980
     72  CA       248.6420  185.1540  240.7530 C.3    57  ALA57       0.1597
     73  C        250.0860  184.7920  241.0410 C.2    57  ALA57       0.2287
     74  O        250.8660  185.6190  241.5260 O.2    57  ALA57      -0.2864
     75  CB       247.7030  184.4230  241.7050 C.3    57  ALA57       0.0319
     76  N        252.4730  184.4890  238.9360 N.3    59  LEU59      -0.1231
     77  CA       253.3060  185.4600  238.2500 C.3    59  LEU59       0.1693
     78  C        253.1190  186.8470  238.8290 C.2    59  LEU59       0.2592
     79  O        254.0370  187.6690  238.7780 O.2    59  LEU59      -0.2718
     80  CB       252.9950  185.4620  236.7630 C.3    59  LEU59       0.0284
     81  CG       253.2590  184.1190  236.1010 C.3    59  LEU59       0.0019
     82  CD1      252.9010  184.1810  234.6390 C.3    59  LEU59       0.0001
     83  CD2      254.6970  183.7300  236.2920 C.3    59  LEU59       0.0001
     84  N        251.9400  187.1340  239.3700 N.am   60  GLY60      -0.1957
     85  CA       251.7540  188.4070  240.0360 C.3    60  GLY60       0.1869
     86  C        252.5480  188.4980  241.3230 C.2    60  GLY60       0.2309
     87  O        253.3590  189.4100  241.5040 O.2    60  GLY60      -0.2863
     88  N        256.1270  188.6900  240.9770 N.3    63  GLY63      -0.1210
     89  CA       256.5580  189.8840  240.2820 C.3    63  GLY63       0.1956
     90  C        256.4170  191.1520  241.0910 C.2    63  GLY63       0.2612
     91  O        257.0850  192.1510  240.8190 O.2    63  GLY63      -0.2717
     92  N        255.5340  191.1280  242.0830 N.am   64  CYS64      -0.1970
     93  CA       255.3670  192.2930  242.9400 C.3    64  CYS64       0.1712
     94  C        256.4730  192.3730  243.9790 C.2    64  CYS64       0.2296
     95  O        256.9160  193.4690  244.3370 O.2    64  CYS64      -0.2864
     96  CB       254.0050  192.2440  243.6240 C.3    64  CYS64       0.0983
     97  SG       252.6000  192.3110  242.5040 S.3    64  CYS64      -0.0798
     98  N        255.4870  197.8450  244.0620 N.3    84  TRP84      -0.1241
     99  CA       254.8240  197.3050  242.8810 C.3    84  TRP84       0.1605
    100  C        253.6850  198.1920  242.4060 C.2    84  TRP84       0.2264
    101  O        253.4400  198.2970  241.2010 O.2    84  TRP84      -0.2867
    102  CB       254.3150  195.8940  243.1510 C.3    84  TRP84       0.0550
    103  CG       253.2880  195.7940  244.2110 C.ar   84  TRP84       0.0003
    104  CD1      253.4900  195.5460  245.5330 C.ar   84  TRP84       0.0946
    105  CD2      251.8830  195.9470  244.0410 C.ar   84  TRP84       0.0152
    106  NE1      252.2910  195.5260  246.1960 N.ar   84  TRP84      -0.2442
    107  CE2      251.2890  195.7700  245.2960 C.ar   84  TRP84       0.0810
    108  CE3      251.0690  196.2150  242.9430 C.ar   84  TRP84       0.0012
    109  CZ2      249.9260  195.8570  245.4840 C.ar   84  TRP84       0.0191
    110  CZ3      249.7210  196.3000  243.1330 C.ar   84  TRP84       0.0001
    111  CH2      249.1600  196.1240  244.3900 C.ar   84  TRP84       0.0015
    112  N        254.8360  201.6010  240.5280 N.3    87  ASN87      -0.1240
    113  CA       255.6120  201.4140  239.3110 C.3    87  ASN87       0.1653
    114  C        255.1890  202.3390  238.1840 C.2    87  ASN87       0.2266
    115  O        255.8420  202.3440  237.1380 O.2    87  ASN87      -0.2867
    116  CB       255.4900  199.9720  238.8330 C.3    87  ASN87       0.1155
    117  CG       256.0510  198.9840  239.8270 C.2    87  ASN87       0.2627
    118  OD1      256.8250  199.3440  240.7030 O.2    87  ASN87      -0.2716
    119  ND2      255.6690  197.7270  239.6840 N.am   87  ASN87      -0.0877
    120  N        251.9140  202.0770  237.1730 N.3    89  VAL89      -0.1245
    121  CA       250.6520  201.4890  236.7540 C.3    89  VAL89       0.1561
    122  C        249.4880  202.3250  237.2550 C.2    89  VAL89       0.2260
    123  O        248.4710  202.4680  236.5710 O.2    89  VAL89      -0.2867
    124  CB       250.5650  200.0360  237.2480 C.3    89  VAL89       0.0252
    125  CG1      250.7210  199.9830  238.7340 C.3    89  VAL89       0.0019
    126  CG2      249.2410  199.4570  236.8860 C.3    89  VAL89       0.0019
    127  N        246.9500  183.4630  244.9540 N.3   184  MET184     -0.1230
    128  CA       245.8960  184.4620  244.8430 C.3   184  MET184      0.1702
    129  C        245.7630  185.2410  246.1390 C.2   184  MET184      0.2592
    130  O        245.8580  186.4710  246.1540 O.2   184  MET184     -0.2718
    131  CB       244.5660  183.8050  244.5040 C.3   184  MET184      0.0401
    132  CG       244.5260  183.0170  243.2340 C.3   184  MET184      0.0596
    133  SD       242.8710  182.3370  243.0800 S.3   184  MET184     -0.1393
    134  CE       243.0630  181.2110  241.7180 C.3   184  MET184      0.0692
    135  N        245.5280  184.5300  247.2440 N.am  185  MET185     -0.1979
    136  CA       245.3660  185.1920  248.5320 C.3   185  MET185      0.1605
    137  C        246.5230  186.1380  248.8050 C.2   185  MET185      0.2287
    138  O        246.3250  187.2430  249.3180 O.2   185  MET185     -0.2864
    139  CB       245.2500  184.1550  249.6440 C.3   185  MET185      0.0413
    140  CG       244.0410  183.2550  249.5280 C.3   185  MET185      0.0598
    141  SD       242.4860  184.1550  249.5160 S.3   185  MET185     -0.1393
    142  CE       242.5040  184.8780  251.1480 C.3   185  MET185      0.0692
    143  N        248.2120  187.8490  246.5510 N.3   187  MET187     -0.1230
    144  CA       247.9000  189.0650  245.8080 C.3   187  MET187      0.1702
    145  C        246.7160  189.7950  246.4170 C.2   187  MET187      0.2592
    146  O        246.7140  191.0270  246.4980 O.2   187  MET187     -0.2718
    147  CB       247.6290  188.7410  244.3450 C.3   187  MET187      0.0401
    148  CG       248.8560  188.3710  243.5650 C.3   187  MET187      0.0596
    149  SD       250.0390  189.7190  243.5620 S.3   187  MET187     -0.1393
    150  CE       249.1080  190.9760  242.7030 C.3   187  MET187      0.0692
    151  N        245.7020  189.0560  246.8590 N.am  188  PHE188     -0.1976
    152  CA       244.5620  189.7030  247.4910 C.3   188  PHE188      0.1639
    153  C        244.9830  190.4710  248.7270 C.2   188  PHE188      0.2290
    154  O        244.3590  191.4750  249.0750 O.2   188  PHE188     -0.2864
    155  CB       243.5030  188.6730  247.8520 C.3   188  PHE188      0.0560
    156  CG       242.3010  189.2560  248.5150 C.ar  188  PHE188     -0.0200
    157  CD1      241.3390  189.8990  247.7730 C.ar  188  PHE188     -0.0042
    158  CD2      242.1190  189.1430  249.8720 C.ar  188  PHE188     -0.0042
    159  CE1      240.2290  190.4280  248.3750 C.ar  188  PHE188     -0.0003
    160  CE2      241.0090  189.6690  250.4790 C.ar  188  PHE188     -0.0003
    161  CZ       240.0630  190.3120  249.7290 C.ar  188  PHE188     -0.0000
@<TRIPOS>BOND
     1    70    68   ar
     2    70    69   ar
     3    68    66   ar
     4    69    67   ar
     5    66    65   ar
     6    67    65   ar
     7    82    81    1
     8    65    64    1
     9    81    83    1
    10    81    80    1
    11    64    61    1
    12   123   122    2
    13   121   120    1
    14   121   124    1
    15   121   122    1
    16    80    77    1
    17    60    61    1
    18   126   124    1
    19    50    51    1
    20    61    62    1
    21   115   114    2
    22    58    56   ar
    23    58    59   ar
    24   124   125    1
    25    56    55   ar
    26    59    57   ar
    27    51    52    1
    28    51    54    1
    29   114   113    1
    30    77    78    1
    31    77    76    1
    32    55    57   ar
    33    55    54    1
    34    62    63    2
    35    62    71   am
    36    79    78    2
    37    78    84   am
    38   116   113    1
    39   116   117    1
    40    52    53    2
    41   113   112    1
    42    84    85    1
    43    71    72    1
    44   119   117   am
    45   117   118    2
    46    45    44    2
    47    85    86    1
    48    89    88    1
    49    89    90    1
    50    44    43    1
    51    72    73    1
    52    72    75    1
    53    91    90    2
    54    73    74    2
    55    90    92   am
    56   101   100    2
    57    86    87    2
    58   134   133    1
    59    46    43    1
    60    46    47    1
    61    43    42    1
    62    49    47    1
    63    47    48    1
    64    92    93    1
    65   100    99    1
    66    97    96    1
    67   150   149    1
    68    41    40    2
    69    99   102    1
    70    99    98    1
    71    93    96    1
    72    93    94    1
    73   108   110   ar
    74   108   105   ar
    75   133   132    1
    76    42    40   am
    77   110   111   ar
    78   102   103    1
    79   132   131    1
    80    40    39    1
    81   149   148    1
    82   148   147    1
    83    94    95    2
    84   105   103   ar
    85   105   107   ar
    86   103   104   ar
    87   147   144    1
    88   111   109   ar
    89   131   128    1
    90    18    17   ar
    91    39    38    1
    92    19    17   ar
    93   128   127    1
    94   128   129    1
    95    30    29    2
    96    17    16    1
    97   107   109   ar
    98   107   106   ar
    99   104   106   ar
   100   144   145    1
   101   144   143    1
   102    38    29   am
   103    29    28    1
   104   129   130    2
   105   129   135   am
   106    16    13    1
   107   145   146    2
   108   145   151   am
   109    31    28    1
   110    31    32    1
   111   151   152    1
   112    28    27    1
   113   135   136    1
   114   152   155    1
   115   152   153    1
   116    32    34   ar
   117    32    33   ar
   118    13    14    1
   119    13    12    1
   120    34    36   ar
   121     4     3    2
   122   157   159   ar
   123   157   156   ar
   124   155   156    1
   125    27    22   am
   126    15    14    2
   127    14    20   am
   128    33    35   ar
   129   159   161   ar
   130   156   158   ar
   131   136   137    1
   132   136   139    1
   133    12     3   am
   134     3     2    1
   135    36    37   ar
   136   153   154    2
   137   137   138    2
   138    22    23    2
   139    22    21    1
   140    20    26    1
   141    20    21    1
   142    35    37   ar
   143    26    25    1
   144     1     2    1
   145   141   140    1
   146   141   142    1
   147   140   139    1
   148   161   160   ar
   149    21    24    1
   150     2     5    1
   151     8    10   ar
   152     8     6   ar
   153   158   160   ar
   154    25    24    1
   155    10    11   ar
   156     5     6    1
   157     6     7   ar
   158    11     9   ar
   159     7     9   ar
