@<TRIPOS>MOLECULE
tmp/6igzN06.pdb
 92 91 0 0 0
SMALL
GASTEIGER

@<TRIPOS>ATOM
      1  N        240.1010  203.0780  193.7720 N.3    49  TRP49      -0.1241
      2  CA       240.3220  204.4810  194.0970 C.3    49  TRP49       0.1605
      3  C        241.3090  204.6410  195.2340 C.2    49  TRP49       0.2264
      4  O        242.0590  205.6190  195.2660 O.2    49  TRP49      -0.2867
      5  CB       239.0230  205.1760  194.4680 C.3    49  TRP49       0.0550
      6  CG       238.1350  205.3880  193.3230 C.ar   49  TRP49       0.0003
      7  CD1      237.0400  204.6670  192.9990 C.ar   49  TRP49       0.0946
      8  CD2      238.2840  206.3730  192.3060 C.ar   49  TRP49       0.0152
      9  NE1      236.4760  205.1510  191.8550 N.ar   49  TRP49      -0.2442
     10  CE2      237.2270  206.2020  191.4070 C.ar   49  TRP49       0.0810
     11  CE3      239.2100  207.3900  192.0710 C.ar   49  TRP49       0.0012
     12  CZ2      237.0660  207.0050  190.2900 C.ar   49  TRP49       0.0191
     13  CZ3      239.0510  208.1850  190.9640 C.ar   49  TRP49       0.0001
     14  CH2      237.9880  207.9900  190.0870 C.ar   49  TRP49       0.0015
     15  N        244.9270  204.3580  193.9130 N.3    52  LEU52      -0.1245
     16  CA       245.3120  205.6060  193.2730 C.3    52  LEU52       0.1561
     17  C        245.4270  206.7390  194.2740 C.2    52  LEU52       0.2260
     18  O        246.2720  207.6200  194.1060 O.2    52  LEU52      -0.2867
     19  CB       244.3190  206.0000  192.1840 C.3    52  LEU52       0.0270
     20  CG       244.2150  205.1700  190.9090 C.3    52  LEU52       0.0019
     21  CD1      243.1070  205.7350  190.0550 C.3    52  LEU52       0.0001
     22  CD2      245.5180  205.1820  190.1480 C.3    52  LEU52       0.0001
     23  N        233.5380  217.8690  186.3830 N.3    95  GLN95      -0.1245
     24  CA       233.5170  216.6170  187.1220 C.3    95  GLN95       0.1566
     25  C        232.1910  215.9140  186.9020 C.2    95  GLN95       0.2260
     26  O        232.1160  214.9310  186.1640 O.2    95  GLN95      -0.2867
     27  CB       233.6880  216.8950  188.6130 C.3    95  GLN95       0.0367
     28  CG       233.6650  215.7000  189.5180 C.3    95  GLN95       0.0905
     29  CD       234.9730  215.0220  189.5860 C.2    95  GLN95       0.2608
     30  OE1      235.2150  214.0380  188.9030 O.2    95  GLN95      -0.2717
     31  NE2      235.8440  215.5340  190.4350 N.am   95  GLN95      -0.0878
     32  N        231.5590  214.8640  183.1330 N.3    98  MET98      -0.1230
     33  CA       232.3530  213.7610  182.6090 C.3    98  MET98       0.1702
     34  C        232.3240  212.5700  183.5520 C.2    98  MET98       0.2592
     35  O        232.1390  211.4290  183.1200 O.2    98  MET98      -0.2718
     36  CB       233.7940  214.2000  182.3640 C.3    98  MET98       0.0401
     37  CG       233.9570  215.2840  181.3310 C.3    98  MET98       0.0596
     38  SD       235.6730  215.4470  180.8180 S.3    98  MET98      -0.1393
     39  CE       236.4220  216.0840  182.3020 C.3    98  MET98       0.0692
     40  N        232.5170  212.8110  184.8460 N.am   99  MET99      -0.1979
     41  CA       232.5830  211.7020  185.7880 C.3    99  MET99       0.1605
     42  C        231.2580  210.9690  185.8650 C.2    99  MET99       0.2287
     43  O        231.2170  209.7390  185.8150 O.2    99  MET99      -0.2864
     44  CB       232.9890  212.2000  187.1660 C.3    99  MET99       0.0413
     45  CG       233.0290  211.1170  188.1860 C.3    99  MET99       0.0598
     46  SD       234.3280  209.9530  187.8270 S.3    99  MET99      -0.1393
     47  CE       234.0850  208.8060  189.1640 C.3    99  MET99       0.0692
     48  N        229.1890  210.5110  183.6930 N.3   101  TRP101     -0.1227
     49  CA       228.9950  209.6990  182.4980 C.3   101  TRP101      0.1737
     50  C        229.5320  208.2950  182.7010 C.2   101  TRP101      0.2596
     51  O        228.8570  207.3080  182.4000 O.2   101  TRP101     -0.2718
     52  CB       229.6960  210.3350  181.3080 C.3   101  TRP101      0.0564
     53  CG       229.5270  209.5490  180.0700 C.ar  101  TRP101      0.0003
     54  CD1      230.3450  208.5780  179.6070 C.ar  101  TRP101      0.0946
     55  CD2      228.5100  209.7210  179.0870 C.ar  101  TRP101      0.0152
     56  NE1      229.8770  208.0960  178.4160 N.ar  101  TRP101     -0.2442
     57  CE2      228.7510  208.7900  178.0720 C.ar  101  TRP101      0.0810
     58  CE3      227.4090  210.5660  178.9750 C.ar  101  TRP101      0.0012
     59  CZ2      227.9340  208.6780  176.9620 C.ar  101  TRP101      0.0191
     60  CZ3      226.6000  210.4500  177.8780 C.ar  101  TRP101      0.0001
     61  CH2      226.8650  209.5190  176.8830 C.ar  101  TRP101      0.0015
     62  N        230.7640  208.1910  183.1880 N.am  102  SER102     -0.1952
     63  CA       231.3800  206.8880  183.3740 C.3   102  SER102      0.1924
     64  C        230.5920  206.0550  184.3640 C.2   102  SER102      0.2314
     65  O        230.2030  204.9200  184.0730 O.2   102  SER102     -0.2863
     66  CB       232.8100  207.0690  183.8570 C.3   102  SER102      0.2116
     67  OG       233.5600  207.7790  182.8970 O.3   102  SER102     -0.2180
     68  N        226.7040  201.2940  169.0700 N.3   120  SER120     -0.1202
     69  CA       225.9990  202.5660  169.0280 C.3   120  SER120      0.2020
     70  C        226.3520  203.4660  170.2000 C.2   120  SER120      0.2619
     71  O        225.5590  204.3220  170.5910 O.2   120  SER120     -0.2717
     72  CB       224.4850  202.3570  168.9500 C.3   120  SER120      0.2103
     73  OG       224.1250  201.7350  167.7270 O.3   120  SER120     -0.2182
     74  N        227.5180  203.2700  170.7850 N.am  121  PHE121     -0.1961
     75  CA       228.2660  204.3550  171.3970 C.3   121  PHE121      0.1771
     76  C        229.5290  204.4630  170.5590 C.2   121  PHE121      0.2619
     77  O        230.4890  203.7270  170.7890 O.2   121  PHE121     -0.2715
     78  CB       228.5770  204.0450  172.8540 C.3   121  PHE121      0.0574
     79  CG       229.5030  205.0210  173.4970 C.ar  121  PHE121     -0.0200
     80  CD1      229.0290  206.1940  174.0320 C.ar  121  PHE121     -0.0042
     81  CD2      230.8510  204.7610  173.5670 C.ar  121  PHE121     -0.0042
     82  CE1      229.8820  207.0850  174.6250 C.ar  121  PHE121     -0.0003
     83  CE2      231.7060  205.6520  174.1520 C.ar  121  PHE121     -0.0003
     84  CZ       231.2230  206.8150  174.6830 C.ar  121  PHE121     -0.0000
     85  N        229.5360  205.4030  169.6120 N.am  122  MET122     -0.1977
     86  CA       230.6710  205.5970  168.7170 C.3   122  MET122      0.1605
     87  C        231.2790  204.2750  168.2650 C.2   122  MET122      0.2287
     88  O        232.5040  204.1330  168.2500 O.2   122  MET122     -0.2864
     89  CB       231.7400  206.4680  169.3700 C.3   122  MET122      0.0413
     90  CG       231.3390  207.9170  169.4930 C.3   122  MET122      0.0598
     91  SD       232.6740  208.9460  170.1110 S.3   122  MET122     -0.1393
     92  CE       232.6940  208.4590  171.8310 C.3   122  MET122      0.0692
@<TRIPOS>BOND
     1    73    72    1
     2    88    87    2
     3    87    86    1
     4    86    89    1
     5    86    85    1
     6    72    69    1
     7    69    68    1
     8    69    70    1
     9    89    90    1
    10    90    91    1
    11    85    76   am
    12    91    92    1
    13    70    71    2
    14    70    74   am
    15    76    77    2
    16    76    75    1
    17    74    75    1
    18    75    78    1
    19    78    79    1
    20    79    81   ar
    21    79    80   ar
    22    81    83   ar
    23    80    82   ar
    24    83    84   ar
    25    82    84   ar
    26    61    59   ar
    27    61    60   ar
    28    59    57   ar
    29    60    58   ar
    30    57    56   ar
    31    57    55   ar
    32    56    54   ar
    33    58    55   ar
    34    55    53   ar
    35    54    53   ar
    36    53    52    1
    37    38    37    1
    38    38    39    1
    39    52    49    1
    40    37    36    1
    41    36    33    1
    42    51    50    2
    43    49    50    1
    44    49    48    1
    45    33    32    1
    46    33    34    1
    47    50    62   am
    48    67    66    1
    49    35    34    2
    50    62    63    1
    51    63    66    1
    52    63    64    1
    53    34    40   am
    54    65    64    2
    55    40    41    1
    56    41    42    1
    57    41    44    1
    58    43    42    2
    59    26    25    2
    60    23    24    1
    61    25    24    1
    62    24    27    1
    63    44    45    1
    64    46    45    1
    65    46    47    1
    66    27    28    1
    67    30    29    2
    68    28    29    1
    69    29    31   am
    70    21    20    1
    71    14    12   ar
    72    14    13   ar
    73    22    20    1
    74    12    10   ar
    75    20    19    1
    76    13    11   ar
    77    10     9   ar
    78    10     8   ar
    79     9     7   ar
    80    11     8   ar
    81    19    16    1
    82     8     6   ar
    83     7     6   ar
    84    16    15    1
    85    16    17    1
    86     6     5    1
    87     1     2    1
    88     2     5    1
    89     2     3    1
    90    18    17    2
    91     3     4    2
