@<TRIPOS>MOLECULE
tmp/6igzV05.pdb
 78 72 0 0 0
SMALL
GASTEIGER

@<TRIPOS>ATOM
      1  N        130.0310  239.5620  258.2000 N.3   146  ILE146     -0.1231
      2  CA       131.4610  239.8030  258.0820 C.3   146  ILE146      0.1692
      3  C        131.6730  240.9860  257.1490 C.2   146  ILE146      0.2592
      4  O        132.1280  242.0530  257.5740 O.2   146  ILE146     -0.2718
      5  CB       132.2040  238.5530  257.5830 C.3   146  ILE146      0.0266
      6  CG1      132.1260  237.4440  258.6320 C.3   146  ILE146      0.0019
      7  CG2      133.6410  238.8850  257.2630 C.3   146  ILE146      0.0020
      8  CD1      132.6370  236.1030  258.1580 C.3   146  ILE146      0.0001
      9  N        131.3190  240.8110  255.8750 N.am  147  SER147     -0.1952
     10  CA       131.5550  241.8600  254.8920 C.3   147  SER147      0.1924
     11  C        130.8250  243.1460  255.2460 C.2   147  SER147      0.2314
     12  O        131.2580  244.2300  254.8440 O.2   147  SER147     -0.2863
     13  CB       131.1330  241.3820  253.5080 C.3   147  SER147      0.2116
     14  OG       129.7470  241.1160  253.4830 O.3   147  SER147     -0.2180
     15  N        133.5250  244.4290  257.1870 N.3   150  LEU150     -0.1231
     16  CA       134.7310  244.6080  256.3890 C.3   150  LEU150      0.1693
     17  C        134.5400  245.6850  255.3340 C.2   150  LEU150      0.2591
     18  O        135.2550  246.6900  255.3210 O.2   150  LEU150     -0.2718
     19  CB       135.1440  243.2900  255.7450 C.3   150  LEU150      0.0284
     20  CG       136.0870  242.4440  256.5920 C.3   150  LEU150      0.0019
     21  CD1      135.4180  241.9720  257.8670 C.3   150  LEU150      0.0001
     22  CD2      136.5910  241.2720  255.7820 C.3   150  LEU150      0.0001
     23  N        133.5720  245.4980  254.4410 N.am  151  VAL151     -0.1980
     24  CA       133.3460  246.4880  253.3930 C.3   151  VAL151      0.1595
     25  C        132.9170  247.8150  254.0010 C.2   151  VAL151      0.2287
     26  O        133.5870  248.8400  253.8430 O.2   151  VAL151     -0.2864
     27  CB       132.3080  245.9780  252.3840 C.3   151  VAL151      0.0276
     28  CG1      131.9200  247.0840  251.4340 C.3   151  VAL151      0.0022
     29  CG2      132.8700  244.8080  251.6160 C.3   151  VAL151      0.0022
     30  N        126.1410  246.8190  247.2550 N.3   172  ILE172     -0.1245
     31  CA       127.5320  246.4010  247.1370 C.3   172  ILE172      0.1561
     32  C        128.1260  246.9120  245.8380 C.2   172  ILE172      0.2260
     33  O        129.2820  247.3500  245.7920 O.2   172  ILE172     -0.2867
     34  CB       127.6320  244.8700  247.2240 C.3   172  ILE172      0.0252
     35  CG1      129.0760  244.4250  247.0430 C.3   172  ILE172      0.0019
     36  CG2      126.7520  244.2110  246.1840 C.3   172  ILE172      0.0019
     37  CD1      129.2750  242.9760  247.3230 C.3   172  ILE172      0.0001
     38  N        133.5240  249.0490  246.7780 N.3   176  SER176     -0.1202
     39  CA       134.5790  248.0460  246.8720 C.3   176  SER176      0.2020
     40  C        134.3700  246.8750  245.9280 C.2   176  SER176      0.2618
     41  O        134.4130  247.0270  244.7050 O.2   176  SER176     -0.2717
     42  CB       134.6890  247.5230  248.3010 C.3   176  SER176      0.2103
     43  OG       133.5250  246.8020  248.6570 O.3   176  SER176     -0.2182
     44  N        134.1370  245.7000  246.5070 N.am  177  VAL177     -0.1979
     45  CA       134.0660  244.4340  245.7890 C.3   177  VAL177      0.1595
     46  C        132.9240  244.4400  244.7830 C.2   177  VAL177      0.2287
     47  O        132.7380  243.4700  244.0430 O.2   177  VAL177     -0.2864
     48  CB       133.9140  243.2580  246.7680 C.3   177  VAL177      0.0276
     49  CG1      135.1640  243.0970  247.6080 C.3   177  VAL177      0.0022
     50  CG2      132.7270  243.4920  247.6580 C.3   177  VAL177      0.0022
     51  N        134.0050  243.5290  241.7680 N.3   180  GLU180     -0.1231
     52  CA       134.3690  242.1190  241.7450 C.3   180  GLU180      0.1699
     53  C        133.1410  241.2230  241.6630 C.2   180  GLU180      0.2592
     54  O        133.1340  240.2430  240.9110 O.2   180  GLU180     -0.2718
     55  CB       135.1830  241.7810  242.9880 C.3   180  GLU180      0.0402
     56  CG       136.4650  242.5690  243.1100 C.3   180  GLU180      0.1161
     57  CD       137.2030  242.2670  244.3940 C.2   180  GLU180      0.3649
     58  OE1      136.6380  241.5600  245.2530 O.co2 180  GLU180     -0.2457
     59  OE2      138.3480  242.7390  244.5480 O.co2 180  GLU180     -0.2457
     60  N        132.0970  241.5400  242.4300 N.am  181  VAL181     -0.1980
     61  CA       130.9040  240.7020  242.4410 C.3   181  VAL181      0.1595
     62  C        130.1930  240.7620  241.1040 C.2   181  VAL181      0.2287
     63  O        129.7990  239.7300  240.5480 O.2   181  VAL181     -0.2864
     64  CB       129.9700  241.1130  243.5870 C.3   181  VAL181      0.0276
     65  CG1      128.6500  240.3960  243.4600 C.3   181  VAL181      0.0022
     66  CG2      130.6080  240.7790  244.8990 C.3   181  VAL181      0.0022
     67  N        131.2150  240.9170  238.3270 N.3   183  VAL183     -0.1231
     68  CA       131.8050  239.9490  237.4120 C.3   183  VAL183      0.1692
     69  C        131.4310  238.5280  237.8150 C.2   183  VAL183      0.2591
     70  O        131.1120  237.6940  236.9610 O.2   183  VAL183     -0.2718
     71  CB       133.3250  240.1440  237.3450 C.3   183  VAL183      0.0266
     72  CG1      133.9560  239.0290  236.5470 C.3   183  VAL183      0.0020
     73  CG2      133.6390  241.4870  236.7170 C.3   183  VAL183      0.0020
     74  N        131.4540  238.2310  239.1160 N.am  184  ALA184     -0.1980
     75  CA       131.0410  236.9120  239.5810 C.3   184  ALA184      0.1597
     76  C        129.5650  236.6580  239.3360 C.2   184  ALA184      0.2287
     77  O        129.1390  235.4990  239.3340 O.2   184  ALA184     -0.2864
     78  CB       131.3480  236.7460  241.0670 C.3   184  ALA184      0.0319
@<TRIPOS>BOND
     1    72    71    1
     2    73    71    1
     3    70    69    2
     4    71    68    1
     5    68    69    1
     6    68    67    1
     7    69    74   am
     8    74    75    1
     9    77    76    2
    10    76    75    1
    11    75    78    1
    12    63    62    2
    13    54    53    2
    14    62    61    1
    15    53    52    1
    16    53    60   am
    17    52    51    1
    18    52    55    1
    19    60    61    1
    20    61    64    1
    21    55    56    1
    22    56    57    1
    23    65    64    1
    24    64    66    1
    25    47    46    2
    26    57    59   ar
    27    57    58   ar
    28    41    40    2
    29    46    45    1
    30    45    44    1
    31    45    48    1
    32    33    32    2
    33    32    31    1
    34    40    44   am
    35    40    39    1
    36    36    34    1
    37    48    49    1
    38    48    50    1
    39    38    39    1
    40    39    42    1
    41    35    34    1
    42    35    37    1
    43    31    34    1
    44    31    30    1
    45    42    43    1
    46    28    27    1
    47    29    27    1
    48    27    24    1
    49    24    25    1
    50    24    23    1
    51    14    13    1
    52    13    10    1
    53    26    25    2
    54    23    17   am
    55    12    11    2
    56    10    11    1
    57    10     9    1
    58    18    17    2
    59    17    16    1
    60    19    16    1
    61    19    20    1
    62    22    20    1
    63     9     3   am
    64    16    15    1
    65    20    21    1
    66     3     4    2
    67     3     2    1
    68     7     5    1
    69     5     2    1
    70     5     6    1
    71     2     1    1
    72     8     6    1
