@<TRIPOS>MOLECULE
tmp/6igzV03.pdb
 158 152 0 0 0
SMALL
GASTEIGER

@<TRIPOS>ATOM
      1  N        123.2660  219.2710  244.8250 N.3    24  TYR24      -0.1227
      2  CA       124.3470  220.1390  244.3820 C.3    24  TYR24       0.1736
      3  C        125.6520  219.6150  244.9630 C.2    24  TYR24       0.2595
      4  O        125.8820  219.7100  246.1730 O.2    24  TYR24      -0.2718
      5  CB       124.0970  221.5870  244.7870 C.3    24  TYR24       0.0548
      6  CG       125.2220  222.4970  244.3880 C.ar   24  TYR24      -0.0200
      7  CD1      125.5170  222.7010  243.0530 C.ar   24  TYR24      -0.0009
      8  CD2      125.9530  223.1930  245.3310 C.ar   24  TYR24      -0.0009
      9  CE1      126.5320  223.5330  242.6650 C.ar   24  TYR24       0.0417
     10  CE2      126.9690  224.0400  244.9490 C.ar   24  TYR24       0.0417
     11  CZ       127.2540  224.2040  243.6160 C.ar   24  TYR24       0.1957
     12  OH       128.2670  225.0430  243.2250 O.3    24  TYR24      -0.2866
     13  N        126.5020  219.0710  244.0960 N.am   25  ASP25      -0.1960
     14  CA       127.7960  218.5180  244.4910 C.3    25  ASP25       0.1825
     15  C        128.7970  218.8890  243.4160 C.2    25  ASP25       0.2464
     16  O        129.1530  218.0720  242.5590 O.2    25  ASP25      -0.2730
     17  CB       127.7200  217.0030  244.6840 C.3    25  ASP25       0.1450
     18  CG       129.0090  216.4170  245.2240 C.2    25  ASP25       0.3671
     19  OD1      129.9430  217.1840  245.5430 O.co2  25  ASP25      -0.2456
     20  OD2      129.0860  215.1780  245.3190 O.co2  25  ASP25      -0.2456
     21  N        129.2680  220.1310  243.4220 N.am   26  PRO26      -0.2715
     22  CA       130.2110  220.5480  242.3740 C.3    26  PRO26       0.1536
     23  C        131.5170  219.7710  242.3800 C.2    26  PRO26       0.2598
     24  O        131.9580  219.2950  241.3270 O.2    26  PRO26      -0.2715
     25  CB       130.4210  222.0340  242.6870 C.3    26  PRO26       0.0310
     26  CG       130.1500  222.1420  244.1500 C.3    26  PRO26       0.0237
     27  CD       129.0350  221.1860  244.4170 C.3    26  PRO26       0.0939
     28  N        132.1360  219.6040  243.5470 N.am   27  LEU27      -0.1978
     29  CA       133.5120  219.1370  243.6360 C.3    27  LEU27       0.1596
     30  C        133.6360  217.6320  243.8330 C.2    27  LEU27       0.2287
     31  O        134.7480  217.1500  244.0720 O.2    27  LEU27      -0.2864
     32  CB       134.2450  219.8610  244.7670 C.3    27  LEU27       0.0297
     33  CG       134.3880  221.3760  244.6240 C.3    27  LEU27       0.0022
     34  CD1      135.0990  221.9420  245.8410 C.3    27  LEU27       0.0001
     35  CD2      135.1100  221.7560  243.3440 C.3    27  LEU27       0.0001
     36  N        132.6940  216.0810  246.3780 N.3    29  LEU29      -0.1231
     37  CA       132.8800  215.8050  247.7960 C.3    29  LEU29       0.1693
     38  C        131.6630  215.1270  248.4060 C.2    29  LEU29       0.2592
     39  O        131.7940  214.4090  249.4020 O.2    29  LEU29      -0.2718
     40  CB       133.1910  217.0970  248.5490 C.3    29  LEU29       0.0284
     41  CG       134.5290  217.7130  248.1710 C.3    29  LEU29       0.0019
     42  CD1      134.7120  219.0580  248.8400 C.3    29  LEU29       0.0001
     43  CD2      135.6360  216.7570  248.5620 C.3    29  LEU29       0.0001
     44  N        130.4860  215.3180  247.8190 N.am   30  GLY30      -0.1957
     45  CA       129.2910  214.6830  248.3310 C.3    30  GLY30       0.1869
     46  C        129.3050  213.1950  248.0710 C.2    30  GLY30       0.2309
     47  O        128.3190  212.4970  248.3210 O.2    30  GLY30      -0.2863
     48  N        127.5110  222.8680  261.9920 N.3    46  ASN46      -0.1240
     49  CA       127.7810  224.1910  261.4490 C.3    46  ASN46       0.1653
     50  C        126.4840  224.9650  261.3250 C.2    46  ASN46       0.2266
     51  O        126.3260  226.0250  261.9320 O.2    46  ASN46      -0.2867
     52  CB       128.4910  224.1030  260.0960 C.3    46  ASN46       0.1155
     53  CG       129.9660  223.7680  260.2200 C.2    46  ASN46       0.2627
     54  OD1      130.5930  224.0370  261.2430 O.2    46  ASN46      -0.2716
     55  ND2      130.5280  223.1860  259.1700 N.am   46  ASN46      -0.0877
     56  N        124.6910  225.5910  264.9060 N.3    49  TYR49      -0.1227
     57  CA       125.4720  226.5890  265.6130 C.3    49  TYR49       0.1736
     58  C        125.6040  227.8800  264.8170 C.2    49  TYR49       0.2595
     59  O        125.8540  228.9350  265.4090 O.2    49  TYR49      -0.2718
     60  CB       126.8380  226.0040  265.9520 C.3    49  TYR49       0.0548
     61  CG       127.7430  226.9270  266.7150 C.ar   49  TYR49      -0.0200
     62  CD1      127.5400  227.1640  268.0660 C.ar   49  TYR49      -0.0009
     63  CD2      128.8200  227.5380  266.0950 C.ar   49  TYR49      -0.0009
     64  CE1      128.3740  228.0040  268.7770 C.ar   49  TYR49       0.0417
     65  CE2      129.6630  228.3780  266.7960 C.ar   49  TYR49       0.0417
     66  CZ       129.4360  228.6080  268.1380 C.ar   49  TYR49       0.1957
     67  OH       130.2730  229.4460  268.8420 O.3    49  TYR49      -0.2866
     68  N        125.4340  227.8320  263.4920 N.am   50  ALA50      -0.1980
     69  CA       125.4830  229.0610  262.7050 C.3    50  ALA50       0.1597
     70  C        124.1980  229.8630  262.8270 C.2    50  ALA50       0.2287
     71  O        124.2360  231.0650  263.1140 O.2    50  ALA50      -0.2864
     72  CB       125.7460  228.7550  261.2360 C.3    50  ALA50       0.0319
     73  N        121.9460  230.0560  265.0050 N.3    52  LEU52      -0.1231
     74  CA       121.8990  230.7500  266.2770 C.3    52  LEU52       0.1693
     75  C        122.9880  231.8020  266.3950 C.2    52  LEU52       0.2593
     76  O        122.9490  232.6050  267.3310 O.2    52  LEU52      -0.2718
     77  CB       121.9900  229.7360  267.4190 C.3    52  LEU52       0.0284
     78  CG       123.2110  228.8220  267.5600 C.3    52  LEU52       0.0019
     79  CD1      124.3540  229.5250  268.2620 C.3    52  LEU52       0.0001
     80  CD2      122.8470  227.5590  268.3140 C.3    52  LEU52       0.0001
     81  N        123.9500  231.8220  265.4720 N.am   53  GLY53      -0.1942
     82  CA       125.0290  232.7880  265.5770 C.3    53  GLY53       0.2014
     83  C        124.5550  234.2120  265.3700 C.2    53  GLY53       0.2638
     84  O        124.8400  235.0960  266.1810 O.2    53  GLY53      -0.2714
     85  N        123.8090  234.4470  264.2870 N.am   54  VAL54      -0.1977
     86  CA       123.3650  235.7960  263.9370 C.3    54  VAL54       0.1596
     87  C        122.7190  236.4810  265.1320 C.2    54  VAL54       0.2287
     88  O        122.9560  237.6660  265.3940 O.2    54  VAL54      -0.2864
     89  CB       122.3980  235.7400  262.7400 C.3    54  VAL54       0.0276
     90  CG1      121.8360  237.1110  262.4530 C.3    54  VAL54       0.0022
     91  CG2      123.0980  235.1840  261.5190 C.3    54  VAL54       0.0022
     92  N        123.1450  236.7130  268.2020 N.3    56  GLY56      -0.1210
     93  CA       124.0200  237.4740  269.0670 C.3    56  GLY56       0.1956
     94  C        124.4070  238.7990  268.4520 C.2    56  GLY56       0.2612
     95  O        124.1960  239.8570  269.0510 O.2    56  GLY56      -0.2717
     96  N        124.9590  238.7570  267.2410 N.am   57  GLY57      -0.1956
     97  CA       125.3650  239.9860  266.5870 C.3    57  GLY57       0.1869
     98  C        124.2060  240.7770  266.0200 C.2    57  GLY57       0.2309
     99  O        124.2990  241.9990  265.8790 O.2    57  GLY57      -0.2863
    100  N        128.7090  242.9310  267.4440 N.3    68  TRP68      -0.1241
    101  CA       129.4210  241.6740  267.6520 C.3    68  TRP68       0.1605
    102  C        130.9280  241.8180  267.4930 C.2    68  TRP68       0.2264
    103  O        131.6960  241.2660  268.2870 O.2    68  TRP68      -0.2867
    104  CB       128.8970  240.6010  266.6980 C.3    68  TRP68       0.0550
    105  CG       129.0510  240.9320  265.2530 C.ar   68  TRP68       0.0003
    106  CD1      128.1600  241.5890  264.4690 C.ar   68  TRP68       0.0946
    107  CD2      130.1700  240.6240  264.4190 C.ar   68  TRP68       0.0152
    108  NE1      128.6490  241.7090  263.1940 N.ar   68  TRP68      -0.2442
    109  CE2      129.8850  241.1240  263.1390 C.ar   68  TRP68       0.0810
    110  CE3      131.3850  239.9710  264.6310 C.ar   68  TRP68       0.0012
    111  CZ2      130.7680  240.9990  262.0770 C.ar   68  TRP68       0.0191
    112  CZ3      132.2610  239.8500  263.5780 C.ar   68  TRP68       0.0001
    113  CH2      131.9490  240.3590  262.3150 C.ar   68  TRP68       0.0015
    114  N        131.8630  243.6210  270.3300 N.3    71  ALA71      -0.1231
    115  CA       131.2080  243.1380  271.5390 C.3    71  ALA71       0.1694
    116  C        132.2050  242.4610  272.4640 C.2    71  ALA71       0.2592
    117  O        132.4660  242.9560  273.5650 O.2    71  ALA71      -0.2718
    118  CB       130.0860  242.1600  271.1950 C.3    71  ALA71       0.0304
    119  N        132.7910  241.3480  272.0200 N.am   72  GLY72      -0.1957
    120  CA       133.7140  240.6010  272.8580 C.3    72  GLY72       0.1869
    121  C        134.9120  241.4010  273.3180 C.2    72  GLY72       0.2309
    122  O        135.6710  240.9220  274.1690 O.2    72  GLY72      -0.2863
    123  N        123.1140  230.6880  257.4820 N.3   139  MET139     -0.1230
    124  CA       124.5360  230.5000  257.2300 C.3   139  MET139      0.1702
    125  C        125.0530  231.5290  256.2380 C.2   139  MET139      0.2592
    126  O        126.1290  232.1040  256.4280 O.2   139  MET139     -0.2718
    127  CB       124.7930  229.1010  256.6850 C.3   139  MET139      0.0401
    128  CG       126.2490  228.8020  256.5170 C.3   139  MET139      0.0596
    129  SD       126.9970  228.4110  258.0810 S.3   139  MET139     -0.1393
    130  CE       126.3940  226.7370  258.2400 C.3   139  MET139      0.0692
    131  N        124.2920  231.7760  255.1730 N.am  140  VAL140     -0.1980
    132  CA       124.7720  232.6270  254.0930 C.3   140  VAL140      0.1595
    133  C        124.8040  234.0860  254.5290 C.2   140  VAL140      0.2287
    134  O        125.7300  234.8310  254.1870 O.2   140  VAL140     -0.2864
    135  CB       123.9010  232.4170  252.8450 C.3   140  VAL140      0.0276
    136  CG1      124.3430  233.3280  251.7210 C.3   140  VAL140      0.0022
    137  CG2      123.9690  230.9730  252.4140 C.3   140  VAL140      0.0022
    138  N        125.3130  235.0550  257.5420 N.3   142  SER142     -0.1202
    139  CA       126.4250  235.1510  258.4790 C.3   142  SER142      0.2020
    140  C        127.6970  235.6100  257.7840 C.2   142  SER142      0.2618
    141  O        128.4600  236.4140  258.3300 O.2   142  SER142     -0.2717
    142  CB       126.6430  233.8030  259.1580 C.3   142  SER142      0.2103
    143  OG       127.0370  232.8280  258.2120 O.3   142  SER142     -0.2182
    144  N        127.9440  235.1080  256.5750 N.am  143  VAL143     -0.1979
    145  CA       129.0490  235.6210  255.7760 C.3   143  VAL143      0.1595
    146  C        128.8870  237.1150  255.5600 C.2   143  VAL143      0.2287
    147  O        129.8470  237.8830  255.6760 O.2   143  VAL143     -0.2864
    148  CB       129.1360  234.8660  254.4370 C.3   143  VAL143      0.0276
    149  CG1      130.2160  235.4630  253.5670 C.3   143  VAL143      0.0022
    150  CG2      129.3980  233.3920  254.6770 C.3   143  VAL143      0.0022
    151  N        130.0310  239.5620  258.2000 N.3   146  ILE146     -0.1245
    152  CA       131.4610  239.8030  258.0820 C.3   146  ILE146      0.1561
    153  C        131.6730  240.9860  257.1490 C.2   146  ILE146      0.2260
    154  O        132.1280  242.0530  257.5740 O.2   146  ILE146     -0.2867
    155  CB       132.2040  238.5530  257.5830 C.3   146  ILE146      0.0252
    156  CG1      132.1260  237.4440  258.6320 C.3   146  ILE146      0.0019
    157  CG2      133.6410  238.8850  257.2630 C.3   146  ILE146      0.0019
    158  CD1      132.6370  236.1030  258.1580 C.3   146  ILE146      0.0001
@<TRIPOS>BOND
     1    24    23    2
     2    22    23    1
     3    22    25    1
     4    22    21    1
     5    23    28   am
     6    16    15    2
     7     9     7   ar
     8     9    11   ar
     9    25    26    1
    10     7     6   ar
    11    12    11    1
    12    35    33    1
    13    15    21   am
    14    15    14    1
    15    21    27    1
    16    28    29    1
    17    11    10   ar
    18    29    30    1
    19    29    32    1
    20    30    31    2
    21    13    14    1
    22    13     3   am
    23    26    27    1
    24     2     5    1
    25     2     1    1
    26     2     3    1
    27     6     5    1
    28     6     8   ar
    29    14    17    1
    30    33    32    1
    31    33    34    1
    32    17    18    1
    33    10     8   ar
    34     3     4    2
    35    18    20   ar
    36    18    19   ar
    37    36    37    1
    38    37    38    1
    39    37    40    1
    40    44    45    1
    41    44    38   am
    42    46    47    2
    43    46    45    1
    44    41    40    1
    45    41    43    1
    46    41    42    1
    47    38    39    2
    48   136   135    1
    49   137   135    1
    50   135   132    1
    51   149   148    1
    52   132   133    1
    53   132   131    1
    54   134   133    2
    55   148   150    1
    56   148   145    1
    57   131   125   am
    58   146   147    2
    59   146   145    1
    60   145   144    1
    61   125   126    2
    62   125   124    1
    63   128   127    1
    64   128   129    1
    65   144   140   am
    66   127   124    1
    67   153   154    2
    68   153   152    1
    69   124   123    1
    70   157   155    1
    71   138   139    1
    72   155   152    1
    73   155   156    1
    74   140   141    2
    75   140   139    1
    76   129   130    1
    77   152   151    1
    78   158   156    1
    79   143   142    1
    80   139   142    1
    81    55    53   am
    82    52    53    1
    83    52    49    1
    84    53    54    2
    85    72    69    1
    86    50    49    1
    87    50    51    2
    88    49    48    1
    89    91    89    1
    90   111   113   ar
    91   111   109   ar
    92   113   112   ar
    93    90    89    1
    94    69    70    1
    95    69    68    1
    96    89    86    1
    97    70    71    2
    98   109   108   ar
    99   109   107   ar
   100   108   106   ar
   101    68    58   am
   102   112   110   ar
   103    86    85    1
   104    86    87    1
   105    85    83   am
   106   107   110   ar
   107   107   105   ar
   108   106   105   ar
   109    58    59    2
   110    58    57    1
   111    56    57    1
   112    73    74    1
   113    87    88    2
   114   105   104    1
   115    83    82    1
   116    83    84    2
   117    81    82    1
   118    81    75   am
   119    57    60    1
   120    99    98    2
   121    60    61    1
   122    98    97    1
   123    63    61   ar
   124    63    65   ar
   125    74    75    1
   126    74    77    1
   127    75    76    2
   128    97    96    1
   129   104   101    1
   130    61    62   ar
   131    65    66   ar
   132    96    94   am
   133    77    78    1
   134   100   101    1
   135   102   101    1
   136   102   103    2
   137    78    79    1
   138    78    80    1
   139    62    64   ar
   140    66    64   ar
   141    66    67    1
   142    92    93    1
   143    94    95    2
   144    94    93    1
   145   114   115    1
   146   118   115    1
   147   115   116    1
   148   119   116   am
   149   119   120    1
   150   116   117    2
   151   120   121    1
   152   121   122    2
