@<TRIPOS>MOLECULE
tmp/6igzT05.pdb
 90 89 0 0 0
SMALL
GASTEIGER

@<TRIPOS>ATOM
      1  N        216.5720  226.0950  134.1610 N.3   102  TRP102     -0.1241
      2  CA       216.1730  225.2880  133.0160 C.3   102  TRP102      0.1605
      3  C        217.0840  224.0790  132.8710 C.2   102  TRP102      0.2264
      4  O        216.6300  222.9340  132.8800 O.2   102  TRP102     -0.2867
      5  CB       216.2160  226.1370  131.7510 C.3   102  TRP102      0.0550
      6  CG       215.8280  225.3920  130.5410 C.ar  102  TRP102      0.0003
      7  CD1      216.6600  224.8040  129.6450 C.ar  102  TRP102      0.0946
      8  CD2      214.5050  225.1860  130.0580 C.ar  102  TRP102      0.0152
      9  NE1      215.9360  224.2180  128.6400 N.ar  102  TRP102     -0.2442
     10  CE2      214.6070  224.4410  128.8720 C.ar  102  TRP102      0.0810
     11  CE3      213.2400  225.5480  130.5200 C.ar  102  TRP102      0.0012
     12  CZ2      213.4980  224.0570  128.1420 C.ar  102  TRP102      0.0191
     13  CZ3      212.1470  225.1680  129.8000 C.ar  102  TRP102      0.0001
     14  CH2      212.2780  224.4300  128.6210 C.ar  102  TRP102      0.0015
     15  N        216.2410  220.1080  133.7800 N.3   106  ARG106     -0.1245
     16  CA       216.4770  219.1270  132.7290 C.3   106  ARG106      0.1563
     17  C        217.3710  218.0080  133.2370 C.2   106  ARG106      0.2260
     18  O        216.9980  216.8320  133.1980 O.2   106  ARG106     -0.2867
     19  CB       217.1090  219.7920  131.5060 C.3   106  ARG106      0.0307
     20  CG       216.2830  220.8730  130.8450 C.3   106  ARG106      0.0489
     21  CD       215.0670  220.3510  130.1150 C.3   106  ARG106      0.2205
     22  NE       215.3960  219.5200  128.9650 N.pl3 106  ARG106     -0.0865
     23  CZ       214.4900  218.8960  128.2260 C.cat 106  ARG106      0.5346
     24  NH1      213.2050  219.0200  128.5070 N.pl3 106  ARG106      0.1354
     25  NH2      214.8660  218.1520  127.2030 N.pl3 106  ARG106      0.1354
     26  N        216.0140  214.6570  126.2870 N.3   119  VAL119     -0.1245
     27  CA       216.2810  214.3720  124.8820 C.3   119  VAL119      0.1561
     28  C        215.6080  215.4510  124.0310 C.2   119  VAL119      0.2260
     29  O        216.0400  216.6070  124.0480 O.2   119  VAL119     -0.2867
     30  CB       215.8370  212.9380  124.5360 C.3   119  VAL119      0.0252
     31  CG1      216.1750  212.5890  123.1330 C.3   119  VAL119      0.0019
     32  CG2      216.5280  211.9550  125.4490 C.3   119  VAL119      0.0019
     33  N        214.0330  218.4050  122.3100 N.3   121  PRO121     -0.2102
     34  CA       213.5720  219.7460  122.6810 C.3   121  PRO121      0.1504
     35  C        212.3690  220.2150  121.8920 C.2   121  PRO121      0.2576
     36  O        211.6820  219.4310  121.2350 O.2   121  PRO121     -0.2718
     37  CB       214.7770  220.6210  122.3590 C.3   121  PRO121      0.0282
     38  CG       215.4400  219.9220  121.2400 C.3   121  PRO121      0.0208
     39  CD       215.2380  218.4510  121.4690 C.3   121  PRO121      0.0893
     40  N        212.0950  221.5130  121.9860 N.am  122  ILE122     -0.1966
     41  CA       211.3720  222.2150  120.9350 C.3   122  ILE122      0.1727
     42  C        212.3560  222.4450  119.7960 C.2   122  ILE122      0.2616
     43  O        213.4670  221.9040  119.8170 O.2   122  ILE122     -0.2715
     44  CB       210.7720  223.5280  121.4500 C.3   122  ILE122      0.0290
     45  CG1      211.8790  224.4770  121.9010 C.3   122  ILE122      0.0022
     46  CG2      209.8230  223.2430  122.5930 C.3   122  ILE122      0.0023
     47  CD1      212.1600  225.5880  120.9280 C.3   122  ILE122      0.0001
     48  N        211.9690  223.2360  118.7930 N.am  123  PHE123     -0.1974
     49  CA       212.7560  223.3500  117.5640 C.3   123  PHE123      0.1639
     50  C        212.9990  221.9740  116.9570 C.2   123  PHE123      0.2290
     51  O        214.1310  221.5780  116.6820 O.2   123  PHE123     -0.2864
     52  CB       214.0850  224.0700  117.7990 C.3   123  PHE123      0.0560
     53  CG       213.9640  225.5490  117.9620 C.ar  123  PHE123     -0.0200
     54  CD1      212.8370  226.2200  117.5360 C.ar  123  PHE123     -0.0042
     55  CD2      215.0030  226.2790  118.5010 C.ar  123  PHE123     -0.0042
     56  CE1      212.7410  227.5950  117.6690 C.ar  123  PHE123     -0.0003
     57  CE2      214.9100  227.6510  118.6380 C.ar  123  PHE123     -0.0003
     58  CZ       213.7780  228.3090  118.2210 C.ar  123  PHE123     -0.0000
     59  N        213.6150  218.2300  117.1950 N.3   125  GLY125     -0.1210
     60  CA       214.1330  217.3440  118.2180 C.3   125  GLY125      0.1956
     61  C        215.5770  216.9940  117.9620 C.2   125  GLY125      0.2611
     62  O        216.0740  217.0930  116.8370 O.2   125  GLY125     -0.2717
     63  N        216.2470  216.5690  119.0280 N.am  126  LYS126     -0.1979
     64  CA       217.6400  216.1590  118.9510 C.3   126  LYS126      0.1596
     65  C        217.7760  214.6490  118.8540 C.2   126  LYS126      0.2287
     66  O        218.1720  214.1180  117.8130 O.2   126  LYS126     -0.2864
     67  CB       218.4020  216.6360  120.1740 C.3   126  LYS126      0.0298
     68  CG       219.8300  216.2100  120.1660 C.3   126  LYS126      0.0038
     69  CD       220.4790  216.6550  121.4320 C.3   126  LYS126      0.0206
     70  CE       221.8870  216.1720  121.5230 C.3   126  LYS126      0.1093
     71  NZ       222.5100  216.5410  122.8140 N.3   126  LYS126     -0.1314
     72  N        224.6410  216.5400  121.4120 N.3   139  ILE139     -0.1231
     73  CA       225.0940  217.9580  121.2660 C.3   139  ILE139      0.1692
     74  C        226.1390  218.2820  122.3430 C.2   139  ILE139      0.2592
     75  O        227.1060  218.9970  122.0230 O.2   139  ILE139     -0.2718
     76  CB       223.8930  218.9230  121.3200 C.3   139  ILE139      0.0266
     77  CG1      222.8920  218.6420  120.1960 C.3   139  ILE139      0.0019
     78  CG2      224.3650  220.3690  121.3060 C.3   139  ILE139      0.0020
     79  CD1      221.7060  219.5790  120.1780 C.3   139  ILE139      0.0001
     80  N        225.9690  217.7400  123.5560 N.am  140  PHE140     -0.1976
     81  CA       226.8930  217.9690  124.7010 C.3   140  PHE140      0.1639
     82  C        228.3100  217.4770  124.3740 C.2   140  PHE140      0.2290
     83  O        229.2730  218.0930  124.8660 O.2   140  PHE140     -0.2864
     84  CB       226.3270  217.3700  125.9910 C.3   140  PHE140      0.0560
     85  CG       224.9880  217.9330  126.3940 C.ar  140  PHE140     -0.0200
     86  CD1      224.8600  219.2640  126.7560 C.ar  140  PHE140     -0.0042
     87  CD2      223.8560  217.1360  126.4070 C.ar  140  PHE140     -0.0042
     88  CE1      223.6300  219.7840  127.1230 C.ar  140  PHE140     -0.0003
     89  CE2      222.6260  217.6570  126.7740 C.ar  140  PHE140     -0.0003
     90  CZ       222.5150  218.9800  127.1320 C.ar  140  PHE140     -0.0000
@<TRIPOS>BOND
     1    51    50    2
     2    62    61    2
     3    50    49    1
     4    59    60    1
     5    54    56   ar
     6    54    53   ar
     7    49    52    1
     8    49    48    1
     9    56    58   ar
    10    52    53    1
    11    66    65    2
    12    61    60    1
    13    61    63   am
    14    53    55   ar
    15    58    57   ar
    16    55    57   ar
    17    48    42   am
    18    65    64    1
    19    64    63    1
    20    64    67    1
    21    42    43    2
    22    42    41    1
    23    68    67    1
    24    68    69    1
    25    79    77    1
    26    77    76    1
    27    47    45    1
    28    41    44    1
    29    41    40    1
    30    36    35    2
    31    38    39    1
    32    38    37    1
    33    73    76    1
    34    73    72    1
    35    73    74    1
    36    78    76    1
    37    69    70    1
    38    44    45    1
    39    44    46    1
    40    39    33    1
    41    70    71    1
    42    35    40   am
    43    35    34    1
    44    75    74    2
    45    33    34    1
    46    74    80   am
    47    37    34    1
    48    31    30    1
    49    80    81    1
    50    28    29    2
    51    28    27    1
    52    82    81    1
    53    82    83    2
    54    30    27    1
    55    30    32    1
    56    81    84    1
    57    27    26    1
    58    84    85    1
    59    85    87   ar
    60    85    86   ar
    61    87    89   ar
    62    86    88   ar
    63    89    90   ar
    64    88    90   ar
    65    25    23    1
    66    12    14   ar
    67    12    10   ar
    68    23    24    1
    69    23    22    2
    70    14    13   ar
    71     9    10   ar
    72     9     7   ar
    73    10     8   ar
    74    22    21    1
    75     7     6   ar
    76    13    11   ar
    77     8    11   ar
    78     8     6   ar
    79    21    20    1
    80     6     5    1
    81    20    19    1
    82    19    16    1
    83     5     2    1
    84    16    17    1
    85    16    15    1
    86     3     4    2
    87     3     2    1
    88     2     1    1
    89    18    17    2
