@<TRIPOS>MOLECULE
tmp/6igzU16.pdb
 158 156 0 0 0
SMALL
GASTEIGER

@<TRIPOS>ATOM
      1  N        119.7120  223.4920  214.8820 N.3    37  TRP37      -0.1241
      2  CA       120.2090  224.5850  215.7090 C.3    37  TRP37       0.1605
      3  C        120.3870  225.8620  214.8970 C.2    37  TRP37       0.2264
      4  O        120.0310  226.9510  215.3580 O.2    37  TRP37      -0.2867
      5  CB       121.5270  224.1850  216.3660 C.3    37  TRP37       0.0550
      6  CG       122.0570  225.2570  217.2300 C.ar   37  TRP37       0.0003
      7  CD1      123.0330  226.1480  216.9190 C.ar   37  TRP37       0.0946
      8  CD2      121.6360  225.5680  218.5590 C.ar   37  TRP37       0.0152
      9  NE1      123.2440  227.0030  217.9690 N.ar   37  TRP37      -0.2442
     10  CE2      122.3970  226.6650  218.9890 C.ar   37  TRP37       0.0810
     11  CE3      120.6850  225.0270  219.4250 C.ar   37  TRP37       0.0012
     12  CZ2      122.2420  227.2260  220.2420 C.ar   37  TRP37       0.0191
     13  CZ3      120.5350  225.5860  220.6690 C.ar   37  TRP37       0.0001
     14  CH2      121.3060  226.6740  221.0670 C.ar   37  TRP37       0.0015
     15  N        116.7970  227.9180  214.3100 N.3    40  GLU40      -0.1231
     16  CA       116.1400  228.7490  215.3030 C.3    40  GLU40       0.1699
     17  C        117.0820  229.7190  215.9970 C.2    40  GLU40       0.2592
     18  O        116.6550  230.4260  216.9110 O.2    40  GLU40      -0.2718
     19  CB       115.4260  227.8520  216.3080 C.3    40  GLU40       0.0402
     20  CG       114.2510  227.1550  215.6460 C.3    40  GLU40       0.1161
     21  CD       113.6510  226.0700  216.4890 C.2    40  GLU40       0.3649
     22  OE1      114.2990  225.6770  217.4730 O.co2  40  GLU40      -0.2457
     23  OE2      112.5350  225.6120  216.1690 O.co2  40  GLU40      -0.2457
     24  N        118.3460  229.7710  215.5920 N.am   41  ALA41      -0.1980
     25  CA       119.1390  230.9540  215.8890 C.3    41  ALA41       0.1597
     26  C        118.7980  232.0740  214.9250 C.2    41  ALA41       0.2287
     27  O        118.7420  233.2420  215.3200 O.2    41  ALA41      -0.2864
     28  CB       120.6260  230.6300  215.8220 C.3    41  ALA41       0.0319
     29  N        115.6850  233.5030  216.3000 N.3    44  VAL44      -0.1231
     30  CA       115.9260  234.3820  217.4420 C.3    44  VAL44       0.1692
     31  C        116.5340  235.6960  216.9850 C.2    44  VAL44       0.2592
     32  O        115.9780  236.7690  217.2320 O.2    44  VAL44      -0.2718
     33  CB       116.8150  233.6920  218.4870 C.3    44  VAL44       0.0266
     34  CG1      117.2170  234.6880  219.5410 C.3    44  VAL44       0.0020
     35  CG2      116.0610  232.5620  219.1230 C.3    44  VAL44       0.0020
     36  N        117.6760  235.6310  216.2970 N.am   45  ASN45      -0.1974
     37  CA       118.3120  236.8560  215.8260 C.3    45  ASN45       0.1688
     38  C        117.3390  237.7150  215.0320 C.2    45  ASN45       0.2292
     39  O        117.3500  238.9450  215.1430 O.2    45  ASN45      -0.2864
     40  CB       119.5520  236.5280  214.9960 C.3    45  ASN45       0.1181
     41  CG       120.7210  236.0950  215.8450 C.2    45  ASN45       0.2629
     42  OD1      120.7880  236.4110  217.0260 O.2    45  ASN45      -0.2716
     43  ND2      121.6610  235.3860  215.2440 N.am   45  ASN45      -0.0877
     44  N        114.6840  238.6970  217.6120 N.3    48  TRP48      -0.1241
     45  CA       115.2960  239.5710  218.6030 C.3    48  TRP48       0.1605
     46  C        115.5940  240.9600  218.0530 C.2    48  TRP48       0.2264
     47  O        115.0430  241.9530  218.5340 O.2    48  TRP48      -0.2867
     48  CB       116.5980  238.9530  219.1150 C.3    48  TRP48       0.0550
     49  CG       117.2130  239.7390  220.1730 C.ar   48  TRP48       0.0003
     50  CD1      118.1110  240.7360  220.0210 C.ar   48  TRP48       0.0946
     51  CD2      117.0430  239.5570  221.5750 C.ar   48  TRP48       0.0152
     52  NE1      118.4810  241.2280  221.2420 N.ar   48  TRP48      -0.2442
     53  CE2      117.8420  240.5110  222.2150 C.ar   48  TRP48       0.0810
     54  CE3      116.2810  238.6870  222.3520 C.ar   48  TRP48       0.0012
     55  CZ2      117.8940  240.6290  223.5910 C.ar   48  TRP48       0.0191
     56  CZ3      116.3430  238.7990  223.7160 C.ar   48  TRP48       0.0001
     57  CH2      117.1450  239.7600  224.3250 C.ar   48  TRP48       0.0015
     58  N        120.8660  242.8400  234.7030 N.3    90  GLU90      -0.1231
     59  CA       120.4560  242.4510  233.3630 C.3    90  GLU90       0.1699
     60  C        120.5500  240.9450  233.1810 C.2    90  GLU90       0.2592
     61  O        119.5750  240.2880  232.8060 O.2    90  GLU90      -0.2718
     62  CB       121.3180  243.1760  232.3350 C.3    90  GLU90       0.0402
     63  CG       120.9000  242.9450  230.9130 C.3    90  GLU90       0.1161
     64  CD       121.7650  243.7080  229.9500 C.2    90  GLU90       0.3649
     65  OE1      122.7400  244.3290  230.4110 O.co2  90  GLU90      -0.2457
     66  OE2      121.4670  243.7010  228.7410 O.co2  90  GLU90      -0.2457
     67  N        121.7140  240.3750  233.4850 N.am   91  ALA91      -0.1980
     68  CA       122.0060  239.0100  233.0680 C.3    91  ALA91       0.1597
     69  C        121.2430  237.9850  233.8960 C.2    91  ALA91       0.2287
     70  O        120.9050  236.9070  233.4020 O.2    91  ALA91      -0.2864
     71  CB       123.5090  238.7530  233.1510 C.3    91  ALA91       0.0319
     72  N        117.5910  237.7940  232.7360 N.3    94  MET94      -0.1230
     73  CA       117.7320  237.1400  231.4400 C.3    94  MET94       0.1702
     74  C        118.1020  235.6800  231.6370 C.2    94  MET94       0.2592
     75  O        117.6160  234.7970  230.9250 O.2    94  MET94      -0.2718
     76  CB       118.7860  237.8410  230.5840 C.3    94  MET94       0.0401
     77  CG       118.4250  239.2250  230.0850 C.3    94  MET94       0.0596
     78  SD       117.0760  239.2470  228.8960 S.3    94  MET94      -0.1393
     79  CE       115.7240  239.8430  229.9090 C.3    94  MET94       0.0692
     80  N        118.9520  235.4130  232.6220 N.am   95  GLY95      -0.1957
     81  CA       119.4290  234.0750  232.8910 C.3    95  GLY95       0.1869
     82  C        118.3220  233.0830  233.1650 C.2    95  GLY95       0.2309
     83  O        118.4150  231.9210  232.7650 O.2    95  GLY95      -0.2863
     84  N        116.4310  232.6830  229.5620 N.3    98  GLU98      -0.1231
     85  CA       117.2930  232.1530  228.5130 C.3    98  GLU98       0.1699
     86  C        117.6270  230.6890  228.7590 C.2    98  GLU98       0.2592
     87  O        117.6470  229.8800  227.8260 O.2    98  GLU98      -0.2718
     88  CB       118.5580  232.9940  228.4070 C.3    98  GLU98       0.0402
     89  CG       118.3080  234.4120  227.9300 C.3    98  GLU98       0.1161
     90  CD       117.6800  234.4680  226.5580 C.2    98  GLU98       0.3649
     91  OE1      118.0560  233.6540  225.6890 O.co2  98  GLU98      -0.2457
     92  OE2      116.8120  235.3350  226.3440 O.co2  98  GLU98      -0.2457
     93  N        117.8800  230.3210  230.0130 N.am   99  VAL99      -0.1980
     94  CA       118.0430  228.9050  230.3270 C.3    99  VAL99       0.1595
     95  C        116.7210  228.1820  230.1420 C.2    99  VAL99       0.2287
     96  O        116.6630  227.0810  229.5860 O.2    99  VAL99      -0.2864
     97  CB       118.5910  228.7220  231.7530 C.3    99  VAL99       0.0276
     98  CG1      118.6640  227.2500  232.1030 C.3    99  VAL99       0.0022
     99  CG2      119.9600  229.3340  231.8660 C.3    99  VAL99       0.0022
    100  N        113.9230  228.9840  228.3250 N.3   101  ARG101     -0.1231
    101  CA       113.5080  228.8420  226.9340 C.3   101  ARG101      0.1694
    102  C        114.3910  227.8460  226.2000 C.2   101  ARG101      0.2592
    103  O        113.9730  227.2530  225.2010 O.2   101  ARG101     -0.2718
    104  CB       113.5380  230.1860  226.2140 C.3   101  ARG101      0.0321
    105  CG       114.9100  230.7920  226.1090 C.3   101  ARG101      0.0489
    106  CD       114.8840  232.0120  225.2320 C.3   101  ARG101      0.2205
    107  NE       114.5880  231.6240  223.8620 N.pl3 101  ARG101     -0.0865
    108  CZ       115.5100  231.2410  222.9890 C.cat 101  ARG101      0.5346
    109  NH1      116.7860  231.2130  223.3410 N.pl3 101  ARG101      0.1354
    110  NH2      115.1570  230.8950  221.7620 N.pl3 101  ARG101      0.1354
    111  N        115.6250  227.6630  226.6690 N.am  102  TYR102     -0.1976
    112  CA       116.4630  226.6110  226.1100 C.3   102  TYR102      0.1639
    113  C        115.9910  225.2390  226.5550 C.2   102  TYR102      0.2290
    114  O        115.8130  224.3380  225.7300 O.2   102  TYR102     -0.2864
    115  CB       117.9130  226.8070  226.5250 C.3   102  TYR102      0.0560
    116  CG       118.7930  225.6570  226.1050 C.ar  102  TYR102     -0.0198
    117  CD1      119.2740  225.5660  224.8140 C.ar  102  TYR102     -0.0009
    118  CD2      119.1200  224.6510  226.9950 C.ar  102  TYR102     -0.0009
    119  CE1      120.0700  224.5180  224.4270 C.ar  102  TYR102      0.0417
    120  CE2      119.9110  223.6000  226.6160 C.ar  102  TYR102      0.0417
    121  CZ       120.3840  223.5380  225.3330 C.ar  102  TYR102      0.1957
    122  OH       121.1790  222.4860  224.9570 O.3   102  TYR102     -0.2866
    123  N        113.3260  224.4840  224.6660 N.3   105  TRP105     -0.1241
    124  CA       113.7450  224.1600  223.3090 C.3   105  TRP105      0.1605
    125  C        114.3440  222.7660  223.2490 C.2   105  TRP105      0.2264
    126  O        113.9850  221.9620  222.3830 O.2   105  TRP105     -0.2867
    127  CB       114.7610  225.1810  222.8150 C.3   105  TRP105      0.0550
    128  CG       115.2300  224.9210  221.4360 C.ar  105  TRP105      0.0003
    129  CD1      114.7030  225.4230  220.2960 C.ar  105  TRP105      0.0946
    130  CD2      116.3140  224.0780  221.0410 C.ar  105  TRP105      0.0152
    131  NE1      115.3960  224.9600  219.2070 N.ar  105  TRP105     -0.2442
    132  CE2      116.3920  224.1300  219.6410 C.ar  105  TRP105      0.0810
    133  CE3      117.2310  223.2910  221.7370 C.ar  105  TRP105      0.0012
    134  CZ2      117.3490  223.4280  218.9240 C.ar  105  TRP105      0.0191
    135  CZ3      118.1780  222.5930  221.0240 C.ar  105  TRP105      0.0001
    136  CH2      118.2310  222.6650  219.6330 C.ar  105  TRP105      0.0015
    137  N        119.4540  245.9790  210.5100 N.3   144  TRP144     -0.1241
    138  CA       120.2770  246.4180  211.6310 C.3   144  TRP144      0.1605
    139  C        121.6420  246.8990  211.1660 C.2   144  TRP144      0.2264
    140  O        122.0820  247.9950  211.5310 O.2   144  TRP144     -0.2867
    141  CB       120.4350  245.2880  212.6400 C.3   144  TRP144      0.0550
    142  CG       121.4510  245.5980  213.6660 C.ar  144  TRP144      0.0003
    143  CD1      122.6940  245.0590  213.7720 C.ar  144  TRP144      0.0946
    144  CD2      121.3360  246.5550  214.7150 C.ar  144  TRP144      0.0152
    145  NE1      123.3560  245.6060  214.8390 N.ar  144  TRP144     -0.2442
    146  CE2      122.5420  246.5310  215.4350 C.ar  144  TRP144      0.0810
    147  CE3      120.3250  247.4250  215.1240 C.ar  144  TRP144      0.0012
    148  CZ2      122.7660  247.3440  216.5400 C.ar  144  TRP144      0.0191
    149  CZ3      120.5480  248.2270  216.2180 C.ar  144  TRP144      0.0001
    150  CH2      121.7580  248.1840  216.9150 C.ar  144  TRP144      0.0015
    151  N        124.5910  250.3990  211.8860 N.3   148  ILE148     -0.1245
    152  CA       126.0110  250.4500  212.2080 C.3   148  ILE148      0.1561
    153  C        126.7270  251.3860  211.2450 C.2   148  ILE148      0.2260
    154  O        127.3570  252.3690  211.6510 O.2   148  ILE148     -0.2867
    155  CB       126.6180  249.0380  212.1710 C.3   148  ILE148      0.0252
    156  CG1      125.8090  248.0860  213.0480 C.3   148  ILE148      0.0019
    157  CG2      128.0540  249.0740  212.6370 C.3   148  ILE148      0.0019
    158  CD1      125.7430  248.4980  214.4810 C.3   148  ILE148      0.0001
@<TRIPOS>BOND
     1   137   138    1
     2   139   140    2
     3   139   138    1
     4   153   154    2
     5   153   152    1
     6   138   141    1
     7   151   152    1
     8   155   152    1
     9   155   157    1
    10   155   156    1
    11   141   142    1
    12   156   158    1
    13   142   143   ar
    14   142   144   ar
    15   143   145   ar
    16    15    16    1
    17   144   147   ar
    18   144   146   ar
    19   145   146   ar
    20     1     2    1
    21     3     4    2
    22     3     2    1
    23    26    27    2
    24    26    25    1
    25    40    37    1
    26    40    41    1
    27    38    39    2
    28    38    37    1
    29   147   149   ar
    30    43    41   am
    31    16    17    1
    32    16    19    1
    33   146   148   ar
    34    24    25    1
    35    24    17   am
    36    20    19    1
    37    20    21    1
    38     2     5    1
    39    28    25    1
    40    37    36    1
    41    41    42    2
    42    17    18    2
    43    23    21   ar
    44   149   150   ar
    45    36    31   am
    46    29    30    1
    47     5     6    1
    48    21    22   ar
    49   148   150   ar
    50     7     6   ar
    51     7     9   ar
    52    31    32    2
    53    31    30    1
    54     6     8   ar
    55    30    33    1
    56    44    45    1
    57     9    10   ar
    58    46    47    2
    59    46    45    1
    60    33    35    1
    61    33    34    1
    62     8    10   ar
    63     8    11   ar
    64    45    48    1
    65   134   136   ar
    66   134   132   ar
    67    10    12   ar
    68    48    49    1
    69   131   132   ar
    70   131   129   ar
    71    11    13   ar
    72   136   135   ar
    73   132   130   ar
    74    50    49   ar
    75    50    52   ar
    76    49    51   ar
    77    12    14   ar
    78   129   128   ar
    79    13    14   ar
    80   135   133   ar
    81   130   128   ar
    82   130   133   ar
    83    52    53   ar
    84   128   127    1
    85    51    53   ar
    86    51    54   ar
    87   110   108    1
    88    53    55   ar
    89    54    56   ar
    90   126   125    2
    91   127   124    1
    92   108   109    1
    93   108   107    2
    94   125   124    1
    95   124   123    1
    96    55    57   ar
    97    56    57   ar
    98   107   106    1
    99   119   117   ar
   100   119   121   ar
   101   117   116   ar
   102   122   121    1
   103   103   102    2
   104   106   105    1
   105   121   120   ar
   106    91    90   ar
   107   114   113    2
   108   116   115    1
   109   116   118   ar
   110   105   104    1
   111   112   115    1
   112   112   113    1
   113   112   111    1
   114   102   111   am
   115   102   101    1
   116   104   101    1
   117    92    90   ar
   118    90    89    1
   119   120   118   ar
   120   101   100    1
   121    87    86    2
   122    89    88    1
   123    88    85    1
   124    85    86    1
   125    85    84    1
   126    66    64   ar
   127    86    93   am
   128    78    79    1
   129    78    77    1
   130    96    95    2
   131    64    65   ar
   132    64    63    1
   133    93    94    1
   134    77    76    1
   135    95    94    1
   136    94    97    1
   137    76    73    1
   138    63    62    1
   139    75    74    2
   140    73    74    1
   141    73    72    1
   142    74    80   am
   143    97    99    1
   144    97    98    1
   145    62    59    1
   146    80    81    1
   147    83    82    2
   148    61    60    2
   149    81    82    1
   150    68    71    1
   151    68    67    1
   152    68    69    1
   153    60    59    1
   154    60    67   am
   155    59    58    1
   156    70    69    2
