@<TRIPOS>MOLECULE
tmp/6igzO01.pdb
 142 135 0 0 0
SMALL
GASTEIGER

@<TRIPOS>ATOM
      1  N        247.5460  180.9600  237.9260 N.3    55  ARG55      -0.1245
      2  CA       248.8390  181.1320  237.2910 C.3    55  ARG55       0.1563
      3  C        249.2560  182.5960  237.2970 C.2    55  ARG55       0.2260
      4  O        250.3730  182.9220  237.7000 O.2    55  ARG55      -0.2867
      5  CB       248.7950  180.5700  235.8790 C.3    55  ARG55       0.0307
      6  CG       248.3740  179.1110  235.8140 C.3    55  ARG55       0.0489
      7  CD       248.4500  178.6980  234.3920 C.3    55  ARG55       0.2205
      8  NE       247.8240  177.4260  234.0630 N.pl3  55  ARG55      -0.0865
      9  CZ       248.3540  176.2400  234.3310 C.cat  55  ARG55       0.5346
     10  NH1      249.4870  176.1440  234.9930 N.pl3  55  ARG55       0.1354
     11  NH2      247.7150  175.1470  233.9670 N.pl3  55  ARG55       0.1354
     12  N        250.4620  183.5540  240.7210 N.3    58  MET58      -0.1230
     13  CA       251.8490  183.1310  240.8450 C.3    58  MET58       0.1702
     14  C        252.7760  184.1290  240.1780 C.2    58  MET58       0.2592
     15  O        253.7500  184.5910  240.7780 O.2    58  MET58      -0.2718
     16  CB       252.0220  181.7560  240.2150 C.3    58  MET58       0.0401
     17  CG       251.2610  180.6520  240.8790 C.3    58  MET58       0.0596
     18  SD       251.5070  179.1670  239.9140 S.3    58  MET58      -0.1393
     19  CE       250.4700  178.0100  240.7570 C.3    58  MET58       0.0692
     20  N        252.4730  184.4890  238.9360 N.am   59  LEU59      -0.1980
     21  CA       253.3060  185.4600  238.2500 C.3    59  LEU59       0.1596
     22  C        253.1190  186.8470  238.8290 C.2    59  LEU59       0.2287
     23  O        254.0370  187.6690  238.7780 O.2    59  LEU59      -0.2864
     24  CB       252.9950  185.4620  236.7630 C.3    59  LEU59       0.0297
     25  CG       253.2590  184.1190  236.1010 C.3    59  LEU59       0.0022
     26  CD1      252.9010  184.1810  234.6390 C.3    59  LEU59       0.0001
     27  CD2      254.6970  183.7300  236.2920 C.3    59  LEU59       0.0001
     28  N        246.3970  169.8110  223.7890 N.3   146  SER146     -0.1217
     29  CA       245.9210  168.4160  223.9840 C.3   146  SER146      0.1889
     30  C        244.9890  168.3110  225.1970 C.2   146  SER146      0.2288
     31  O        245.0120  169.2180  226.0470 O.2   146  SER146     -0.2866
     32  CB       247.0770  167.4550  224.0860 C.3   146  SER146      0.2089
     33  OG       248.0400  167.9240  225.0170 O.3   146  SER146     -0.2183
     34  N        242.3910  173.5270  230.2300 N.3   150  SER150     -0.1202
     35  CA       243.2420  174.0040  231.3520 C.3   150  SER150      0.2020
     36  C        244.6960  173.5600  231.1640 C.2   150  SER150      0.2619
     37  O        245.5890  174.4000  231.3720 O.2   150  SER150     -0.2717
     38  CB       242.7000  173.5200  232.6700 C.3   150  SER150      0.2103
     39  OG       241.4590  174.1430  232.9640 O.3   150  SER150     -0.2182
     40  N        244.9280  172.3120  230.7480 N.am  151  TYR151     -0.1962
     41  CA       246.3300  171.8560  230.5580 C.3   151  TYR151      0.1756
     42  C        246.6070  171.6480  229.0660 C.2   151  TYR151      0.2461
     43  O        246.0910  170.6820  228.4790 O.2   151  TYR151     -0.2730
     44  CB       246.6010  170.6100  231.4030 C.3   151  TYR151      0.0574
     45  CG       246.0360  170.6940  232.7980 C.ar  151  TYR151     -0.0198
     46  CD1      246.6970  171.3890  233.7970 C.ar  151  TYR151     -0.0009
     47  CD2      244.8280  170.0980  233.1160 C.ar  151  TYR151     -0.0009
     48  CE1      246.1790  171.4800  235.0780 C.ar  151  TYR151      0.0417
     49  CE2      244.2940  170.1810  234.3910 C.ar  151  TYR151      0.0417
     50  CZ       244.9720  170.8740  235.3760 C.ar  151  TYR151      0.1957
     51  OH       244.4520  170.9590  236.6350 O.3   151  TYR151     -0.2866
     52  N        247.4120  172.5280  228.4340 N.am  152  PRO152     -0.2716
     53  CA       247.7520  172.4250  227.0110 C.3   152  PRO152      0.1536
     54  C        248.7010  171.2780  226.6290 C.2   152  PRO152      0.2599
     55  O        248.5000  170.6840  225.5870 O.2   152  PRO152     -0.2715
     56  CB       248.4350  173.7650  226.6940 C.3   152  PRO152      0.0310
     57  CG       248.0070  174.6770  227.8180 C.3   152  PRO152      0.0237
     58  CD       247.9200  173.7650  229.0210 C.3   152  PRO152      0.0939
     59  N        249.7080  171.0070  227.4660 N.am  153  GLY153     -0.1955
     60  CA       250.7100  170.0110  227.1400 C.3   153  GLY153      0.1869
     61  C        251.4790  170.4230  225.9090 C.2   153  GLY153      0.2309
     62  O        251.9870  171.5410  225.8100 O.2   153  GLY153     -0.2863
     63  N        254.6380  174.0460  225.6770 N.3   157  PHE157     -0.1227
     64  CA       254.1300  174.3790  227.0030 C.3   157  PHE157      0.1736
     65  C        254.6330  173.4180  228.0610 C.2   157  PHE157      0.2595
     66  O        254.9430  173.8310  229.1810 O.2   157  PHE157     -0.2718
     67  CB       252.6080  174.4270  227.0080 C.3   157  PHE157      0.0547
     68  CG       252.0560  175.5720  226.2440 C.ar  157  PHE157     -0.0202
     69  CD1      252.1350  176.8450  226.7600 C.ar  157  PHE157     -0.0042
     70  CD2      251.4360  175.3830  225.0370 C.ar  157  PHE157     -0.0042
     71  CE1      251.6390  177.9080  226.0710 C.ar  157  PHE157     -0.0003
     72  CE2      250.9330  176.4470  224.3480 C.ar  157  PHE157     -0.0003
     73  CZ       251.0360  177.7110  224.8670 C.ar  157  PHE157     -0.0000
     74  N        254.7160  172.1400  227.7430 N.am  158  ASN158     -0.1974
     75  CA       255.5320  171.2350  228.5340 C.3   158  ASN158      0.1688
     76  C        256.6450  170.7490  227.6320 C.2   158  ASN158      0.2292
     77  O        256.4540  169.8140  226.8530 O.2   158  ASN158     -0.2864
     78  CB       254.7050  170.0850  229.0630 C.3   158  ASN158      0.1181
     79  CG       255.4980  169.1630  229.9170 C.2   158  ASN158      0.2629
     80  OD1      256.5150  169.5490  230.4860 O.2   158  ASN158     -0.2716
     81  ND2      255.0290  167.9330  230.0410 N.am  158  ASN158     -0.0877
     82  N        257.3360  166.6510  232.2110 N.3   162  LEU162     -0.1245
     83  CA       257.2720  166.2670  233.6080 C.3   162  LEU162      0.1561
     84  C        255.8520  165.8410  233.9420 C.2   162  LEU162      0.2260
     85  O        254.8900  166.4820  233.5140 O.2   162  LEU162     -0.2867
     86  CB       257.7200  167.4190  234.5030 C.3   162  LEU162      0.0270
     87  CG       257.7370  167.1520  236.0030 C.3   162  LEU162      0.0019
     88  CD1      258.6730  165.9990  236.3270 C.3   162  LEU162      0.0001
     89  CD2      258.1850  168.4050  236.7240 C.3   162  LEU162      0.0001
     90  N        251.3990  163.0880  237.4230 N.3   169  MET169     -0.1245
     91  CA       250.7060  164.1560  236.7120 C.3   169  MET169      0.1570
     92  C        249.5980  164.7500  237.5630 C.2   169  MET169      0.2261
     93  O        249.4970  165.9720  237.6970 O.2   169  MET169     -0.2867
     94  CB       250.1530  163.6450  235.3900 C.3   169  MET169      0.0387
     95  CG       249.4460  164.7210  234.6000 C.3   169  MET169      0.0595
     96  SD       250.5170  166.0670  234.0530 S.3   169  MET169     -0.1393
     97  CE       251.3430  165.3260  232.6500 C.3   169  MET169      0.0692
     98  N        251.3970  166.6100  240.4490 N.3   172  MET172     -0.1230
     99  CA       251.9310  167.9020  240.0370 C.3   172  MET172      0.1702
    100  C        250.8230  168.9190  239.8280 C.2   172  MET172      0.2592
    101  O        250.9960  170.1040  240.1250 O.2   172  MET172     -0.2718
    102  CB       252.7580  167.7410  238.7700 C.3   172  MET172      0.0401
    103  CG       253.9980  166.9150  238.9780 C.3   172  MET172      0.0596
    104  SD       255.0700  167.6630  240.2010 S.3   172  MET172     -0.1393
    105  CE       255.5630  169.1340  239.3250 C.3   172  MET172      0.0692
    106  N        249.6740  168.4800  239.3230 N.am  173  LYS173     -0.1980
    107  CA       248.5520  169.3960  239.1690 C.3   173  LYS173      0.1596
    108  C        248.0380  169.8600  240.5230 C.2   173  LYS173      0.2287
    109  O        247.9120  171.0630  240.7710 O.2   173  LYS173     -0.2864
    110  CB       247.4410  168.7260  238.3700 C.3   173  LYS173      0.0298
    111  CG       247.8200  168.4340  236.9420 C.3   173  LYS173      0.0038
    112  CD       246.7550  167.6340  236.2520 C.3   173  LYS173      0.0206
    113  CE       247.1400  167.3650  234.8210 C.3   173  LYS173      0.1093
    114  NZ       246.1250  166.5370  234.1260 N.3   173  LYS173     -0.1314
    115  N        249.6490  169.8130  243.1840 N.3   175  ARG175     -0.1231
    116  CA       250.7400  170.6110  243.7020 C.3   175  ARG175      0.1694
    117  C        250.7630  171.9950  243.0740 C.2   175  ARG175      0.2591
    118  O        251.2810  172.9330  243.6810 O.2   175  ARG175     -0.2718
    119  CB       252.0380  169.8500  243.4530 C.3   175  ARG175      0.0321
    120  CG       253.2760  170.4030  244.0610 C.3   175  ARG175      0.0489
    121  CD       254.4230  169.4730  243.7270 C.3   175  ARG175      0.2205
    122  NE       254.2510  168.1640  244.3460 N.pl3 175  ARG175     -0.0865
    123  CZ       255.0680  167.1320  244.1600 C.cat 175  ARG175      0.5346
    124  NH1      256.1230  167.2480  243.3690 N.pl3 175  ARG175      0.1354
    125  NH2      254.8300  165.9820  244.7710 N.pl3 175  ARG175      0.1354
    126  N        250.2110  172.1360  241.8730 N.am  176  GLU176     -0.1979
    127  CA       250.1790  173.4280  241.2020 C.3   176  GLU176      0.1602
    128  C        249.0130  174.2800  241.6770 C.2   176  GLU176      0.2287
    129  O        249.1770  175.4790  241.9110 O.2   176  GLU176     -0.2864
    130  CB       250.1380  173.2050  239.6910 C.3   176  GLU176      0.0415
    131  CG       250.1630  174.4430  238.8270 C.3   176  GLU176      0.1163
    132  CD       248.8110  174.9020  238.4050 C.2   176  GLU176      0.3649
    133  OE1      247.8990  174.0600  238.3250 O.co2 176  GLU176     -0.2457
    134  OE2      248.6650  176.1050  238.1320 O.co2 176  GLU176     -0.2457
    135  N        249.3720  175.8060  245.1340 N.3   179  ASN179     -0.1240
    136  CA       250.2210  176.9850  245.0410 C.3   179  ASN179      0.1653
    137  C        249.5140  178.1330  244.3500 C.2   179  ASN179      0.2266
    138  O        249.7900  179.2940  244.6560 O.2   179  ASN179     -0.2867
    139  CB       251.5100  176.6540  244.3020 C.3   179  ASN179      0.1155
    140  CG       252.4620  175.8580  245.1410 C.2   179  ASN179      0.2627
    141  OD1      253.2210  176.4120  245.9300 O.2   179  ASN179     -0.2716
    142  ND2      252.4070  174.5450  245.0070 N.am  179  ASN179     -0.0877
@<TRIPOS>BOND
     1    28    29    1
     2    29    32    1
     3    29    30    1
     4    32    33    1
     5    72    73   ar
     6    72    70   ar
     7    73    71   ar
     8    70    68   ar
     9    30    31    2
    10    55    54    2
    11    63    64    1
    12    62    61    2
    13    61    60    1
    14    71    69   ar
    15    68    69   ar
    16    68    67    1
    17    54    53    1
    18    54    59   am
    19    56    53    1
    20    56    57    1
    21    77    76    2
    22    64    67    1
    23    64    65    1
    24    53    52    1
    25    60    59    1
    26    76    75    1
    27    74    65   am
    28    74    75    1
    29    57    58    1
    30    65    66    2
    31    52    58    1
    32    52    42   am
    33    43    42    2
    34    75    78    1
    35    78    79    1
    36    42    41    1
    37    79    81   am
    38    79    80    2
    39    34    35    1
    40    41    40    1
    41    41    44    1
    42    40    36   am
    43    36    35    1
    44    36    37    2
    45    35    38    1
    46    44    45    1
    47    82    83    1
    48    97    96    1
    49    38    39    1
    50    45    47   ar
    51    45    46   ar
    52    47    49   ar
    53    85    84    2
    54    83    84    1
    55    83    86    1
    56    46    48   ar
    57    11     9    1
    58    96    95    1
    59     8     9    2
    60     8     7    1
    61   114   113    1
    62     9    10    1
    63    49    50   ar
    64     7     6    1
    65    86    87    1
    66    95    94    1
    67    26    25    1
    68   113   112    1
    69    48    50   ar
    70    50    51    1
    71    94    91    1
    72     6     5    1
    73     5     2    1
    74    87    88    1
    75    87    89    1
    76    25    27    1
    77    25    24    1
    78   112   111    1
    79    91    90    1
    80    91    92    1
    81    24    21    1
    82   111   110    1
    83     2     3    1
    84     2     1    1
    85     3     4    2
    86    92    93    2
    87   134   132   ar
    88    21    22    1
    89    21    20    1
    90   133   132   ar
    91   110   107    1
    92   132   131    1
    93   102   103    1
    94   102    99    1
    95    23    22    2
    96   131   130    1
    97    20    14   am
    98   103   104    1
    99   107   106    1
   100   107   108    1
   101   106   100   am
   102   105   104    1
   103   130   127    1
   104   100    99    1
   105   100   101    2
   106    18    19    1
   107    18    17    1
   108    99    98    1
   109    14    15    2
   110    14    13    1
   111    16    13    1
   112    16    17    1
   113   108   109    2
   114    12    13    1
   115   127   128    1
   116   127   126    1
   117   128   129    2
   118   126   117   am
   119   117   118    2
   120   117   116    1
   121   115   116    1
   122   124   123    1
   123   119   116    1
   124   119   120    1
   125   121   120    1
   126   121   122    1
   127   123   122    2
   128   123   125    1
   129   139   136    1
   130   139   140    1
   131   137   138    2
   132   137   136    1
   133   142   140   am
   134   136   135    1
   135   140   141    2
