@<TRIPOS>MOLECULE
tmp/6igzP08.pdb
 150 147 0 0 0
SMALL
GASTEIGER

@<TRIPOS>ATOM
      1  N        212.1540  205.9010  175.7860 N.3    24  TYR24      -0.1227
      2  CA       212.1900  206.7970  176.9370 C.3    24  TYR24       0.1736
      3  C        210.7830  207.2990  177.2090 C.2    24  TYR24       0.2595
      4  O        210.2820  208.1600  176.4890 O.2    24  TYR24      -0.2718
      5  CB       213.1240  207.9650  176.6570 C.3    24  TYR24       0.0548
      6  CG       213.0590  209.0960  177.6530 C.ar   24  TYR24      -0.0200
      7  CD1      213.7350  209.0270  178.8590 C.ar   24  TYR24      -0.0009
      8  CD2      212.3430  210.2430  177.3730 C.ar   24  TYR24      -0.0009
      9  CE1      213.6930  210.0580  179.7560 C.ar   24  TYR24       0.0417
     10  CE2      212.2980  211.2710  178.2640 C.ar   24  TYR24       0.0417
     11  CZ       212.9730  211.1700  179.4530 C.ar   24  TYR24       0.1957
     12  OH       212.9300  212.1910  180.3570 O.3    24  TYR24      -0.2866
     13  N        210.1460  206.7650  178.2430 N.am   25  ASP25      -0.1960
     14  CA       208.9480  207.3760  178.8130 C.3    25  ASP25       0.1825
     15  C        208.9100  207.0810  180.2990 C.2    25  ASP25       0.2464
     16  O        208.1160  206.2590  180.7670 O.2    25  ASP25      -0.2730
     17  CB       207.6830  206.8810  178.1190 C.3    25  ASP25       0.1450
     18  CG       206.4550  207.6460  178.5480 C.2    25  ASP25       0.3671
     19  OD1      206.5640  208.4830  179.4630 O.co2  25  ASP25      -0.2456
     20  OD2      205.3850  207.4540  177.9490 O.co2  25  ASP25      -0.2456
     21  N        209.7510  207.7520  181.0850 N.am   26  PRO26      -0.2715
     22  CA       209.8450  207.3870  182.5020 C.3    26  PRO26       0.1536
     23  C        208.5440  207.5870  183.2520 C.2    26  PRO26       0.2598
     24  O        208.1120  206.7010  183.9960 O.2    26  PRO26      -0.2715
     25  CB       210.9580  208.3040  183.0100 C.3    26  PRO26       0.0310
     26  CG       210.8710  209.4760  182.1560 C.3    26  PRO26       0.0237
     27  CD       210.5230  208.9650  180.7960 C.3    26  PRO26       0.0939
     28  N        207.8900  208.7240  183.0540 N.am   27  LEU27      -0.1978
     29  CA       206.6720  209.0270  183.7860 C.3    27  LEU27       0.1596
     30  C        205.4710  208.2810  183.2370 C.2    27  LEU27       0.2287
     31  O        204.3910  208.3570  183.8260 O.2    27  LEU27      -0.2864
     32  CB       206.4260  210.5270  183.7660 C.3    27  LEU27       0.0297
     33  CG       207.6600  211.2580  184.2850 C.3    27  LEU27       0.0022
     34  CD1      207.4700  212.7570  184.2990 C.3    27  LEU27       0.0001
     35  CD2      208.0450  210.7300  185.6410 C.3    27  LEU27       0.0001
     36  N        203.4520  208.4720  180.6080 N.3    29  LEU29      -0.1245
     37  CA       202.2540  209.1950  180.2060 C.3    29  LEU29       0.1561
     38  C        201.4420  208.3890  179.2070 C.2    29  LEU29       0.2260
     39  O        200.2850  208.0450  179.4640 O.2    29  LEU29      -0.2867
     40  CB       202.6240  210.5590  179.6360 C.3    29  LEU29       0.0270
     41  CG       202.6980  211.6650  180.6820 C.3    29  LEU29       0.0019
     42  CD1      203.8080  211.4030  181.6560 C.3    29  LEU29       0.0001
     43  CD2      202.9020  212.9990  180.0200 C.3    29  LEU29       0.0001
     44  N        204.5590  220.4720  168.1980 N.3    46  HIS46      -0.1241
     45  CA       205.6820  221.1050  168.8800 C.3    46  HIS46       0.1621
     46  C        206.9420  221.0360  168.0390 C.2    46  HIS46       0.2264
     47  O        207.5480  222.0620  167.7190 O.2    46  HIS46      -0.2867
     48  CB       205.9290  220.4580  170.2350 C.3    46  HIS46       0.0745
     49  CG       205.0250  220.9480  171.3070 C.ar   46  HIS46       0.0817
     50  ND1      204.8510  220.2830  172.4990 N.ar   46  HIS46      -0.2268
     51  CD2      204.2910  222.0760  171.3950 C.ar   46  HIS46       0.1154
     52  CE1      204.0190  220.9660  173.2620 C.ar   46  HIS46       0.1986
     53  NE2      203.6610  222.0570  172.6130 N.ar   46  HIS46      -0.2212
     54  N        206.7520  223.5390  165.1990 N.3    49  PHE49      -0.1227
     55  CA       206.8760  224.9280  165.6310 C.3    49  PHE49       0.1736
     56  C        208.2760  225.2210  166.1280 C.2    49  PHE49       0.2595
     57  O        208.8630  226.2510  165.7870 O.2    49  PHE49      -0.2718
     58  CB       205.8630  225.2780  166.7190 C.3    49  PHE49       0.0547
     59  CG       204.4940  225.5490  166.2070 C.ar   49  PHE49      -0.0202
     60  CD1      204.2330  226.7170  165.5300 C.ar   49  PHE49      -0.0042
     61  CD2      203.4560  224.6900  166.4640 C.ar   49  PHE49      -0.0042
     62  CE1      202.9850  226.9890  165.0580 C.ar   49  PHE49      -0.0003
     63  CE2      202.1950  224.9640  166.0050 C.ar   49  PHE49      -0.0003
     64  CZ       201.9590  226.1140  165.3020 C.ar   49  PHE49      -0.0000
     65  N        208.8280  224.3260  166.9420 N.am   50  ALA50      -0.1980
     66  CA       210.1300  224.5870  167.5380 C.3    50  ALA50       0.1597
     67  C        211.1940  224.7810  166.4670 C.2    50  ALA50       0.2287
     68  O        211.9900  225.7230  166.5310 O.2    50  ALA50      -0.2864
     69  CB       210.5070  223.4530  168.4820 C.3    50  ALA50       0.0319
     70  N        210.3070  228.0560  164.6470 N.3    53  GLY53      -0.1225
     71  CA       210.4210  229.1510  165.5930 C.3    53  GLY53       0.1811
     72  C        211.8550  229.4650  165.9610 C.2    53  GLY53       0.2280
     73  O        212.2740  230.6220  165.9320 O.2    53  GLY53      -0.2866
     74  N        213.6390  231.5720  163.8140 N.3    56  GLY56      -0.1210
     75  CA       213.2800  232.9590  164.0220 C.3    56  GLY56       0.1956
     76  C        214.1400  233.6230  165.0720 C.2    56  GLY56       0.2611
     77  O        214.4440  234.8120  164.9650 O.2    56  GLY56      -0.2717
     78  N        214.5350  232.8760  166.1030 N.am   57  MET57      -0.1979
     79  CA       215.4410  233.4190  167.1060 C.3    57  MET57       0.1605
     80  C        216.8750  233.4080  166.6120 C.2    57  MET57       0.2287
     81  O        217.5860  234.4110  166.7080 O.2    57  MET57      -0.2864
     82  CB       215.3400  232.6190  168.4020 C.3    57  MET57       0.0413
     83  CG       214.0050  232.7220  169.0870 C.3    57  MET57       0.0598
     84  SD       213.9040  231.8790  170.6710 S.3    57  MET57      -0.1393
     85  CE       213.7670  230.1870  170.1370 C.3    57  MET57       0.0692
     86  N        215.8850  238.0750  170.0850 N.3    77  TRP77      -0.1241
     87  CA       214.5650  237.4920  169.9040 C.3    77  TRP77       0.1605
     88  C        213.5760  237.9280  170.9700 C.2    77  TRP77       0.2264
     89  O        212.3700  237.9310  170.7130 O.2    77  TRP77      -0.2867
     90  CB       214.6760  235.9790  169.8880 C.3    77  TRP77       0.0550
     91  CG       215.2560  235.4360  171.1280 C.ar   77  TRP77       0.0003
     92  CD1      216.5730  235.3160  171.4250 C.ar   77  TRP77       0.0946
     93  CD2      214.5410  234.9160  172.2490 C.ar   77  TRP77       0.0152
     94  NE1      216.7280  234.7630  172.6700 N.ar   77  TRP77      -0.2442
     95  CE2      215.4900  234.5100  173.1950 C.ar   77  TRP77       0.0810
     96  CE3      213.1890  234.7610  172.5460 C.ar   77  TRP77       0.0012
     97  CZ2      215.1340  233.9580  174.4090 C.ar   77  TRP77       0.0191
     98  CZ3      212.8400  234.2120  173.7470 C.ar   77  TRP77       0.0001
     99  CH2      213.8040  233.8200  174.6670 C.ar   77  TRP77       0.0015
    100  N        212.1620  241.6770  170.2640 N.3    80  ALA80      -0.1245
    101  CA       211.1640  241.8410  169.2200 C.3    80  ALA80       0.1562
    102  C        209.7510  241.8000  169.7660 C.2    80  ALA80       0.2260
    103  O        208.7980  241.8780  168.9880 O.2    80  ALA80      -0.2867
    104  CB       211.3320  240.7690  168.1440 C.3    80  ALA80       0.0290
    105  N        213.2970  221.5900  169.7630 N.3   165  MET165     -0.1230
    106  CA       212.5530  221.7810  170.9980 C.3   165  MET165      0.1702
    107  C        213.5030  221.9480  172.1700 C.2   165  MET165      0.2592
    108  O        213.4890  222.9720  172.8580 O.2   165  MET165     -0.2718
    109  CB       211.6180  220.6050  171.2500 C.3   165  MET165      0.0401
    110  CG       210.4560  220.4970  170.3130 C.3   165  MET165      0.0596
    111  SD       209.3230  219.2230  170.8640 S.3   165  MET165     -0.1393
    112  CE       210.2520  217.7810  170.4150 C.3   165  MET165      0.0692
    113  N        214.3530  220.9510  172.3990 N.am  166  PHE166     -0.1976
    114  CA       215.2680  221.0150  173.5290 C.3   166  PHE166      0.1639
    115  C        216.1720  222.2320  173.4330 C.2   166  PHE166      0.2290
    116  O        216.4140  222.9150  174.4310 O.2   166  PHE166     -0.2864
    117  CB       216.0910  219.7320  173.6040 C.3   166  PHE166      0.0560
    118  CG       217.0660  219.7130  174.7300 C.ar  166  PHE166     -0.0200
    119  CD1      216.6420  219.4720  176.0190 C.ar  166  PHE166     -0.0042
    120  CD2      218.4060  219.9220  174.5030 C.ar  166  PHE166     -0.0042
    121  CE1      217.5330  219.4550  177.0600 C.ar  166  PHE166     -0.0003
    122  CE2      219.3020  219.9050  175.5440 C.ar  166  PHE166     -0.0003
    123  CZ       218.8650  219.6720  176.8240 C.ar  166  PHE166     -0.0000
    124  N        215.5230  225.0560  171.9370 N.3   168  THR168     -0.1203
    125  CA       214.7370  226.2540  172.1960 C.3   168  THR168      0.1994
    126  C        214.7170  226.5830  173.6760 C.2   168  THR168      0.2617
    127  O        214.9000  227.7390  174.0710 O.2   168  THR168     -0.2717
    128  CB       213.3180  226.0730  171.6890 C.3   168  THR168      0.1784
    129  OG1      213.3420  225.9440  170.2680 O.3   168  THR168     -0.2211
    130  CG2      212.4930  227.2570  172.0520 C.3   168  THR168      0.0376
    131  N        214.4980  225.5710  174.5110 N.am  169  LEU169     -0.1979
    132  CA       214.4480  225.7910  175.9490 C.3   169  LEU169      0.1596
    133  C        215.7160  226.4590  176.4530 C.2   169  LEU169      0.2287
    134  O        215.6660  227.2540  177.3930 O.2   169  LEU169     -0.2864
    135  CB       214.2160  224.4620  176.6570 C.3   169  LEU169      0.0297
    136  CG       214.1110  224.5110  178.1670 C.3   169  LEU169      0.0022
    137  CD1      212.9310  225.3570  178.5400 C.3   169  LEU169      0.0001
    138  CD2      213.9520  223.1120  178.6980 C.3   169  LEU169      0.0001
    139  N        215.4430  230.2160  176.0200 N.3   172  TYR172     -0.1241
    140  CA       214.6880  230.7830  177.1210 C.3   172  TYR172      0.1605
    141  C        215.6080  230.9580  178.3140 C.2   172  TYR172      0.2264
    142  O        215.9460  232.0850  178.6740 O.2   172  TYR172     -0.2867
    143  CB       213.5020  229.9030  177.4830 C.3   172  TYR172      0.0534
    144  CG       212.4750  229.7800  176.3910 C.ar  172  TYR172     -0.0201
    145  CD1      212.1700  230.8540  175.5780 C.ar  172  TYR172     -0.0009
    146  CD2      211.7940  228.6000  176.1890 C.ar  172  TYR172     -0.0009
    147  CE1      211.2330  230.7480  174.5860 C.ar  172  TYR172      0.0417
    148  CE2      210.8540  228.4900  175.2030 C.ar  172  TYR172      0.0417
    149  CZ       210.5780  229.5680  174.4060 C.ar  172  TYR172      0.1957
    150  OH       209.6380  229.4640  173.4180 O.3   172  TYR172     -0.2866
@<TRIPOS>BOND
     1    74    75    1
     2    75    76    1
     3    70    71    1
     4    77    76    2
     5    62    64   ar
     6    62    60   ar
     7    76    78   am
     8    54    55    1
     9    64    63   ar
    10    60    59   ar
    11    71    72    1
    12    55    56    1
    13    55    58    1
    14    57    56    2
    15    73    72    2
    16    63    61   ar
    17    78    79    1
    18    56    65   am
    19    59    61   ar
    20    59    58    1
    21    67    68    2
    22    67    66    1
    23    80    81    2
    24    80    79    1
    25    65    66    1
    26    79    82    1
    27    66    69    1
    28    47    46    2
    29    46    45    1
    30   104   101    1
    31    44    45    1
    32    82    83    1
    33    45    48    1
    34   103   102    2
    35    83    84    1
    36   101   102    1
    37   101   100    1
    38   105   106    1
    39    90    87    1
    40    90    91    1
    41    87    86    1
    42    87    88    1
    43    85    84    1
    44    48    49    1
    45   129   128    1
    46   110   111    1
    47   110   109    1
    48   112   111    1
    49    89    88    2
    50   106   109    1
    51   106   107    1
    52    91    92   ar
    53    91    93   ar
    54    49    51   ar
    55    49    50   ar
    56    51    53   ar
    57    92    94   ar
    58   128   130    1
    59   128   125    1
    60   124   125    1
    61   107   113   am
    62   107   108    2
    63   125   126    1
    64    93    96   ar
    65    93    95   ar
    66   113   114    1
    67    50    52   ar
    68    96    98   ar
    69    53    52   ar
    70    94    95   ar
    71    95    97   ar
    72   150   149    1
    73   115   114    1
    74   115   116    2
    75   114   117    1
    76   117   118    1
    77   126   127    2
    78   126   131   am
    79    98    99   ar
    80   149   147   ar
    81   149   148   ar
    82    97    99   ar
    83   120   118   ar
    84   120   122   ar
    85   131   132    1
    86   147   145   ar
    87   118   119   ar
    88   148   146   ar
    89   122   123   ar
    90   145   144   ar
    91     1     2    1
    92   132   133    1
    93   132   135    1
    94   119   121   ar
    95   139   140    1
    96   146   144   ar
    97   144   143    1
    98   133   134    2
    99     4     3    2
   100     5     2    1
   101     5     6    1
   102   135   136    1
   103   123   121   ar
   104     2     3    1
   105   140   143    1
   106   140   141    1
   107     3    13   am
   108     8     6   ar
   109     8    10   ar
   110     6     7   ar
   111    20    18   ar
   112    17    18    1
   113    17    14    1
   114   136   137    1
   115   136   138    1
   116    13    14    1
   117    10    11   ar
   118   141   142    2
   119    18    19   ar
   120    14    15    1
   121     7     9   ar
   122    38    39    2
   123    38    37    1
   124    11     9   ar
   125    11    12    1
   126    40    37    1
   127    40    41    1
   128    43    41    1
   129    37    36    1
   130    15    16    2
   131    15    21   am
   132    41    42    1
   133    27    21    1
   134    27    26    1
   135    21    22    1
   136    26    25    1
   137    22    25    1
   138    22    23    1
   139    28    23   am
   140    28    29    1
   141    30    29    1
   142    30    31    2
   143    23    24    2
   144    32    29    1
   145    32    33    1
   146    33    34    1
   147    33    35    1
