@<TRIPOS>MOLECULE
tmp/6igzR14.pdb
 148 142 0 0 0
SMALL
GASTEIGER

@<TRIPOS>ATOM
      1  N        185.2490  229.7870  134.4370 N.3    46  MET46      -0.1245
      2  CA       184.5340  231.0030  134.7870 C.3    46  MET46       0.1570
      3  C        185.4570  232.0440  135.3990 C.2    46  MET46       0.2261
      4  O        185.2040  233.2410  135.2570 O.2    46  MET46      -0.2867
      5  CB       183.3780  230.6700  135.7220 C.3    46  MET46       0.0387
      6  CG       182.3460  229.8260  135.0330 C.3    46  MET46       0.0595
      7  SD       181.0070  229.2560  136.0670 S.3    46  MET46      -0.1393
      8  CE       180.1280  228.2730  134.8610 C.3    46  MET46       0.0692
      9  N        187.4550  233.7140  132.1560 N.3    49  ARG49      -0.1231
     10  CA       186.6730  234.6260  131.3390 C.3    49  ARG49       0.1694
     11  C        186.6940  236.0270  131.9300 C.2    49  ARG49       0.2592
     12  O        186.9510  237.0110  131.2290 O.2    49  ARG49      -0.2718
     13  CB       185.2580  234.0750  131.2050 C.3    49  ARG49       0.0321
     14  CG       185.2490  232.8090  130.3910 C.3    49  ARG49       0.0489
     15  CD       183.8980  232.1710  130.2660 C.3    49  ARG49       0.2205
     16  NE       183.9870  231.0100  129.3920 N.pl3  49  ARG49      -0.0865
     17  CZ       183.0010  230.1520  129.1750 C.cat  49  ARG49       0.5346
     18  NH1      181.8370  230.3060  129.7840 N.pl3  49  ARG49       0.1354
     19  NH2      183.1840  229.1330  128.3510 N.pl3  49  ARG49       0.1354
     20  N        186.4890  236.1260  133.2360 N.am   50  TRP50      -0.1976
     21  CA       186.5660  237.4150  133.9030 C.3    50  TRP50       0.1640
     22  C        187.9900  237.8900  134.0930 C.2    50  TRP50       0.2290
     23  O        188.1950  239.0540  134.4400 O.2    50  TRP50      -0.2864
     24  CB       185.8060  237.3250  135.2100 C.3    50  TRP50       0.0576
     25  CG       184.3930  237.5140  134.9330 C.ar   50  TRP50       0.0006
     26  CD1      183.8600  238.3510  134.0100 C.ar   50  TRP50       0.0946
     27  CD2      183.3240  236.7070  135.3980 C.ar   50  TRP50       0.0152
     28  NE1      182.5030  238.2080  133.9640 N.ar   50  TRP50      -0.2442
     29  CE2      182.1540  237.1890  134.8040 C.ar   50  TRP50       0.0810
     30  CE3      183.2330  235.6570  136.2970 C.ar   50  TRP50       0.0012
     31  CZ2      180.9170  236.6520  135.0710 C.ar   50  TRP50       0.0191
     32  CZ3      181.9990  235.1290  136.5670 C.ar   50  TRP50       0.0001
     33  CH2      180.8590  235.6230  135.9560 C.ar   50  TRP50       0.0015
     34  N        187.9950  238.8830  130.2210 N.3    53  LEU53      -0.1245
     35  CA       187.3030  240.1420  130.0040 C.3    53  LEU53       0.1561
     36  C        188.0410  241.3040  130.6540 C.2    53  LEU53       0.2260
     37  O        188.0420  242.4160  130.1180 O.2    53  LEU53      -0.2867
     38  CB       185.8730  240.0500  130.5240 C.3    53  LEU53       0.0270
     39  CG       184.9880  239.0320  129.8100 C.3    53  LEU53       0.0019
     40  CD1      183.6250  238.9820  130.4540 C.3    53  LEU53       0.0001
     41  CD2      184.8710  239.3510  128.3360 C.3    53  LEU53       0.0001
     42  N        173.9940  241.4400  138.6290 N.3   105  MET105     -0.1245
     43  CA       174.8990  240.3150  138.5070 C.3   105  MET105      0.1570
     44  C        174.4150  239.1210  139.3130 C.2   105  MET105      0.2261
     45  O        174.6330  237.9770  138.9060 O.2   105  MET105     -0.2867
     46  CB       176.2960  240.7220  138.9490 C.3   105  MET105      0.0387
     47  CG       177.3020  239.6940  138.6030 C.3   105  MET105      0.0595
     48  SD       177.3860  239.6380  136.8110 S.3   105  MET105     -0.1393
     49  CE       178.5360  238.3050  136.6080 C.3   105  MET105      0.0692
     50  N        171.8700  237.1680  137.2210 N.3   108  ALA108     -0.1231
     51  CA       172.6280  236.6180  136.1010 C.3   108  ALA108      0.1694
     52  C        173.4440  235.4070  136.5240 C.2   108  ALA108      0.2591
     53  O        173.5140  234.4100  135.7980 O.2   108  ALA108     -0.2718
     54  CB       173.5360  237.6930  135.5110 C.3   108  ALA108      0.0304
     55  N        174.0660  235.4720  137.6990 N.am  109  GLU109     -0.1979
     56  CA       174.6610  234.2730  138.2710 C.3   109  GLU109      0.1602
     57  C        173.5860  233.3110  138.7470 C.2   109  GLU109      0.2287
     58  O        173.6590  232.1080  138.4750 O.2   109  GLU109     -0.2864
     59  CB       175.5990  234.6460  139.4160 C.3   109  GLU109      0.0415
     60  CG       176.8390  235.3700  138.9520 C.3   109  GLU109      0.1163
     61  CD       177.6890  234.5200  138.0360 C.2   109  GLU109      0.3649
     62  OE1      177.9010  233.3330  138.3500 O.co2 109  GLU109     -0.2457
     63  OE2      178.1180  235.0260  136.9840 O.co2 109  GLU109     -0.2457
     64  N        170.6350  232.7200  137.7830 N.3   111  MET111     -0.1230
     65  CA       170.0460  231.9490  136.6960 C.3   111  MET111      0.1702
     66  C        170.9370  230.7720  136.3330 C.2   111  MET111      0.2592
     67  O        170.4500  229.6660  136.0730 O.2   111  MET111     -0.2718
     68  CB       169.8150  232.8460  135.4840 C.3   111  MET111      0.0401
     69  CG       168.9000  234.0080  135.7700 C.3   111  MET111      0.0596
     70  SD       167.2710  233.4700  136.3090 S.3   111  MET111     -0.1393
     71  CE       166.4850  235.0460  136.6340 C.3   111  MET111      0.0692
     72  N        172.2500  230.9960  136.3200 N.am  112  ARG112     -0.1980
     73  CA       173.2110  229.9260  136.1170 C.3   112  ARG112      0.1597
     74  C        173.4220  229.0960  137.3700 C.2   112  ARG112      0.2287
     75  O        173.8470  227.9420  137.2690 O.2   112  ARG112     -0.2864
     76  CB       174.5500  230.5110  135.6700 C.3   112  ARG112      0.0334
     77  CG       175.6080  229.4720  135.4070 C.3   112  ARG112      0.0492
     78  CD       176.9350  230.0920  135.0620 C.3   112  ARG112      0.2205
     79  NE       177.4750  230.8610  136.1740 N.pl3 112  ARG112     -0.0865
     80  CZ       178.0850  230.3180  137.2200 C.cat 112  ARG112      0.5346
     81  NH1      178.2070  229.0030  137.3010 N.pl3 112  ARG112      0.1354
     82  NH2      178.5590  231.0860  138.1900 N.pl3 112  ARG112      0.1354
     83  N        171.7890  224.5370  137.9720 N.3   115  GLU115     -0.1245
     84  CA       171.7700  223.9230  136.6450 C.3   115  GLU115      0.1567
     85  C        172.0000  222.4250  136.7690 C.2   115  GLU115      0.2260
     86  O        173.1490  221.9830  136.9390 O.2   115  GLU115     -0.2867
     87  CB       172.7840  224.5650  135.7050 C.3   115  GLU115      0.0388
     88  CG       172.3860  225.9600  135.3200 C.3   115  GLU115      0.1160
     89  CD       171.0000  225.9990  134.7160 C.2   115  GLU115      0.3649
     90  OE1      170.6710  225.0950  133.9200 O.co2 115  GLU115     -0.2457
     91  OE2      170.2310  226.9210  135.0560 O.co2 115  GLU115     -0.2457
     92  N        175.9120  221.3230  131.0690 N.3   120  LYS120     -0.1231
     93  CA       174.9000  222.2350  130.5520 C.3   120  LYS120      0.1693
     94  C        175.0980  223.6460  131.0880 C.2   120  LYS120      0.2592
     95  O        174.7830  224.6270  130.4060 O.2   120  LYS120     -0.2718
     96  CB       173.5160  221.7030  130.9250 C.3   120  LYS120      0.0285
     97  CG       172.3100  222.5220  130.5020 C.3   120  LYS120      0.0035
     98  CD       172.1630  222.6070  128.9960 C.3   120  LYS120      0.0206
     99  CE       170.7460  223.0160  128.6190 C.3   120  LYS120      0.1093
    100  NZ       170.3730  224.3300  129.2010 N.3   120  LYS120     -0.1314
    101  N        175.6230  223.7710  132.3060 N.am  121  ARG121     -0.1966
    102  CA       175.7510  225.0910  132.9130 C.3   121  ARG121      0.1729
    103  C        176.9280  225.8640  132.3370 C.2   121  ARG121      0.2616
    104  O        176.7960  227.0460  132.0040 O.2   121  ARG121     -0.2715
    105  CB       175.8770  224.9510  134.4260 C.3   121  ARG121      0.0348
    106  CG       177.0520  224.1280  134.8820 C.3   121  ARG121      0.0492
    107  CD       176.9920  223.8630  136.3630 C.3   121  ARG121      0.2205
    108  NE       177.0920  225.0740  137.1570 N.pl3 121  ARG121     -0.0865
    109  CZ       176.9560  225.0930  138.4760 C.cat 121  ARG121      0.5346
    110  NH1      177.0590  226.2360  139.1410 N.pl3 121  ARG121      0.1354
    111  NH2      176.7090  223.9660  139.1270 N.pl3 121  ARG121      0.1354
    112  N        178.0850  225.2200  132.2080 N.am  122  VAL122     -0.1977
    113  CA       179.2690  225.9390  131.7620 C.3   122  VAL122      0.1596
    114  C        179.2680  226.1150  130.2510 C.2   122  VAL122      0.2287
    115  O        179.7730  227.1200  129.7400 O.2   122  VAL122     -0.2864
    116  CB       180.5330  225.2200  132.2500 C.3   122  VAL122      0.0276
    117  CG1      180.6070  223.8290  131.6700 C.3   122  VAL122      0.0022
    118  CG2      181.7380  226.0000  131.8580 C.3   122  VAL122      0.0022
    119  N        176.3720  226.2720  127.8880 N.3   124  PRO124     -0.2116
    120  CA       174.9420  226.2460  127.5480 C.3   124  PRO124      0.1372
    121  C        174.6710  226.1480  126.0600 C.2   124  PRO124      0.2244
    122  O        173.7850  225.3950  125.6390 O.2   124  PRO124     -0.2868
    123  CB       174.4400  227.5740  128.1250 C.3   124  PRO124      0.0268
    124  CG       175.4300  227.9310  129.1720 C.3   124  PRO124      0.0207
    125  CD       176.7320  227.4990  128.6080 C.3   124  PRO124      0.0892
    126  N        171.2580  230.5470  123.1390 N.3   127  ALA127     -0.1231
    127  CA       171.2420  232.0060  123.1670 C.3   127  ALA127      0.1694
    128  C        172.6170  232.5880  123.4670 C.2   127  ALA127      0.2592
    129  O        172.9150  233.7130  123.0530 O.2   127  ALA127     -0.2718
    130  CB       170.2240  232.4980  124.1950 C.3   127  ALA127      0.0304
    131  N        173.4570  231.8560  124.1900 N.am  128  PHE128     -0.1976
    132  CA       174.8260  232.2810  124.4360 C.3   128  PHE128      0.1639
    133  C        175.7760  231.8360  123.3350 C.2   128  PHE128      0.2290
    134  O        176.9600  232.1760  123.3780 O.2   128  PHE128     -0.2864
    135  CB       175.3090  231.7560  125.7890 C.3   128  PHE128      0.0560
    136  CG       174.5160  232.2740  126.9500 C.ar  128  PHE128     -0.0200
    137  CD1      174.7900  233.5150  127.4960 C.ar  128  PHE128     -0.0042
    138  CD2      173.4900  231.5220  127.4940 C.ar  128  PHE128     -0.0042
    139  CE1      174.0550  233.9910  128.5630 C.ar  128  PHE128     -0.0003
    140  CE2      172.7550  231.9940  128.5620 C.ar  128  PHE128     -0.0003
    141  CZ       173.0350  233.2300  129.0940 C.ar  128  PHE128     -0.0000
    142  N        175.3670  232.6430  119.7920 N.3   130  PRO130     -0.2116
    143  CA       174.6400  233.2510  118.6700 C.3   130  PRO130      0.1372
    144  C        175.2120  232.8620  117.3270 C.2   130  PRO130      0.2244
    145  O        174.4570  232.5780  116.3880 O.2   130  PRO130     -0.2868
    146  CB       174.7900  234.7520  118.9370 C.3   130  PRO130      0.0268
    147  CG       176.0790  234.8620  119.6540 C.3   130  PRO130      0.0207
    148  CD       176.1960  233.6280  120.5050 C.3   130  PRO130      0.0892
@<TRIPOS>BOND
     1   145   144    2
     2   144   143    1
     3   143   146    1
     4   143   142    1
     5   146   147    1
     6   147   148    1
     7   142   148    1
     8   129   128    2
     9   126   127    1
    10   127   128    1
    11   127   130    1
    12   133   134    2
    13   133   132    1
    14   128   131   am
    15   131   132    1
    16   132   135    1
    17   122   121    2
    18   135   136    1
    19   121   120    1
    20   136   138   ar
    21   136   137   ar
    22   138   140   ar
    23   137   139   ar
    24   120   119    1
    25   120   123    1
    26   119   125    1
    27   123   124    1
    28    41    39    1
    29    19    17    1
    30   140   141   ar
    31   139   141   ar
    32   125   124    1
    33    99    98    1
    34    99   100    1
    35    98    97    1
    36    17    16    2
    37    17    18    1
    38    16    15    1
    39   115   114    2
    40    39    40    1
    41    39    38    1
    42    35    34    1
    43    35    38    1
    44    35    36    1
    45    37    36    2
    46   114   113    1
    47    15    14    1
    48    14    13    1
    49    95    94    2
    50    97    96    1
    51    93    96    1
    52    93    92    1
    53    93    94    1
    54    94   101   am
    55    13    10    1
    56    12    11    2
    57    10    11    1
    58    10     9    1
    59   117   116    1
    60   113   112    1
    61   113   116    1
    62   118   116    1
    63    11    20   am
    64   104   103    2
    65   112   103   am
    66   101   102    1
    67   103   102    1
    68   102   105    1
    69    20    21    1
    70    21    22    1
    71    21    24    1
    72    90    89   ar
    73    28    26   ar
    74    28    29   ar
    75    26    25   ar
    76    22    23    2
    77   105   106    1
    78     1     2    1
    79    89    91   ar
    80    89    88    1
    81     2     3    1
    82     2     5    1
    83    29    31   ar
    84    29    27   ar
    85     8     7    1
    86   106   107    1
    87    25    24    1
    88    25    27   ar
    89     6     5    1
    90     6     7    1
    91    78    77    1
    92    78    79    1
    93    31    33   ar
    94     4     3    2
    95    88    87    1
    96    27    30   ar
    97    77    76    1
    98    68    69    1
    99    68    65    1
   100    54    51    1
   101    76    73    1
   102    87    84    1
   103    69    70    1
   104    53    52    2
   105    33    32   ar
   106    67    66    2
   107    51    52    1
   108    51    50    1
   109    73    72    1
   110    73    74    1
   111    79    80    2
   112    30    32   ar
   113    70    71    1
   114    72    66   am
   115    66    65    1
   116   107   108    1
   117    52    55   am
   118    49    48    1
   119    84    85    1
   120    84    83    1
   121    65    64    1
   122    85    86    2
   123    48    47    1
   124    63    61   ar
   125   108   109    2
   126    80    81    1
   127    80    82    1
   128    75    74    2
   129    55    56    1
   130    61    62   ar
   131    61    60    1
   132    56    57    1
   133    56    59    1
   134    58    57    2
   135   109   111    1
   136   109   110    1
   137    43    42    1
   138    43    46    1
   139    43    44    1
   140    47    46    1
   141    45    44    2
   142    60    59    1
