@<TRIPOS>MOLECULE
tmp/6igzQ10.pdb
 95 94 0 0 0
SMALL
GASTEIGER

@<TRIPOS>ATOM
      1  N        265.6250  200.8230  166.5910 N.3    49  TRP49      -0.1241
      2  CA       265.9300  202.2430  166.6760 C.3    49  TRP49       0.1605
      3  C        267.0280  202.5100  167.6860 C.2    49  TRP49       0.2264
      4  O        267.9120  203.3330  167.4350 O.2    49  TRP49      -0.2867
      5  CB       264.6940  203.0590  167.0290 C.3    49  TRP49       0.0550
      6  CG       263.7370  203.2090  165.9150 C.ar   49  TRP49       0.0003
      7  CD1      262.5670  202.5470  165.7490 C.ar   49  TRP49       0.0946
      8  CD2      263.8860  204.0570  164.7780 C.ar   49  TRP49       0.0152
      9  NE1      261.9590  202.9480  164.5890 N.ar   49  TRP49      -0.2442
     10  CE2      262.7540  203.8760  163.9750 C.ar   49  TRP49       0.0810
     11  CE3      264.8670  204.9590  164.3660 C.ar   49  TRP49       0.0012
     12  CZ2      262.5740  204.5600  162.7860 C.ar   49  TRP49       0.0191
     13  CZ3      264.6840  205.6400  163.1870 C.ar   49  TRP49       0.0001
     14  CH2      263.5500  205.4360  162.4090 C.ar   49  TRP49       0.0015
     15  N        270.6330  201.6550  166.3380 N.3    52  MET52      -0.1245
     16  CA       271.0910  202.7180  165.4660 C.3    52  MET52       0.1570
     17  C        271.2370  204.0260  166.2230 C.2    52  MET52       0.2261
     18  O        272.0170  204.8860  165.8090 O.2    52  MET52      -0.2867
     19  CB       270.1220  202.8620  164.3000 C.3    52  MET52       0.0387
     20  CG       270.5660  203.8070  163.2170 C.3    52  MET52       0.0595
     21  SD       269.4470  203.7220  161.8120 S.3    52  MET52      -0.1393
     22  CE       270.1950  204.9200  160.7210 C.3    52  MET52       0.0692
     23  N        274.7900  205.9970  167.3270 N.3    56  GLY56      -0.1225
     24  CA       274.8450  207.3870  166.9420 C.3    56  GLY56       0.1811
     25  C        275.5850  208.2230  167.9570 C.2    56  GLY56       0.2280
     26  O        276.5740  208.8720  167.6190 O.2    56  GLY56      -0.2866
     27  N        258.7820  217.9320  157.0150 N.3    88  PHE88      -0.1241
     28  CA       259.1240  216.7960  156.1760 C.3    88  PHE88       0.1605
     29  C        259.2650  215.5180  156.9790 C.2    88  PHE88       0.2264
     30  O        259.0830  214.4300  156.4300 O.2    88  PHE88      -0.2867
     31  CB       260.4070  217.0690  155.4110 C.3    88  PHE88       0.0534
     32  CG       260.8370  215.9300  154.5650 C.ar   88  PHE88      -0.0203
     33  CD1      260.2050  215.6740  153.3680 C.ar   88  PHE88      -0.0042
     34  CD2      261.8610  215.1070  154.9640 C.ar   88  PHE88      -0.0042
     35  CE1      260.5910  214.6140  152.5810 C.ar   88  PHE88      -0.0003
     36  CE2      262.2530  214.0480  154.1790 C.ar   88  PHE88      -0.0003
     37  CZ       261.6180  213.8020  152.9850 C.ar   88  PHE88      -0.0000
     38  N        255.4390  213.7310  157.2580 N.3    91  PHE91      -0.1227
     39  CA       254.9540  213.0710  156.0530 C.3    91  PHE91       0.1736
     40  C        255.8670  211.9280  155.6400 C.2    91  PHE91       0.2595
     41  O        255.3980  210.9060  155.1290 O.2    91  PHE91      -0.2718
     42  CB       254.8270  214.0850  154.9250 C.3    91  PHE91       0.0547
     43  CG       253.8020  215.1390  155.1770 C.ar   91  PHE91      -0.0202
     44  CD1      252.4820  214.9320  154.8330 C.ar   91  PHE91      -0.0042
     45  CD2      254.1530  216.3310  155.7680 C.ar   91  PHE91      -0.0042
     46  CE1      251.5370  215.9010  155.0620 C.ar   91  PHE91      -0.0003
     47  CE2      253.2100  217.3010  156.0050 C.ar   91  PHE91      -0.0003
     48  CZ       251.9000  217.0850  155.6500 C.ar   91  PHE91      -0.0000
     49  N        257.1720  212.0850  155.8410 N.am   92  ALA92      -0.1966
     50  CA       258.1080  211.0150  155.5420 C.3    92  ALA92       0.1728
     51  C        257.7410  209.7780  156.3350 C.2    92  ALA92       0.2616
     52  O        257.2860  208.7790  155.7750 O.2    92  ALA92      -0.2715
     53  CB       259.5400  211.4300  155.8680 C.3    92  ALA92       0.0334
     54  N        257.9150  209.8580  157.6490 N.am   93  MET93      -0.1977
     55  CA       257.7020  208.7010  158.5020 C.3    93  MET93       0.1605
     56  C        256.2620  208.2210  158.4570 C.2    93  MET93       0.2287
     57  O        256.0030  207.0390  158.6960 O.2    93  MET93      -0.2864
     58  CB       258.0920  209.0530  159.9300 C.3    93  MET93       0.0413
     59  CG       258.2300  207.8670  160.8360 C.3    93  MET93       0.0598
     60  SD       259.6530  206.9010  160.3280 S.3    93  MET93      -0.1393
     61  CE       260.9530  208.0240  160.7940 C.3    93  MET93       0.0692
     62  N        254.1470  207.9430  155.7570 N.3    95  TYR95      -0.1227
     63  CA       254.0850  206.9380  154.7000 C.3    95  TYR95       0.1736
     64  C        254.9380  205.7320  155.0410 C.2    95  TYR95       0.2595
     65  O        254.5020  204.5890  154.8870 O.2    95  TYR95      -0.2718
     66  CB       254.5400  207.5130  153.3620 C.3    95  TYR95       0.0548
     67  CG       254.6820  206.4340  152.3120 C.ar   95  TYR95      -0.0200
     68  CD1      253.5810  205.9450  151.6390 C.ar   95  TYR95      -0.0009
     69  CD2      255.9090  205.8760  152.0270 C.ar   95  TYR95      -0.0009
     70  CE1      253.7070  204.9530  150.7000 C.ar   95  TYR95       0.0417
     71  CE2      256.0380  204.8860  151.0930 C.ar   95  TYR95       0.0417
     72  CZ       254.9380  204.4280  150.4350 C.ar   95  TYR95       0.1957
     73  OH       255.0740  203.4350  149.5020 O.3    95  TYR95      -0.2866
     74  N        256.1720  205.9700  155.4810 N.am   96  VAL96      -0.1980
     75  CA       257.0990  204.8800  155.7570 C.3    96  VAL96       0.1595
     76  C        256.4650  203.8270  156.6460 C.2    96  VAL96       0.2287
     77  O        256.7010  202.6250  156.4810 O.2    96  VAL96      -0.2864
     78  CB       258.3770  205.4360  156.3980 C.3    96  VAL96       0.0276
     79  CG1      259.2240  204.3110  156.9200 C.3    96  VAL96       0.0022
     80  CG2      259.1320  206.2390  155.3840 C.3    96  VAL96       0.0022
     81  N        254.7420  200.5820  145.1220 N.3   114  PRO114     -0.2102
     82  CA       253.5260  201.3030  144.7140 C.3   114  PRO114      0.1504
     83  C        253.5540  201.8120  143.2920 C.2   114  PRO114      0.2575
     84  O        252.5270  201.7530  142.6060 O.2   114  PRO114     -0.2718
     85  CB       253.4530  202.4540  145.7190 C.3   114  PRO114      0.0282
     86  CG       254.8320  202.6370  146.1690 C.3   114  PRO114      0.0208
     87  CD       255.3660  201.2440  146.2750 C.3   114  PRO114      0.0893
     88  N        254.6890  202.3160  142.8190 N.am  115  ILE115     -0.1980
     89  CA       254.7250  202.9240  141.4930 C.3   115  ILE115      0.1595
     90  C        254.6950  201.8560  140.4030 C.2   115  ILE115      0.2287
     91  O        253.7470  201.7890  139.6130 O.2   115  ILE115     -0.2864
     92  CB       255.9280  203.8780  141.3670 C.3   115  ILE115      0.0276
     93  CG1      257.2290  203.2050  141.7720 C.3   115  ILE115      0.0022
     94  CG2      255.7260  205.1030  142.2270 C.3   115  ILE115      0.0022
     95  CD1      258.4120  204.1060  141.5910 C.3   115  ILE115      0.0001
@<TRIPOS>BOND
     1    91    90    2
     2    90    89    1
     3    92    89    1
     4    92    93    1
     5    92    94    1
     6    89    88    1
     7    95    93    1
     8    84    83    2
     9    88    83   am
    10    83    82    1
    11    82    81    1
    12    82    85    1
    13    81    87    1
    14    85    86    1
    15    86    87    1
    16    73    72    1
    17    72    70   ar
    18    72    71   ar
    19    70    68   ar
    20    71    69   ar
    21    68    67   ar
    22    69    67   ar
    23    67    66    1
    24    35    37   ar
    25    35    33   ar
    26    37    36   ar
    27    66    63    1
    28    33    32   ar
    29    36    34   ar
    30    32    34   ar
    31    32    31    1
    32    63    64    1
    33    63    62    1
    34    44    46   ar
    35    44    43   ar
    36    65    64    2
    37    42    43    1
    38    42    39    1
    39    64    74   am
    40    46    48   ar
    41    41    40    2
    42    43    45   ar
    43    80    78    1
    44    31    28    1
    45    74    75    1
    46    50    49    1
    47    50    53    1
    48    50    51    1
    49    40    49   am
    50    40    39    1
    51    48    47   ar
    52    75    78    1
    53    75    76    1
    54    45    47   ar
    55    52    51    2
    56    39    38    1
    57    28    29    1
    58    28    27    1
    59    51    54   am
    60    78    79    1
    61    30    29    2
    62    77    76    2
    63    54    55    1
    64    56    55    1
    65    56    57    2
    66    55    58    1
    67    58    59    1
    68    60    61    1
    69    60    59    1
    70    22    21    1
    71    21    20    1
    72    14    12   ar
    73    14    13   ar
    74    12    10   ar
    75    13    11   ar
    76    20    19    1
    77    10     9   ar
    78    10     8   ar
    79    19    16    1
    80    11     8   ar
    81     9     7   ar
    82     8     6   ar
    83    16    17    1
    84    16    15    1
    85     7     6   ar
    86    18    17    2
    87     6     5    1
    88     1     2    1
    89     2     5    1
    90     2     3    1
    91    24    23    1
    92    24    25    1
    93     4     3    2
    94    26    25    2
