@<TRIPOS>MOLECULE
tmp/6igzS21.pdb
 190 184 0 0 0
SMALL
GASTEIGER

@<TRIPOS>ATOM
      1  N        268.5060  166.7770  224.5470 N.3     6  TRP6       -0.1241
      2  CA       268.9090  167.9680  225.2910 C.3     6  TRP6        0.1605
      3  C        268.4230  167.9270  226.7370 C.2     6  TRP6        0.2264
      4  O        269.2230  167.9960  227.6750 O.2     6  TRP6       -0.2867
      5  CB       268.3980  169.2080  224.5680 C.3     6  TRP6        0.0550
      6  CG       266.9450  169.1860  224.3480 C.ar    6  TRP6        0.0003
      7  CD1      266.2810  168.4830  223.3990 C.ar    6  TRP6        0.0946
      8  CD2      265.9590  169.9280  225.0630 C.ar    6  TRP6        0.0152
      9  NE1      264.9350  168.7250  223.4860 N.ar    6  TRP6       -0.2442
     10  CE2      264.7130  169.6080  224.5080 C.ar    6  TRP6        0.0810
     11  CE3      266.0070  170.8180  226.1290 C.ar    6  TRP6        0.0012
     12  CZ2      263.5320  170.1510  224.9770 C.ar    6  TRP6        0.0191
     13  CZ3      264.8340  171.3520  226.5900 C.ar    6  TRP6        0.0001
     14  CH2      263.6150  171.0220  226.0180 C.ar    6  TRP6        0.0015
     15  N        261.9590  164.9660  213.9980 N.3    16  LEU16      -0.1245
     16  CA       263.3460  164.9190  214.4370 C.3    16  LEU16       0.1561
     17  C        263.7030  163.4790  214.7700 C.2    16  LEU16       0.2260
     18  O        263.2210  162.9120  215.7540 O.2    16  LEU16      -0.2867
     19  CB       263.5850  165.8350  215.6300 C.3    16  LEU16       0.0270
     20  CG       263.4440  167.3190  215.3260 C.3    16  LEU16       0.0019
     21  CD1      263.6480  168.1330  216.5800 C.3    16  LEU16       0.0001
     22  CD2      264.4130  167.7360  214.2480 C.3    16  LEU16       0.0001
     23  N        269.9180  164.3530  210.6190 N.3    20  LEU20      -0.1245
     24  CA       270.7370  165.5210  210.3520 C.3    20  LEU20       0.1561
     25  C        271.9520  165.5070  211.2740 C.2    20  LEU20       0.2260
     26  O        272.1750  164.5600  212.0310 O.2    20  LEU20      -0.2867
     27  CB       269.9150  166.7910  210.4930 C.3    20  LEU20       0.0270
     28  CG       268.8120  166.8790  209.4500 C.3    20  LEU20       0.0019
     29  CD1      267.9980  168.1360  209.6410 C.3    20  LEU20       0.0001
     30  CD2      269.4100  166.8290  208.0640 C.3    20  LEU20       0.0001
     31  N        273.6850  167.6440  213.9270 N.3    22  GLY22      -0.1210
     32  CA       273.8330  167.8160  215.3580 C.3    22  GLY22       0.1956
     33  C        272.5610  167.6200  216.1490 C.2    22  GLY22       0.2612
     34  O        272.4120  168.1950  217.2270 O.2    22  GLY22      -0.2717
     35  N        271.6270  166.8430  215.6140 N.am   23  ASP23      -0.1959
     36  CA       270.3000  166.7600  216.2040 C.3    23  ASP23       0.1840
     37  C        270.3550  166.3110  217.6510 C.2    23  ASP23       0.2622
     38  O        270.8290  165.2160  217.9540 O.2    23  ASP23      -0.2715
     39  CB       269.4500  165.7890  215.3990 C.3    23  ASP23       0.1450
     40  CG       268.0270  165.7380  215.8820 C.2    23  ASP23       0.3671
     41  OD1      267.6670  166.5630  216.7420 O.co2  23  ASP23      -0.2456
     42  OD2      267.2710  164.8620  215.4170 O.co2  23  ASP23      -0.2456
     43  N        269.8480  167.1550  218.5420 N.am   24  TYR24      -0.1960
     44  CA       269.4790  166.7510  219.8880 C.3    24  TYR24       0.1771
     45  C        267.9850  166.5720  220.0650 C.2    24  TYR24       0.2620
     46  O        267.5370  166.3150  221.1840 O.2    24  TYR24      -0.2715
     47  CB       270.0040  167.7490  220.9030 C.3    24  TYR24       0.0574
     48  CG       271.4950  167.7770  220.9100 C.ar   24  TYR24      -0.0198
     49  CD1      272.2180  166.8680  221.6530 C.ar   24  TYR24      -0.0009
     50  CD2      272.1800  168.7030  220.1660 C.ar   24  TYR24      -0.0009
     51  CE1      273.5770  166.8920  221.6540 C.ar   24  TYR24       0.0417
     52  CE2      273.5330  168.7340  220.1620 C.ar   24  TYR24       0.0417
     53  CZ       274.2260  167.8290  220.9060 C.ar   24  TYR24       0.1957
     54  OH       275.5850  167.8740  220.8930 O.3    24  TYR24      -0.2866
     55  N        267.2040  166.7320  219.0070 N.am   25  GLY25      -0.1940
     56  CA       265.7700  166.6350  219.1550 C.3    25  GLY25       0.2014
     57  C        265.1820  167.7860  219.9250 C.2    25  GLY25       0.2639
     58  O        264.1960  167.6070  220.6420 O.2    25  GLY25      -0.2714
     59  N        265.7710  168.9620  219.8120 N.am   26  TRP26      -0.1959
     60  CA       265.2690  170.1520  220.4770 C.3    26  TRP26       0.1771
     61  C        264.7000  171.0860  219.4290 C.2    26  TRP26       0.2619
     62  O        265.4470  171.7320  218.6920 O.2    26  TRP26      -0.2715
     63  CB       266.3780  170.8220  221.2760 C.3    26  TRP26       0.0590
     64  CG       266.0120  172.0970  221.9200 C.ar   26  TRP26       0.0006
     65  CD1      265.1770  172.2650  222.9720 C.ar   26  TRP26       0.0946
     66  CD2      266.5870  173.3740  221.6610 C.ar   26  TRP26       0.0152
     67  NE1      265.1300  173.5830  223.3370 N.ar   26  TRP26      -0.2442
     68  CE2      265.9980  174.2840  222.5490 C.ar   26  TRP26       0.0810
     69  CE3      267.5250  173.8400  220.7470 C.ar   26  TRP26       0.0012
     70  CZ2      266.3080  175.6270  222.5450 C.ar   26  TRP26       0.0191
     71  CZ3      267.8340  175.1720  220.7510 C.ar   26  TRP26       0.0001
     72  CH2      267.2300  176.0520  221.6390 C.ar   26  TRP26       0.0015
     73  N        263.3800  171.1560  219.3740 N.am   27  ASP27      -0.1971
     74  CA       262.6700  172.2000  218.6440 C.3    27  ASP27       0.1709
     75  C        261.4210  172.5300  219.4410 C.2    27  ASP27       0.2293
     76  O        260.3010  172.2050  219.0380 O.2    27  ASP27      -0.2864
     77  CB       262.3500  171.7520  217.2200 C.3    27  ASP27       0.1436
     78  CG       261.6430  172.8170  216.4260 C.2    27  ASP27       0.3671
     79  OD1      262.1820  173.9360  216.3260 O.co2  27  ASP27      -0.2456
     80  OD2      260.5660  172.5290  215.8730 O.co2  27  ASP27      -0.2456
     81  N        259.8590  175.2710  220.0560 N.3    29  MET29      -0.1245
     82  CA       258.9030  176.1240  219.3780 C.3    29  MET29       0.1570
     83  C        258.0830  175.3660  218.3550 C.2    29  MET29       0.2261
     84  O        257.1300  175.9320  217.8170 O.2    29  MET29      -0.2867
     85  CB       259.6280  177.2770  218.6990 C.3    29  MET29       0.0387
     86  CG       260.2900  178.2310  219.6600 C.3    29  MET29       0.0595
     87  SD       259.1490  179.2090  220.6250 S.3    29  MET29      -0.1393
     88  CE       258.5430  180.2890  219.3360 C.3    29  MET29       0.0692
     89  N        258.7640  174.9900  215.4960 N.3    31  LEU31      -0.1231
     90  CA       258.7610  175.8750  214.3420 C.3    31  LEU31       0.1693
     91  C        259.1340  175.1290  213.0710 C.2    31  LEU31       0.2592
     92  O        258.4780  175.2790  212.0360 O.2    31  LEU31      -0.2718
     93  CB       259.7100  177.0380  214.5960 C.3    31  LEU31       0.0284
     94  CG       259.8540  178.0030  213.4360 C.3    31  LEU31       0.0019
     95  CD1      258.5030  178.5360  213.0710 C.3    31  LEU31       0.0001
     96  CD2      260.7270  179.1320  213.8570 C.3    31  LEU31       0.0001
     97  N        260.1860  174.3250  213.1270 N.am   32  SER32      -0.1952
     98  CA       260.4790  173.4270  212.0240 C.3    32  SER32       0.1924
     99  C        259.4530  172.3080  211.9980 C.2    32  SER32       0.2314
    100  O        259.1960  171.6620  213.0160 O.2    32  SER32      -0.2863
    101  CB       261.8730  172.8420  212.1640 C.3    32  SER32       0.2116
    102  OG       261.9420  172.0570  213.3340 O.3    32  SER32      -0.2180
    103  N        262.1360  172.7980  207.1950 N.3    38  LEU38      -0.1245
    104  CA       263.3770  172.2930  207.7670 C.3    38  LEU38       0.1561
    105  C        264.5430  172.5210  206.8230 C.2    38  LEU38       0.2260
    106  O        265.5840  173.0510  207.2230 O.2    38  LEU38      -0.2867
    107  CB       263.2510  170.8100  208.0880 C.3    38  LEU38       0.0270
    108  CG       264.5470  170.2260  208.6400 C.3    38  LEU38       0.0019
    109  CD1      264.8540  170.8500  209.9740 C.3    38  LEU38       0.0001
    110  CD2      264.4710  168.7270  208.7620 C.3    38  LEU38       0.0001
    111  N        265.3890  176.1390  207.0310 N.3    41  TYR41      -0.1227
    112  CA       266.0140  176.5200  208.2880 C.3    41  TYR41       0.1736
    113  C        267.4100  175.9440  208.4060 C.2    41  TYR41       0.2595
    114  O        268.3380  176.6430  208.8230 O.2    41  TYR41      -0.2718
    115  CB       265.1420  176.0880  209.4570 C.3    41  TYR41       0.0548
    116  CG       263.8600  176.8650  209.5250 C.ar   41  TYR41      -0.0200
    117  CD1      263.8490  178.2220  209.2880 C.ar   41  TYR41      -0.0009
    118  CD2      262.6670  176.2460  209.8160 C.ar   41  TYR41      -0.0009
    119  CE1      262.6970  178.9400  209.3440 C.ar   41  TYR41       0.0417
    120  CE2      261.5050  176.9580  209.8750 C.ar   41  TYR41       0.0417
    121  CZ       261.5260  178.3040  209.6360 C.ar   41  TYR41       0.1957
    122  OH       260.3610  179.0250  209.6940 O.3    41  TYR41      -0.2866
    123  N        267.5870  174.6810  208.0240 N.am   42  ARG42      -0.1980
    124  CA       268.9190  174.0890  208.0510 C.3    42  ARG42       0.1597
    125  C        269.9200  174.9430  207.2960 C.2    42  ARG42       0.2287
    126  O        271.0320  175.1810  207.7750 O.2    42  ARG42      -0.2864
    127  CB       268.8870  172.6810  207.4800 C.3    42  ARG42       0.0334
    128  CG       270.2680  172.1130  207.2990 C.3    42  ARG42       0.0492
    129  CD       271.0130  172.0340  208.6040 C.3    42  ARG42       0.2205
    130  NE       270.4400  171.0460  209.4980 N.pl3  42  ARG42      -0.0865
    131  CZ       270.8600  170.8440  210.7360 C.cat  42  ARG42       0.5346
    132  NH1      271.8500  171.5690  211.2260 N.pl3  42  ARG42       0.1354
    133  NH2      270.2890  169.9180  211.4810 N.pl3  42  ARG42       0.1354
    134  N        269.9700  178.1430  206.7910 N.3    44  ALA44      -0.1231
    135  CA       270.3440  179.2930  207.5950 C.3    44  ALA44       0.1694
    136  C        271.2600  178.8820  208.7310 C.2    44  ALA44       0.2591
    137  O        272.2850  179.5220  208.9740 O.2    44  ALA44      -0.2718
    138  CB       269.0960  179.9840  208.1300 C.3    44  ALA44       0.0304
    139  N        270.9160  177.8020  209.4340 N.am   45  GLU45      -0.1979
    140  CA       271.7520  177.3810  210.5510 C.3    45  GLU45       0.1602
    141  C        273.1840  177.1530  210.1010 C.2    45  GLU45       0.2287
    142  O        274.1280  177.5560  210.7850 O.2    45  GLU45      -0.2864
    143  CB       271.2010  176.1200  211.1970 C.3    45  GLU45       0.0415
    144  CG       271.9740  175.7190  212.4270 C.3    45  GLU45       0.1163
    145  CD       271.3890  174.5140  213.1160 C.2    45  GLU45       0.3649
    146  OE1      270.4480  173.9190  212.5650 O.co2  45  GLU45      -0.2457
    147  OE2      271.8550  174.1750  214.2220 O.co2  45  GLU45      -0.2457
    148  N        274.6770  180.6930  208.9020 N.3    48  HIS48      -0.1241
    149  CA       274.9550  181.4480  210.1160 C.3    48  HIS48       0.1621
    150  C        276.1380  180.8630  210.8620 C.2    48  HIS48       0.2264
    151  O        277.0570  181.5880  211.2560 O.2    48  HIS48      -0.2867
    152  CB       273.7210  181.4890  211.0070 C.3    48  HIS48       0.0745
    153  CG       272.6510  182.3960  210.5030 C.ar   48  HIS48       0.0817
    154  ND1      272.7190  183.7600  210.6480 N.ar   48  HIS48      -0.2268
    155  CD2      271.5090  182.1440  209.8260 C.ar   48  HIS48       0.1154
    156  CE1      271.6520  184.3110  210.1030 C.ar   48  HIS48       0.1986
    157  NE2      270.9040  183.3530  209.5940 N.ar   48  HIS48      -0.2212
    158  N        277.5770  176.2740  216.1710 N.3   163  ARG163     -0.1245
    159  CA       276.6530  176.7740  217.1790 C.3   163  ARG163      0.1563
    160  C        277.3930  177.4720  218.3040 C.2   163  ARG163      0.2260
    161  O        276.9350  178.4940  218.8210 O.2   163  ARG163     -0.2867
    162  CB       275.8250  175.6210  217.7140 C.3   163  ARG163      0.0307
    163  CG       274.8870  175.0760  216.6950 C.3   163  ARG163      0.0489
    164  CD       274.1480  173.8950  217.2340 C.3   163  ARG163      0.2205
    165  NE       273.1660  173.4430  216.2690 N.pl3 163  ARG163     -0.0865
    166  CZ       272.4940  172.3100  216.3680 C.cat 163  ARG163      0.5346
    167  NH1      272.7070  171.4920  217.3830 N.pl3 163  ARG163      0.1354
    168  NH2      271.6160  172.0000  215.4390 N.pl3 163  ARG163      0.1354
    169  N        278.1230  181.0650  216.9850 N.3   166  MET166     -0.1230
    170  CA       276.9560  181.9410  216.9520 C.3   166  MET166      0.1702
    171  C        276.6330  182.4930  218.3300 C.2   166  MET166      0.2592
    172  O        276.2750  183.6650  218.4710 O.2   166  MET166     -0.2718
    173  CB       275.7480  181.2030  216.3810 C.3   166  MET166      0.0401
    174  CG       275.8280  180.9450  214.8990 C.3   166  MET166      0.0596
    175  SD       274.3290  180.2030  214.2520 S.3   166  MET166     -0.1393
    176  CE       274.5500  178.5300  214.8100 C.3   166  MET166      0.0692
    177  N        276.7610  181.6670  219.3630 N.am  167  VAL167     -0.1980
    178  CA       276.6150  182.1730  220.7200 C.3   167  VAL167      0.1595
    179  C        277.8270  183.0060  221.1040 C.2   167  VAL167      0.2287
    180  O        277.6990  184.1330  221.5920 O.2   167  VAL167     -0.2864
    181  CB       276.3930  181.0140  221.7030 C.3   167  VAL167      0.0276
    182  CG1      276.4160  181.5290  223.1110 C.3   167  VAL167      0.0022
    183  CG2      275.0730  180.3540  221.4220 C.3   167  VAL167      0.0022
    184  N        277.8170  186.2350  219.4170 N.3   170  THR170     -0.1218
    185  CA       276.8070  187.0790  220.0380 C.3   170  THR170      0.1862
    186  C        277.3340  187.6950  221.3210 C.2   170  THR170      0.2287
    187  O        277.0720  188.8680  221.6100 O.2   170  THR170     -0.2866
    188  CB       275.5450  186.2710  220.3160 C.3   170  THR170      0.1770
    189  OG1      275.0380  185.7590  219.0820 O.3   170  THR170     -0.2211
    190  CG2      274.4870  187.1330  220.9730 C.3   170  THR170      0.0375
@<TRIPOS>BOND
     1   134   135    1
     2   105   106    2
     3   105   104    1
     4   111   112    1
     5   103   104    1
     6   125   126    2
     7   125   124    1
     8   128   127    1
     9   128   129    1
    10   127   124    1
    11   135   138    1
    12   135   136    1
    13   104   107    1
    14   123   124    1
    15   123   113   am
    16    30    28    1
    17   107   108    1
    18   112   113    1
    19   112   115    1
    20   113   114    2
    21   129   130    1
    22   108   110    1
    23   108   109    1
    24   136   137    2
    25   136   139   am
    26   148   149    1
    27   117   119   ar
    28   117   116   ar
    29   119   121   ar
    30   139   140    1
    31    28    29    1
    32    28    27    1
    33   115   116    1
    34   130   131    2
    35   116   118   ar
    36   157   155   ar
    37   157   156   ar
    38   121   122    1
    39   121   120   ar
    40   118   120   ar
    41   155   153   ar
    42   141   140    1
    43   141   142    2
    44   156   154   ar
    45   149   150    1
    46   149   152    1
    47    24    27    1
    48    24    23    1
    49    24    25    1
    50   153   154   ar
    51   153   152    1
    52   140   143    1
    53   131   132    1
    54   131   133    1
    55   150   151    2
    56   143   144    1
    57    25    26    2
    58    99    98    1
    59    99   100    2
    60    98   101    1
    61    98    97    1
    62    92    91    2
    63   101   102    1
    64   144   145    1
    65   146   145   ar
    66    91    97   am
    67    91    90    1
    68    95    94    1
    69   145   147   ar
    70    94    96    1
    71    94    93    1
    72    31    32    1
    73    15    16    1
    74    22    20    1
    75   175   176    1
    76   175   174    1
    77    90    93    1
    78    90    89    1
    79    16    17    1
    80    16    19    1
    81    17    18    2
    82   174   173    1
    83    20    19    1
    84    20    21    1
    85    32    33    1
    86    39    40    1
    87    39    36    1
    88    42    40   ar
    89   168   166    1
    90    35    33   am
    91    35    36    1
    92    80    78   ar
    93    40    41   ar
    94    33    34    2
    95   158   159    1
    96    36    37    1
    97   165   166    2
    98   165   164    1
    99    79    78   ar
   100   166   167    1
   101   173   170    1
   102    78    77    1
   103   163   164    1
   104   163   162    1
   105   170   169    1
   106   170   171    1
   107   159   162    1
   108   159   160    1
   109    77    74    1
   110    37    38    2
   111    37    43   am
   112    84    83    2
   113   160   161    2
   114   171   172    2
   115   171   177   am
   116    83    82    1
   117    43    44    1
   118    74    73    1
   119    74    75    1
   120    62    61    2
   121    85    82    1
   122    85    86    1
   123    55    56    1
   124    55    45   am
   125    76    75    2
   126   189   188    1
   127    56    57    1
   128    88    87    1
   129   177   178    1
   130    73    61   am
   131    82    81    1
   132   184   185    1
   133    61    60    1
   134    86    87    1
   135    59    57   am
   136    59    60    1
   137    44    45    1
   138    44    47    1
   139    57    58    2
   140   185   188    1
   141   185   186    1
   142    45    46    2
   143    52    50   ar
   144    52    53   ar
   145    50    48   ar
   146   188   190    1
   147    60    63    1
   148   178   179    1
   149   178   181    1
   150    69    71   ar
   151    69    66   ar
   152    71    72   ar
   153    54    53    1
   154    47    48    1
   155    53    51   ar
   156    48    49   ar
   157   179   180    2
   158    63    64    1
   159   186   187    2
   160   183   181    1
   161    72    70   ar
   162    49    51   ar
   163    66    64   ar
   164    66    68   ar
   165   181   182    1
   166    64    65   ar
   167    70    68   ar
   168    68    67   ar
   169    65    67   ar
   170     7     9   ar
   171     7     6   ar
   172     9    10   ar
   173     6     5    1
   174     6     8   ar
   175    10    12   ar
   176    10     8   ar
   177     1     2    1
   178     5     2    1
   179    12    14   ar
   180     8    11   ar
   181     2     3    1
   182    14    13   ar
   183    11    13   ar
   184     3     4    2
