@<TRIPOS>MOLECULE
tmp/6igzB49.pdb
 140 140 0 0 0
SMALL
GASTEIGER

@<TRIPOS>ATOM
      1  N        144.5880  217.6530  217.3970 N.3    46  PHE46      -0.1241
      2  CA       143.8910  218.9170  217.2080 C.3    46  PHE46       0.1605
      3  C        143.3450  219.4650  218.5140 C.2    46  PHE46       0.2264
      4  O        143.1930  220.6800  218.6580 O.2    46  PHE46      -0.2867
      5  CB       142.7850  218.7370  216.1830 C.3    46  PHE46       0.0534
      6  CG       141.9090  219.9230  216.0300 C.ar   46  PHE46      -0.0203
      7  CD1      142.3720  221.0620  215.4250 C.ar   46  PHE46      -0.0042
      8  CD2      140.5980  219.8780  216.4370 C.ar   46  PHE46      -0.0042
      9  CE1      141.5580  222.1520  215.2730 C.ar   46  PHE46      -0.0003
     10  CE2      139.7820  220.9620  216.2740 C.ar   46  PHE46      -0.0003
     11  CZ       140.2660  222.0980  215.6890 C.ar   46  PHE46      -0.0000
     12  N        144.9240  223.2420  220.8250 N.3    50  PHE50      -0.1241
     13  CA       144.2180  224.1320  221.7320 C.3    50  PHE50       0.1605
     14  C        144.9310  224.2480  223.0660 C.2    50  PHE50       0.2264
     15  O        144.8760  225.3020  223.7060 O.2    50  PHE50      -0.2867
     16  CB       142.7960  223.6360  221.9120 C.3    50  PHE50       0.0534
     17  CG       141.9360  223.8890  220.7320 C.ar   50  PHE50      -0.0203
     18  CD1      142.1460  224.9960  219.9520 C.ar   50  PHE50      -0.0042
     19  CD2      140.9620  222.9970  220.3640 C.ar   50  PHE50      -0.0042
     20  CE1      141.3630  225.2390  218.8700 C.ar   50  PHE50      -0.0003
     21  CE2      140.1850  223.2320  219.2690 C.ar   50  PHE50      -0.0003
     22  CZ       140.3870  224.3520  218.5220 C.ar   50  PHE50      -0.0000
     23  N        148.0530  226.3840  222.2590 N.3    53  LEU53      -0.1245
     24  CA       147.6260  227.7180  221.8730 C.3    53  LEU53       0.1561
     25  C        147.0630  228.4800  223.0560 C.2    53  LEU53       0.2260
     26  O        147.1890  229.7040  223.1200 O.2    53  LEU53      -0.2867
     27  CB       146.6020  227.6140  220.7510 C.3    53  LEU53       0.0270
     28  CG       146.0230  228.8710  220.1360 C.3    53  LEU53       0.0019
     29  CD1      147.1390  229.6740  219.5530 C.3    53  LEU53       0.0001
     30  CD2      145.0650  228.4720  219.0470 C.3    53  LEU53       0.0001
     31  N        138.7280  230.9420  225.5730 N.3   147  LEU147     -0.1231
     32  CA       137.8810  230.5110  224.4710 C.3   147  LEU147      0.1693
     33  C        138.3850  229.2160  223.8560 C.2   147  LEU147      0.2592
     34  O        137.5880  228.4170  223.3530 O.2   147  LEU147     -0.2718
     35  CB       137.8020  231.6050  223.4130 C.3   147  LEU147      0.0284
     36  CG       137.2550  232.9280  223.9480 C.3   147  LEU147      0.0019
     37  CD1      137.2410  233.9830  222.8570 C.3   147  LEU147      0.0001
     38  CD2      135.8800  232.7600  224.5700 C.3   147  LEU147      0.0001
     39  N        139.6940  228.9850  223.8880 N.am  148  PHE148     -0.1976
     40  CA       140.2180  227.7520  223.3210 C.3   148  PHE148      0.1639
     41  C        140.0020  226.5830  224.2600 C.2   148  PHE148      0.2290
     42  O        139.5660  225.5120  223.8320 O.2   148  PHE148     -0.2864
     43  CB       141.6890  227.9210  222.9810 C.3   148  PHE148      0.0560
     44  CG       141.9210  228.9550  221.9460 C.ar  148  PHE148     -0.0200
     45  CD1      141.7220  228.6610  220.6150 C.ar  148  PHE148     -0.0042
     46  CD2      142.2960  230.2330  222.3000 C.ar  148  PHE148     -0.0042
     47  CE1      141.9080  229.6140  219.6560 C.ar  148  PHE148     -0.0003
     48  CE2      142.4880  231.1910  221.3430 C.ar  148  PHE148     -0.0003
     49  CZ       142.2960  230.8810  220.0180 C.ar  148  PHE148     -0.0000
     50  N        137.6480  226.2950  226.1830 N.3   150  ILE150     -0.1231
     51  CA       136.2820  225.9580  225.8040 C.3   150  ILE150      0.1692
     52  C        136.2940  225.1580  224.5130 C.2   150  ILE150      0.2591
     53  O        135.7900  224.0320  224.4510 O.2   150  ILE150     -0.2718
     54  CB       135.4300  227.2260  225.6520 C.3   150  ILE150      0.0266
     55  CG1      135.2330  227.9230  226.9940 C.3   150  ILE150      0.0019
     56  CG2      134.1010  226.8780  225.0360 C.3   150  ILE150      0.0020
     57  CD1      134.6090  229.3000  226.8760 C.3   150  ILE150      0.0001
     58  N        136.8850  225.7320  223.4640 N.am  151  ALA151     -0.1980
     59  CA       136.9230  225.0640  222.1690 C.3   151  ALA151      0.1597
     60  C        137.5700  223.6940  222.2840 C.2   151  ALA151      0.2287
     61  O        137.0920  222.7170  221.6990 O.2   151  ALA151     -0.2864
     62  CB       137.6680  225.9300  221.1570 C.3   151  ALA151      0.0319
     63  N        135.2700  221.6120  223.6120 N.3   154  LEU154     -0.1231
     64  CA       134.0590  221.6100  222.8120 C.3   154  LEU154      0.1693
     65  C        134.1500  220.6770  221.6150 C.2   154  LEU154      0.2592
     66  O        133.1340  220.1050  221.2160 O.2   154  LEU154     -0.2718
     67  CB       133.7430  223.0330  222.3730 C.3   154  LEU154      0.0284
     68  CG       132.4240  223.2780  221.6680 C.3   154  LEU154      0.0019
     69  CD1      131.8730  224.6010  222.1150 C.3   154  LEU154      0.0001
     70  CD2      132.6640  223.3130  220.1910 C.3   154  LEU154      0.0001
     71  N        135.3290  220.5070  221.0330 N.am  155  HIS155     -0.1976
     72  CA       135.4720  219.6770  219.8460 C.3   155  HIS155      0.1656
     73  C        135.7950  218.2220  220.1320 C.2   155  HIS155      0.2291
     74  O        136.1060  217.4860  219.1930 O.2   155  HIS155     -0.2864
     75  CB       136.5350  220.2380  218.9090 C.3   155  HIS155      0.0771
     76  CG       136.1010  221.4550  218.1620 C.ar  155  HIS155      0.0820
     77  ND1      135.1490  221.4140  217.1700 N.ar  155  HIS155     -0.2267
     78  CD2      136.5050  222.7410  218.2430 C.ar  155  HIS155      0.1154
     79  CE1      134.9790  222.6260  216.6760 C.ar  155  HIS155      0.1986
     80  NE2      135.7880  223.4500  217.3130 N.ar  155  HIS155     -0.2212
     81  N        129.2470  214.9990  218.8830 N.3   159  LYS159     -0.1231
     82  CA       128.5110  215.8320  217.9460 C.3   159  LYS159      0.1693
     83  C        129.4320  216.7750  217.1840 C.2   159  LYS159      0.2592
     84  O        129.4120  216.8100  215.9480 O.2   159  LYS159     -0.2718
     85  CB       127.4210  216.6030  218.6790 C.3   159  LYS159      0.0285
     86  CG       126.3680  215.6980  219.2730 C.3   159  LYS159      0.0035
     87  CD       125.7960  214.8220  218.1840 C.3   159  LYS159      0.0206
     88  CE       124.9790  215.6440  217.2030 C.3   159  LYS159      0.1093
     89  NZ       124.3200  214.7940  216.1780 N.3   159  LYS159     -0.1314
     90  N        130.2510  217.5450  217.8910 N.am  160  PHE160     -0.1962
     91  CA       131.1320  218.5030  217.2370 C.3   160  PHE160      0.1771
     92  C        132.4910  217.9260  216.8840 C.2   160  PHE160      0.2619
     93  O        133.3560  218.6610  216.4050 O.2   160  PHE160     -0.2715
     94  CB       131.3030  219.7470  218.0980 C.3   160  PHE160      0.0574
     95  CG       130.0790  220.5850  218.1800 C.ar  160  PHE160     -0.0200
     96  CD1      129.0340  220.3870  217.3050 C.ar  160  PHE160     -0.0042
     97  CD2      129.9880  221.5990  219.0950 C.ar  160  PHE160     -0.0042
     98  CE1      127.9040  221.1730  217.3660 C.ar  160  PHE160     -0.0003
     99  CE2      128.8700  222.3890  219.1590 C.ar  160  PHE160     -0.0003
    100  CZ       127.8250  222.1790  218.2950 C.ar  160  PHE160     -0.0000
    101  N        132.6960  216.6450  217.1120 N.am  161  GLN161     -0.1964
    102  CA       133.9490  216.0020  216.7560 C.3   161  GLN161      0.1718
    103  C        134.0880  215.9520  215.2420 C.2   161  GLN161      0.2458
    104  O        133.2730  215.3010  214.5780 O.2   161  GLN161     -0.2730
    105  CB       133.9840  214.6040  217.3430 C.3   161  GLN161      0.0407
    106  CG       135.3060  213.9310  217.2360 C.3   161  GLN161      0.0908
    107  CD       135.3400  212.6340  217.9980 C.2   161  GLN161      0.2608
    108  OE1      134.3680  212.2710  218.6550 O.2   161  GLN161     -0.2717
    109  NE2      136.4630  211.9260  217.9220 N.am  161  GLN161     -0.0878
    110  N        135.0860  216.6050  214.6570 N.am  162  PRO162     -0.2727
    111  CA       135.1720  216.6650  213.1970 C.3   162  PRO162      0.1402
    112  C        135.6120  215.3450  212.5910 C.2   162  PRO162      0.2269
    113  O        136.3940  214.5930  213.1730 O.2   162  PRO162     -0.2865
    114  CB       136.2170  217.7540  212.9550 C.3   162  PRO162      0.0296
    115  CG       137.0620  217.6990  214.1530 C.3   162  PRO162      0.0237
    116  CD       136.1550  217.3820  215.2970 C.3   162  PRO162      0.0939
    117  N        138.0110  215.8200  207.1650 N.3   166  TRP166     -0.1241
    118  CA       138.1050  217.2460  207.4240 C.3   166  TRP166      0.1605
    119  C        139.5420  217.6440  207.7130 C.2   166  TRP166      0.2264
    120  O        139.9890  218.7180  207.3050 O.2   166  TRP166     -0.2867
    121  CB       137.2040  217.6290  208.5860 C.3   166  TRP166      0.0550
    122  CG       137.2270  219.0640  208.8590 C.ar  166  TRP166      0.0003
    123  CD1      136.4150  220.0020  208.3270 C.ar  166  TRP166      0.0946
    124  CD2      138.1200  219.7480  209.7290 C.ar  166  TRP166      0.0152
    125  NE1      136.7400  221.2380  208.8140 N.ar  166  TRP166     -0.2442
    126  CE2      137.7880  221.1050  209.6800 C.ar  166  TRP166      0.0810
    127  CE3      139.1690  219.3430  210.5490 C.ar  166  TRP166      0.0012
    128  CZ2      138.4610  222.0580  210.4170 C.ar  166  TRP166      0.0191
    129  CZ3      139.8350  220.2890  211.2780 C.ar  166  TRP166      0.0001
    130  CH2      139.4800  221.6310  211.2090 C.ar  166  TRP166      0.0015
    131  N        144.5820  229.7060  205.6590 N.3   177  HIS177     -0.1241
    132  CA       145.7200  230.1760  206.4360 C.3   177  HIS177      0.1621
    133  C        146.5050  231.2520  205.6940 C.2   177  HIS177      0.2264
    134  O        147.0220  232.1890  206.3100 O.2   177  HIS177     -0.2867
    135  CB       146.6210  229.0090  206.8030 C.3   177  HIS177      0.0745
    136  CG       145.9770  228.0160  207.7090 C.ar  177  HIS177      0.0817
    137  ND1      145.6780  228.2980  209.0210 N.ar  177  HIS177     -0.2268
    138  CD2      145.5950  226.7360  207.5040 C.ar  177  HIS177      0.1154
    139  CE1      145.1330  227.2380  209.5840 C.ar  177  HIS177      0.1986
    140  NE2      145.0630  226.2770  208.6830 N.ar  177  HIS177     -0.2212
@<TRIPOS>BOND
     1   131   132    1
     2   133   134    2
     3   133   132    1
     4   132   135    1
     5   135   136    1
     6   117   118    1
     7   120   119    2
     8   118   119    1
     9   118   121    1
    10   138   136   ar
    11   138   140   ar
    12   136   137   ar
    13   123   125   ar
    14   123   122   ar
    15   121   122    1
    16   140   139   ar
    17   125   126   ar
    18   122   124   ar
    19   137   139   ar
    20   126   124   ar
    21   126   128   ar
    22   124   127   ar
    23   128   130   ar
    24   127   129   ar
    25   130   129   ar
    26   112   113    2
    27   112   111    1
    28   114   111    1
    29   114   115    1
    30   111   110    1
    31   115   116    1
    32   104   103    2
    33   110   103   am
    34   110   116    1
    35   103   102    1
    36     9     7   ar
    37     9    11   ar
    38     7     6   ar
    39    11    10   ar
    40    84    83    2
    41     6     5    1
    42     6     8   ar
    43    89    88    1
    44     5     2    1
    45    10     8   ar
    46    93    92    2
    47    79    77   ar
    48    79    80   ar
    49   102   101    1
    50   102   105    1
    51    92   101   am
    52    92    91    1
    53    77    76   ar
    54    83    90   am
    55    83    82    1
    56    88    87    1
    57     2     1    1
    58     2     3    1
    59   106   105    1
    60   106   107    1
    61    91    90    1
    62    91    94    1
    63    96    98   ar
    64    96    95   ar
    65    80    78   ar
    66    98   100   ar
    67   109   107   am
    68    82    85    1
    69    82    81    1
    70   107   108    2
    71    94    95    1
    72    76    78   ar
    73    76    75    1
    74    95    97   ar
    75    87    86    1
    76   100    99   ar
    77     3     4    2
    78    22    20   ar
    79    22    21   ar
    80    85    86    1
    81    20    18   ar
    82    75    72    1
    83    30    28    1
    84    97    99   ar
    85    74    73    2
    86    21    19   ar
    87    29    28    1
    88    47    49   ar
    89    47    45   ar
    90    72    73    1
    91    72    71    1
    92    18    17   ar
    93    49    48   ar
    94    28    27    1
    95    70    68    1
    96    19    17   ar
    97    45    44   ar
    98    17    16    1
    99    27    24    1
   100    12    13    1
   101    71    65   am
   102    62    59    1
   103    66    65    2
   104    48    46   ar
   105    65    64    1
   106    68    69    1
   107    68    67    1
   108    61    60    2
   109    13    16    1
   110    13    14    1
   111    24    23    1
   112    24    25    1
   113    44    46   ar
   114    44    43    1
   115    59    60    1
   116    59    58    1
   117    67    64    1
   118    64    63    1
   119    37    36    1
   120    43    40    1
   121    25    26    2
   122    14    15    2
   123    40    39    1
   124    40    41    1
   125    34    33    2
   126    35    36    1
   127    35    32    1
   128    58    52   am
   129    42    41    2
   130    33    39   am
   131    33    32    1
   132    36    38    1
   133    53    52    2
   134    32    31    1
   135    52    51    1
   136    56    54    1
   137    54    51    1
   138    54    55    1
   139    51    50    1
   140    57    55    1
