@<TRIPOS>MOLECULE
tmp/6igzR15.pdb
 126 119 0 0 0
SMALL
GASTEIGER

@<TRIPOS>ATOM
      1  N        183.6060  219.9720  140.0890 N.3    39  ARG39      -0.1245
      2  CA       183.4480  221.3930  140.3660 C.3    39  ARG39       0.1563
      3  C        184.5830  222.2120  139.7750 C.2    39  ARG39       0.2260
      4  O        184.3470  223.2320  139.1230 O.2    39  ARG39      -0.2867
      5  CB       183.3590  221.6530  141.8650 C.3    39  ARG39       0.0307
      6  CG       183.2930  223.1340  142.1520 C.3    39  ARG39       0.0489
      7  CD       183.1100  223.4620  143.6080 C.3    39  ARG39       0.2205
      8  NE       183.0360  224.9080  143.7920 N.pl3  39  ARG39      -0.0865
      9  CZ       182.6460  225.5030  144.9130 C.cat  39  ARG39       0.5346
     10  NH1      182.2820  224.7730  145.9580 N.pl3  39  ARG39       0.1354
     11  NH2      182.6100  226.8260  144.9860 N.pl3  39  ARG39       0.1354
     12  N        184.6270  223.8040  136.1840 N.3    42  GLU42      -0.1231
     13  CA       183.9550  225.0610  135.8870 C.3    42  GLU42       0.1699
     14  C        184.6200  226.2320  136.5860 C.2    42  GLU42       0.2592
     15  O        184.7560  227.3050  135.9910 O.2    42  GLU42      -0.2718
     16  CB       182.4770  224.9850  136.2550 C.3    42  GLU42       0.0402
     17  CG       182.1960  224.7170  137.7040 C.3    42  GLU42       0.1161
     18  CD       180.7270  224.5090  137.9720 C.2    42  GLU42       0.3649
     19  OE1      179.9020  224.9600  137.1530 O.co2  42  GLU42      -0.2457
     20  OE2      180.3930  223.8680  138.9880 O.co2  42  GLU42      -0.2457
     21  N        185.0420  226.0540  137.8380 N.am   43  CYS43      -0.1970
     22  CA       185.6390  227.1650  138.5670 C.3    43  CYS43       0.1712
     23  C        186.7590  227.7990  137.7660 C.2    43  CYS43       0.2296
     24  O        186.9320  229.0220  137.7900 O.2    43  CYS43      -0.2864
     25  CB       186.1520  226.6980  139.9240 C.3    43  CYS43       0.0983
     26  SG       184.8610  226.1650  141.0610 S.3    43  CYS43      -0.0798
     27  N        185.2490  229.7870  134.4370 N.3    46  MET46      -0.1230
     28  CA       184.5340  231.0030  134.7870 C.3    46  MET46       0.1702
     29  C        185.4570  232.0440  135.3990 C.2    46  MET46       0.2592
     30  O        185.2040  233.2410  135.2570 O.2    46  MET46      -0.2718
     31  CB       183.3780  230.6700  135.7220 C.3    46  MET46       0.0401
     32  CG       182.3460  229.8260  135.0330 C.3    46  MET46       0.0596
     33  SD       181.0070  229.2560  136.0670 S.3    46  MET46      -0.1393
     34  CE       180.1280  228.2730  134.8610 C.3    46  MET46       0.0692
     35  N        186.5260  231.6220  136.0700 N.am   47  ASN47      -0.1974
     36  CA       187.5190  232.5900  136.5170 C.3    47  ASN47       0.1688
     37  C        188.2050  233.2460  135.3300 C.2    47  ASN47       0.2292
     38  O        188.3030  234.4760  135.2560 O.2    47  ASN47      -0.2864
     39  CB       188.5460  231.9230  137.4280 C.3    47  ASN47       0.1181
     40  CG       188.0190  231.6870  138.8180 C.2    47  ASN47       0.2629
     41  OD1      187.0940  232.3570  139.2600 O.2    47  ASN47      -0.2716
     42  ND2      188.6180  230.7440  139.5250 N.am   47  ASN47      -0.0877
     43  N        186.4890  236.1260  133.2360 N.3    50  TRP50      -0.1241
     44  CA       186.5660  237.4150  133.9030 C.3    50  TRP50       0.1605
     45  C        187.9900  237.8900  134.0930 C.2    50  TRP50       0.2264
     46  O        188.1950  239.0540  134.4400 O.2    50  TRP50      -0.2867
     47  CB       185.8060  237.3250  135.2100 C.3    50  TRP50       0.0550
     48  CG       184.3930  237.5140  134.9330 C.ar   50  TRP50       0.0003
     49  CD1      183.8600  238.3510  134.0100 C.ar   50  TRP50       0.0946
     50  CD2      183.3240  236.7070  135.3980 C.ar   50  TRP50       0.0152
     51  NE1      182.5030  238.2080  133.9640 N.ar   50  TRP50      -0.2442
     52  CE2      182.1540  237.1890  134.8040 C.ar   50  TRP50       0.0810
     53  CE3      183.2330  235.6570  136.2970 C.ar   50  TRP50       0.0012
     54  CZ2      180.9170  236.6520  135.0710 C.ar   50  TRP50       0.0191
     55  CZ3      181.9990  235.1290  136.5670 C.ar   50  TRP50       0.0001
     56  CH2      180.8590  235.6230  135.9560 C.ar   50  TRP50       0.0015
     57  N        175.5300  246.6650  139.7430 N.3   101  GLU101     -0.1231
     58  CA       176.4800  245.5810  139.5540 C.3   101  GLU101      0.1699
     59  C        176.3260  244.4850  140.5910 C.2   101  GLU101      0.2592
     60  O        176.8020  243.3720  140.3630 O.2   101  GLU101     -0.2718
     61  CB       177.8980  246.1470  139.5640 C.3   101  GLU101      0.0402
     62  CG       178.1940  246.9600  140.8010 C.3   101  GLU101      0.1161
     63  CD       179.5080  247.6960  140.7210 C.2   101  GLU101      0.3649
     64  OE1      180.3500  247.3060  139.9000 O.co2 101  GLU101     -0.2457
     65  OE2      179.6960  248.6740  141.4730 O.co2 101  GLU101     -0.2457
     66  N        175.7060  244.7730  141.7340 N.am  102  LEU102     -0.1980
     67  CA       175.4370  243.6980  142.6800 C.3   102  LEU102      0.1596
     68  C        174.1750  242.9290  142.3020 C.2   102  LEU102      0.2287
     69  O        174.1770  241.6950  142.2660 O.2   102  LEU102     -0.2864
     70  CB       175.3290  244.2560  144.0990 C.3   102  LEU102      0.0297
     71  CG       175.3520  243.2260  145.2290 C.3   102  LEU102      0.0022
     72  CD1      176.0230  243.8130  146.4560 C.3   102  LEU102      0.0001
     73  CD2      173.9590  242.7370  145.5780 C.3   102  LEU102      0.0001
     74  N        173.9940  241.4400  138.6290 N.3   105  MET105     -0.1230
     75  CA       174.8990  240.3150  138.5070 C.3   105  MET105      0.1702
     76  C        174.4150  239.1210  139.3130 C.2   105  MET105      0.2592
     77  O        174.6330  237.9770  138.9060 O.2   105  MET105     -0.2718
     78  CB       176.2960  240.7220  138.9490 C.3   105  MET105      0.0401
     79  CG       177.3020  239.6940  138.6030 C.3   105  MET105      0.0596
     80  SD       177.3860  239.6380  136.8110 S.3   105  MET105     -0.1393
     81  CE       178.5360  238.3050  136.6080 C.3   105  MET105      0.0692
     82  N        173.7580  239.3680  140.4470 N.am  106  GLY106     -0.1957
     83  CA       173.2900  238.2690  141.2720 C.3   106  GLY106      0.1869
     84  C        172.3670  237.3350  140.5170 C.2   106  GLY106      0.2309
     85  O        172.6160  236.1310  140.4320 O.2   106  GLY106     -0.2863
     86  N        174.0660  235.4720  137.6990 N.3   109  GLU109     -0.1231
     87  CA       174.6610  234.2730  138.2710 C.3   109  GLU109      0.1699
     88  C        173.5860  233.3110  138.7470 C.2   109  GLU109      0.2592
     89  O        173.6590  232.1080  138.4750 O.2   109  GLU109     -0.2718
     90  CB       175.5990  234.6460  139.4160 C.3   109  GLU109      0.0402
     91  CG       176.8390  235.3700  138.9520 C.3   109  GLU109      0.1161
     92  CD       177.6890  234.5200  138.0360 C.2   109  GLU109      0.3649
     93  OE1      177.9010  233.3330  138.3500 O.co2 109  GLU109     -0.2457
     94  OE2      178.1180  235.0260  136.9840 O.co2 109  GLU109     -0.2457
     95  N        172.5660  233.8280  139.4380 N.am  110  ALA110     -0.1980
     96  CA       171.5610  232.9550  140.0340 C.3   110  ALA110      0.1597
     97  C        170.8130  232.1550  138.9790 C.2   110  ALA110      0.2287
     98  O        170.3890  231.0260  139.2460 O.2   110  ALA110     -0.2864
     99  CB       170.5840  233.7690  140.8760 C.3   110  ALA110      0.0319
    100  N        172.2500  230.9960  136.3200 N.3   112  ARG112     -0.1231
    101  CA       173.2110  229.9260  136.1170 C.3   112  ARG112      0.1694
    102  C        173.4220  229.0960  137.3700 C.2   112  ARG112      0.2591
    103  O        173.8470  227.9420  137.2690 O.2   112  ARG112     -0.2718
    104  CB       174.5500  230.5110  135.6700 C.3   112  ARG112      0.0321
    105  CG       175.6080  229.4720  135.4070 C.3   112  ARG112      0.0489
    106  CD       176.9350  230.0920  135.0620 C.3   112  ARG112      0.2205
    107  NE       177.4750  230.8610  136.1740 N.pl3 112  ARG112     -0.0865
    108  CZ       178.0850  230.3180  137.2200 C.cat 112  ARG112      0.5346
    109  NH1      178.2070  229.0030  137.3010 N.pl3 112  ARG112      0.1354
    110  NH2      178.5590  231.0860  138.1900 N.pl3 112  ARG112      0.1354
    111  N        173.1100  229.6510  138.5420 N.am  113  ALA113     -0.1980
    112  CA       173.4710  229.0200  139.8060 C.3   113  ALA113      0.1597
    113  C        172.9910  227.5760  139.8800 C.2   113  ALA113      0.2287
    114  O        173.7770  226.6580  140.1370 O.2   113  ALA113     -0.2864
    115  CB       172.9030  229.8300  140.9700 C.3   113  ALA113      0.0319
    116  N        175.6230  223.7710  132.3060 N.3   121  ARG121     -0.1245
    117  CA       175.7510  225.0910  132.9130 C.3   121  ARG121      0.1563
    118  C        176.9280  225.8640  132.3370 C.2   121  ARG121      0.2260
    119  O        176.7960  227.0460  132.0040 O.2   121  ARG121     -0.2867
    120  CB       175.8770  224.9510  134.4260 C.3   121  ARG121      0.0307
    121  CG       177.0520  224.1280  134.8820 C.3   121  ARG121      0.0489
    122  CD       176.9920  223.8630  136.3630 C.3   121  ARG121      0.2205
    123  NE       177.0920  225.0740  137.1570 N.pl3 121  ARG121     -0.0865
    124  CZ       176.9560  225.0930  138.4760 C.cat 121  ARG121      0.5346
    125  NH1      177.0590  226.2360  139.1410 N.pl3 121  ARG121      0.1354
    126  NH2      176.7090  223.9660  139.1270 N.pl3 121  ARG121      0.1354
@<TRIPOS>BOND
     1   119   118    2
     2   116   117    1
     3   118   117    1
     4   117   120    1
     5    43    44    1
     6    44    45    1
     7    44    47    1
     8    51    49   ar
     9    51    52   ar
    10    49    48   ar
    11    45    46    2
    12   120   121    1
    13    27    28    1
    14    28    29    1
    15    28    31    1
    16    52    54   ar
    17    52    50   ar
    18    34    33    1
    19   121   122    1
    20    48    47    1
    21    48    50   ar
    22    32    31    1
    23    32    33    1
    24   106   105    1
    25   106   107    1
    26    54    56   ar
    27    38    37    2
    28    30    29    2
    29    37    36    1
    30    50    53   ar
    31    29    35   am
    32   105   104    1
    33   104   101    1
    34    13    12    1
    35    13    16    1
    36    13    14    1
    37    56    55   ar
    38    15    14    2
    39    35    36    1
    40   101   100    1
    41   101   102    1
    42   107   108    2
    43    16    17    1
    44    53    55   ar
    45   122   123    1
    46    36    39    1
    47    14    21   am
    48    81    80    1
    49    80    79    1
    50    94    92   ar
    51    19    18   ar
    52   123   124    2
    53   108   109    1
    54   108   110    1
    55   103   102    2
    56   102   111   am
    57    39    40    1
    58    86    87    1
    59    17    18    1
    60    23    24    2
    61    23    22    1
    62    21    22    1
    63    18    20   ar
    64    92    93   ar
    65    92    91    1
    66    87    88    1
    67    87    90    1
    68    89    88    2
    69   124   126    1
    70   124   125    1
    71    75    74    1
    72    75    78    1
    73    75    76    1
    74   111   112    1
    75    22    25    1
    76    79    78    1
    77    88    95   am
    78    40    41    2
    79    40    42   am
    80    77    76    2
    81    91    90    1
    82    97    98    2
    83    97    96    1
    84     4     3    2
    85    76    82   am
    86    95    96    1
    87    58    61    1
    88    58    57    1
    89    58    59    1
    90    61    62    1
    91     3     2    1
    92   112   113    1
    93   112   115    1
    94   113   114    2
    95    64    63   ar
    96    25    26    1
    97    96    99    1
    98     1     2    1
    99    60    59    2
   100     2     5    1
   101    85    84    2
   102    82    83    1
   103    84    83    1
   104    59    66   am
   105    63    62    1
   106    63    65   ar
   107    66    67    1
   108     5     6    1
   109     6     7    1
   110    69    68    2
   111    68    67    1
   112    67    70    1
   113     7     8    1
   114     8     9    2
   115    70    71    1
   116     9    11    1
   117     9    10    1
   118    71    73    1
   119    71    72    1
