@<TRIPOS>MOLECULE
tmp/6igzK07.pdb
 125 122 0 0 0
SMALL
GASTEIGER

@<TRIPOS>ATOM
      1  N        229.5180  184.3450  274.4300 N.3    16  LEU16      -0.1231
      2  CA       228.4220  183.8780  275.2680 C.3    16  LEU16       0.1693
      3  C        227.2340  183.3910  274.4550 C.2    16  LEU16       0.2592
      4  O        226.5560  182.4450  274.8710 O.2    16  LEU16      -0.2718
      5  CB       227.9970  184.9920  276.2180 C.3    16  LEU16       0.0284
      6  CG       226.7860  184.7920  277.1190 C.3    16  LEU16       0.0019
      7  CD1      227.0310  185.3720  278.4960 C.3    16  LEU16       0.0001
      8  CD2      225.6340  185.5260  276.4710 C.3    16  LEU16       0.0001
      9  N        226.9540  184.0230  273.3140 N.am   17  CYS17      -0.1970
     10  CA       225.8490  183.5730  272.4740 C.3    17  CYS17       0.1712
     11  C        226.0830  182.1530  271.9850 C.2    17  CYS17       0.2296
     12  O        225.2830  181.2490  272.2480 O.2    17  CYS17      -0.2864
     13  CB       225.6570  184.5230  271.2950 C.3    17  CYS17       0.0983
     14  SG       225.0000  186.1300  271.7530 S.3    17  CYS17      -0.0798
     15  N        228.2630  180.1790  273.0670 N.3    19  ALA19      -0.1231
     16  CA       228.7630  179.3430  274.1480 C.3    19  ALA19       0.1694
     17  C        227.8870  178.1170  274.2860 C.2    19  ALA19       0.2591
     18  O        228.3040  177.0030  273.9620 O.2    19  ALA19      -0.2718
     19  CB       228.7850  180.1060  275.4690 C.3    19  ALA19       0.0304
     20  N        226.6700  178.3180  274.7590 N.am   20  ALA20      -0.1980
     21  CA       225.7020  177.2400  274.7990 C.3    20  ALA20       0.1597
     22  C        224.8100  177.2210  273.5670 C.2    20  ALA20       0.2287
     23  O        223.8980  176.3960  273.4950 O.2    20  ALA20      -0.2864
     24  CB       224.8640  177.3220  276.0810 C.3    20  ALA20       0.0319
     25  N        224.7110  173.9920  272.7090 N.3    23  PHE23      -0.1227
     26  CA       223.6760  173.0890  273.2020 C.3    23  PHE23       0.1736
     27  C        222.4380  173.8550  273.6510 C.2    23  PHE23       0.2596
     28  O        222.4540  174.5380  274.6760 O.2    23  PHE23      -0.2718
     29  CB       224.2380  172.2230  274.3280 C.3    23  PHE23       0.0547
     30  CG       224.9820  172.9960  275.3920 C.ar   23  PHE23      -0.0202
     31  CD1      226.3380  173.2480  275.2580 C.ar   23  PHE23      -0.0042
     32  CD2      224.3390  173.4520  276.5260 C.ar   23  PHE23      -0.0042
     33  CE1      227.0270  173.9440  276.2220 C.ar   23  PHE23      -0.0003
     34  CE2      225.0250  174.1500  277.4940 C.ar   23  PHE23      -0.0003
     35  CZ       226.3710  174.3970  277.3400 C.ar   23  PHE23      -0.0000
     36  N        221.3640  173.7250  272.8850 N.am   24  GLY24      -0.1942
     37  CA       220.0170  173.9860  273.3480 C.3    24  GLY24       0.2014
     38  C        219.5410  175.3800  273.7070 C.2    24  GLY24       0.2639
     39  O        218.3630  175.5260  274.0380 O.2    24  GLY24      -0.2714
     40  N        220.3780  176.4140  273.6700 N.am   25  LEU25      -0.1963
     41  CA       219.8170  177.7200  274.0070 C.3    25  LEU25       0.1728
     42  C        219.1260  178.3840  272.8210 C.2    25  LEU25       0.2616
     43  O        218.0580  178.9760  272.9860 O.2    25  LEU25      -0.2715
     44  CB       220.8750  178.6520  274.6050 C.3    25  LEU25       0.0311
     45  CG       222.2040  179.0760  273.9800 C.3    25  LEU25       0.0022
     46  CD1      222.0680  180.0020  272.8220 C.3    25  LEU25       0.0001
     47  CD2      222.9640  179.8180  275.0350 C.3    25  LEU25       0.0001
     48  N        219.6960  178.3120  271.6270 N.am   26  ALA26      -0.1964
     49  CA       219.0900  179.0840  270.5510 C.3    26  ALA26       0.1713
     50  C        218.7950  178.1990  269.3470 C.2    26  ALA26       0.2458
     51  O        219.1040  177.0040  269.3710 O.2    26  ALA26      -0.2730
     52  CB       220.0040  180.2410  270.1520 C.3    26  ALA26       0.0333
     53  N        218.1780  178.7320  268.2950 N.am   27  PRO27      -0.2727
     54  CA       218.0660  177.9640  267.0550 C.3    27  PRO27       0.1402
     55  C        219.4110  177.8000  266.3770 C.2    27  PRO27       0.2269
     56  O        220.2430  178.7080  266.3650 O.2    27  PRO27      -0.2865
     57  CB       217.1190  178.8070  266.2020 C.3    27  PRO27       0.0296
     58  CG       216.3070  179.5300  267.1800 C.3    27  PRO27       0.0237
     59  CD       217.2250  179.8540  268.3120 C.3    27  PRO27       0.0939
     60  N        215.3980  173.6820  264.5720 N.3    32  PHE32      -0.1227
     61  CA       214.7550  174.9240  264.1950 C.3    32  PHE32       0.1736
     62  C        213.5500  175.1850  265.0790 C.2    32  PHE32       0.2595
     63  O        212.9610  174.2660  265.6500 O.2    32  PHE32      -0.2718
     64  CB       214.3280  174.9300  262.7250 C.3    32  PHE32       0.0547
     65  CG       213.2830  173.9140  262.3750 C.ar   32  PHE32      -0.0202
     66  CD1      211.9420  174.1860  262.5640 C.ar   32  PHE32      -0.0042
     67  CD2      213.6350  172.7200  261.7880 C.ar   32  PHE32      -0.0042
     68  CE1      210.9800  173.2700  262.2240 C.ar   32  PHE32      -0.0003
     69  CE2      212.6740  171.8090  261.4350 C.ar   32  PHE32      -0.0003
     70  CZ       211.3440  172.0800  261.6600 C.ar   32  PHE32      -0.0000
     71  N        213.1930  176.4560  265.1760 N.am   33  ALA33      -0.1966
     72  CA       212.0780  176.8600  266.0100 C.3    33  ALA33       0.1728
     73  C        210.7600  176.3690  265.4400 C.2    33  ALA33       0.2616
     74  O        210.5810  176.2690  264.2250 O.2    33  ALA33      -0.2715
     75  CB       212.0320  178.3720  266.1230 C.3    33  ALA33       0.0334
     76  N        209.8230  176.0890  266.3330 N.am   34  THR34      -0.1951
     77  CA       208.4550  175.8090  265.9440 C.3    34  THR34       0.1897
     78  C        207.6270  177.0560  266.2310 C.2    34  THR34       0.2313
     79  O        208.1160  178.0280  266.8080 O.2    34  THR34      -0.2863
     80  CB       207.9340  174.5880  266.7120 C.3    34  THR34       0.1794
     81  OG1      208.8990  173.5400  266.6210 O.3    34  THR34      -0.2208
     82  CG2      206.6640  174.0520  266.0980 C.3    34  THR34       0.0378
     83  N        206.9480  176.9730  269.8420 N.3    37  LEU37      -0.1231
     84  CA       208.1930  177.2100  270.5610 C.3    37  LEU37       0.1693
     85  C        208.7780  175.9270  271.1580 C.2    37  LEU37       0.2592
     86  O        209.0240  175.8220  272.3590 O.2    37  LEU37      -0.2718
     87  CB       207.9980  178.2760  271.6350 C.3    37  LEU37       0.0284
     88  CG       207.7250  179.6780  271.1030 C.3    37  LEU37       0.0019
     89  CD1      207.5720  180.6560  272.2580 C.3    37  LEU37       0.0001
     90  CD2      208.8240  180.1170  270.1540 C.3    37  LEU37       0.0001
     91  N        208.9870  174.9340  270.2970 N.am   38  ASN38      -0.1960
     92  CA       209.5800  173.6750  270.7330 C.3    38  ASN38       0.1819
     93  C        211.1080  173.6750  270.7720 C.2    38  ASN38       0.2621
     94  O        211.6830  173.1460  271.7280 O.2    38  ASN38      -0.2715
     95  CB       209.1000  172.5280  269.8450 C.3    38  ASN38       0.1195
     96  CG       209.3680  171.1770  270.4630 C.2    38  ASN38       0.2630
     97  OD1      209.3870  171.0370  271.6850 O.2    38  ASN38      -0.2716
     98  ND2      209.5720  170.1700  269.6250 N.am   38  ASN38      -0.0877
     99  N        211.7710  174.2470  269.7610 N.am   39  LEU39      -0.1977
    100  CA       213.2390  174.2660  269.6230 C.3    39  LEU39       0.1596
    101  C        213.8080  172.8710  269.3480 C.2    39  LEU39       0.2287
    102  O        214.9730  172.5800  269.6080 O.2    39  LEU39      -0.2864
    103  CB       213.9090  174.9110  270.8500 C.3    39  LEU39       0.0297
    104  CG       215.4070  175.2750  270.9120 C.3    39  LEU39       0.0022
    105  CD1      215.6350  176.5890  271.6180 C.3    39  LEU39       0.0001
    106  CD2      216.2040  174.2270  271.6570 C.3    39  LEU39       0.0001
    107  N        225.4450  182.8460  265.1990 N.3    62  LEU62      -0.1245
    108  CA       225.4130  183.2020  266.6100 C.3    62  LEU62       0.1561
    109  C        226.3830  184.3290  266.9160 C.2    62  LEU62       0.2260
    110  O        226.0540  185.2510  267.6690 O.2    62  LEU62      -0.2867
    111  CB       225.7220  181.9740  267.4560 C.3    62  LEU62       0.0270
    112  CG       224.6720  180.8820  267.2850 C.3    62  LEU62       0.0019
    113  CD1      225.1080  179.6210  267.9890 C.3    62  LEU62       0.0001
    114  CD2      223.3330  181.3630  267.8070 C.3    62  LEU62       0.0001
    115  N        224.9610  187.6400  265.3490 N.3    65  PHE65      -0.1241
    116  CA       223.8960  188.0940  266.2270 C.3    65  PHE65       0.1605
    117  C        224.4080  188.4470  267.6110 C.2    65  PHE65       0.2264
    118  O        223.7760  189.2450  268.3060 O.2    65  PHE65      -0.2867
    119  CB       222.8060  187.0330  266.3060 C.3    65  PHE65       0.0534
    120  CG       221.7720  187.2960  267.3550 C.ar   65  PHE65      -0.0203
    121  CD1      220.9150  188.3760  267.2540 C.ar   65  PHE65      -0.0042
    122  CD2      221.6000  186.4120  268.4020 C.ar   65  PHE65      -0.0042
    123  CE1      219.9440  188.6010  268.2110 C.ar   65  PHE65      -0.0003
    124  CE2      220.6250  186.6260  269.3550 C.ar   65  PHE65      -0.0003
    125  CZ       219.7940  187.7190  269.2560 C.ar   65  PHE65      -0.0000
@<TRIPOS>BOND
     1    69    70   ar
     2    69    67   ar
     3    70    68   ar
     4    67    65   ar
     5    68    66   ar
     6    65    66   ar
     7    65    64    1
     8    64    61    1
     9    61    60    1
    10    61    62    1
    11    74    73    2
    12    62    71   am
    13    62    63    2
    14    71    72    1
    15   107   108    1
    16   115   116    1
    17    73    72    1
    18    73    76   am
    19    77    78    1
    20    77    76    1
    21    77    80    1
    22    72    75    1
    23    82    80    1
    24    57    54    1
    25    57    58    1
    26   116   119    1
    27   116   117    1
    28    78    79    2
    29   119   120    1
    30    56    55    2
    31    55    54    1
    32   108   109    1
    33   108   111    1
    34    81    80    1
    35   109   110    2
    36    54    53    1
    37    58    59    1
    38   121   120   ar
    39   121   123   ar
    40   112   111    1
    41   112   114    1
    42   112   113    1
    43   120   122   ar
    44   117   118    2
    45   123   125   ar
    46    53    59    1
    47    53    50   am
    48   122   124   ar
    49   125   124   ar
    50    50    51    2
    51    50    49    1
    52   101   102    2
    53   101   100    1
    54   100    99    1
    55   100   103    1
    56    98    96   am
    57    99    93   am
    58    83    84    1
    59    95    96    1
    60    95    92    1
    61    52    49    1
    62    90    88    1
    63    91    92    1
    64    91    85   am
    65    96    97    2
    66    49    48    1
    67    84    85    1
    68    84    87    1
    69    92    93    1
    70    93    94    2
    71   103   104    1
    72   104   105    1
    73   104   106    1
    74    88    87    1
    75    88    89    1
    76    85    86    2
    77    13    14    1
    78    13    10    1
    79    48    42   am
    80    11    12    2
    81    11    10    1
    82    10     9    1
    83    25    26    1
    84    42    43    2
    85    42    41    1
    86    46    45    1
    87    36    37    1
    88    36    27   am
    89    15    16    1
    90    26    27    1
    91    26    29    1
    92     9     3   am
    93    37    38    1
    94    23    22    2
    95    22    21    1
    96    27    28    2
    97    40    38   am
    98    40    41    1
    99    38    39    2
   100    18    17    2
   101    45    44    1
   102    45    47    1
   103    41    44    1
   104    16    17    1
   105    16    19    1
   106    17    20   am
   107    29    30    1
   108     1     2    1
   109     3     4    2
   110     3     2    1
   111    20    21    1
   112    21    24    1
   113    31    30   ar
   114    31    33   ar
   115     2     5    1
   116    30    32   ar
   117     5     6    1
   118    33    35   ar
   119     8     6    1
   120    32    34   ar
   121     6     7    1
   122    35    34   ar
