@<TRIPOS>MOLECULE
tmp/6igzL07.pdb
 84 80 0 0 0
SMALL
GASTEIGER

@<TRIPOS>ATOM
      1  N        168.3770  193.0910  271.8830 N.3    29  PHE29      -0.1241
      2  CA       168.2150  194.5410  271.8360 C.3    29  PHE29       0.1605
      3  C        167.2720  194.9630  270.7240 C.2    29  PHE29       0.2264
      4  O        166.2490  195.6040  270.9810 O.2    29  PHE29      -0.2867
      5  CB       169.5620  195.2270  271.6550 C.3    29  PHE29       0.0534
      6  CG       169.4570  196.7150  271.5480 C.ar   29  PHE29      -0.0203
      7  CD1      169.2890  197.4880  272.6820 C.ar   29  PHE29      -0.0042
      8  CD2      169.5210  197.3440  270.3200 C.ar   29  PHE29      -0.0042
      9  CE1      169.1890  198.8610  272.5950 C.ar   29  PHE29      -0.0003
     10  CE2      169.4220  198.7190  270.2260 C.ar   29  PHE29      -0.0003
     11  CZ       169.2540  199.4780  271.3650 C.ar   29  PHE29      -0.0000
     12  N        163.8310  194.1850  271.5650 N.3    32  ASN32      -0.1225
     13  CA       163.2220  194.9510  272.6440 C.3    32  ASN32       0.1785
     14  C        162.6120  196.2590  272.1580 C.2    32  ASN32       0.2597
     15  O        161.6790  196.7720  272.7810 O.2    32  ASN32      -0.2718
     16  CB       164.2460  195.2370  273.7430 C.3    32  ASN32       0.1169
     17  CG       164.5290  194.0300  274.6070 C.2    32  ASN32       0.2627
     18  OD1      163.7120  193.1160  274.7060 O.2    32  ASN32      -0.2716
     19  ND2      165.6860  194.0290  275.2560 N.am   32  ASN32      -0.0877
     20  N        163.1330  196.8140  271.0710 N.am   33  LEU33      -0.1966
     21  CA       162.6760  198.0890  270.5320 C.3    33  LEU33       0.1713
     22  C        161.1870  198.0610  270.2270 C.2    33  LEU33       0.2458
     23  O        160.6400  197.0120  269.8670 O.2    33  LEU33      -0.2730
     24  CB       163.4560  198.4440  269.2670 C.3    33  LEU33       0.0310
     25  CG       164.7280  199.2750  269.4020 C.3    33  LEU33       0.0022
     26  CD1      165.7590  198.5940  270.2630 C.3    33  LEU33       0.0001
     27  CD2      165.2900  199.5080  268.0200 C.3    33  LEU33       0.0001
     28  N        160.5050  199.1840  270.3510 N.am   34  PRO34      -0.2727
     29  CA       159.0940  199.2350  269.9590 C.3    34  PRO34       0.1402
     30  C        158.9330  199.1620  268.4550 C.2    34  PRO34       0.2269
     31  O        158.3150  200.0370  267.8420 O.2    34  PRO34      -0.2865
     32  CB       158.6330  200.5860  270.5100 C.3    34  PRO34       0.0296
     33  CG       159.8620  201.3990  270.5270 C.3    34  PRO34       0.0237
     34  CD       160.9620  200.4640  270.9050 C.3    34  PRO34       0.0939
     35  N        158.2570  193.8000  267.9300 N.3    37  ARG37      -0.1245
     36  CA       157.3590  193.0180  268.7700 C.3    37  ARG37       0.1563
     37  C        156.0980  192.6730  267.9930 C.2    37  ARG37       0.2260
     38  O        155.5960  193.5040  267.2330 O.2    37  ARG37      -0.2867
     39  CB       157.0060  193.7960  270.0310 C.3    37  ARG37       0.0307
     40  CG       158.1950  194.1570  270.8700 C.3    37  ARG37       0.0489
     41  CD       157.7700  194.9760  272.0570 C.3    37  ARG37       0.2205
     42  NE       158.9190  195.4780  272.7960 N.pl3  37  ARG37      -0.0865
     43  CZ       158.8380  196.3440  273.7980 C.cat  37  ARG37       0.5346
     44  NH1      157.6610  196.8120  274.1840 N.pl3  37  ARG37       0.1354
     45  NH2      159.9380  196.7500  274.4090 N.pl3  37  ARG37       0.1354
     46  N        150.0970  201.8930  269.3660 N.3    44  LEU44      -0.1245
     47  CA       150.9300  202.1300  270.5350 C.3    44  LEU44       0.1561
     48  C        152.3900  202.3010  270.1440 C.2    44  LEU44       0.2260
     49  O        153.1990  202.8230  270.9160 O.2    44  LEU44      -0.2867
     50  CB       150.7500  200.9820  271.5200 C.3    44  LEU44       0.0270
     51  CG       149.3150  200.9080  272.0320 C.3    44  LEU44       0.0019
     52  CD1      149.1240  199.6730  272.8540 C.3    44  LEU44       0.0001
     53  CD2      148.9880  202.1400  272.8520 C.3    44  LEU44       0.0001
     54  N        152.7370  206.1450  268.7520 N.3    47  VAL47      -0.1231
     55  CA       152.7970  207.0510  269.8860 C.3    47  VAL47       0.1692
     56  C        154.0960  206.8650  270.6550 C.2    47  VAL47       0.2591
     57  O        154.4510  207.7030  271.4870 O.2    47  VAL47      -0.2718
     58  CB       151.5760  206.8400  270.7960 C.3    47  VAL47       0.0266
     59  CG1      151.6540  205.4970  271.4800 C.3    47  VAL47       0.0020
     60  CG2      151.4640  207.9540  271.8030 C.3    47  VAL47       0.0020
     61  N        154.8120  205.7770  270.4000 N.am   48  GLU48      -0.1979
     62  CA       156.1280  205.5500  270.9760 C.3    48  GLU48       0.1602
     63  C        157.1830  206.0820  270.0230 C.2    48  GLU48       0.2287
     64  O        157.9510  206.9840  270.3700 O.2    48  GLU48      -0.2864
     65  CB       156.3420  204.0610  271.2350 C.3    48  GLU48       0.0415
     66  CG       157.6910  203.6910  271.8120 C.3    48  GLU48       0.1163
     67  CD       157.8630  204.0630  273.2640 C.2    48  GLU48       0.3649
     68  OE1      156.8590  204.3930  273.9230 O.co2  48  GLU48      -0.2457
     69  OE2      159.0110  204.0040  273.7520 O.co2  48  GLU48      -0.2457
     70  N        156.8560  209.7000  268.9900 N.3    51  LEU51      -0.1231
     71  CA       157.0900  210.5090  270.1780 C.3    51  LEU51       0.1693
     72  C        158.5670  210.8340  270.3420 C.2    51  LEU51       0.2592
     73  O        158.9280  211.9230  270.7960 O.2    51  LEU51      -0.2718
     74  CB       156.5410  209.7720  271.3960 C.3    51  LEU51       0.0284
     75  CG       156.5870  210.3920  272.7820 C.3    51  LEU51       0.0019
     76  CD1      155.3210  210.0770  273.5430 C.3    51  LEU51       0.0001
     77  CD2      157.7530  209.7760  273.4810 C.3    51  LEU51       0.0001
     78  N        159.4370  209.9030  269.9600 N.am   52  THR52      -0.1953
     79  CA       160.8670  210.1190  270.1320 C.3    52  THR52       0.1897
     80  C        161.4260  211.0090  269.0300 C.2    52  THR52       0.2313
     81  O        162.2330  211.9080  269.2910 O.2    52  THR52      -0.2863
     82  CB       161.5950  208.7800  270.1470 C.3    52  THR52       0.1794
     83  OG1      161.3690  208.1090  268.9050 O.3    52  THR52      -0.2208
     84  CG2      161.0730  207.9150  271.2500 C.3    52  THR52       0.0378
@<TRIPOS>BOND
     1    38    37    2
     2    31    30    2
     3    35    36    1
     4    37    36    1
     5    27    25    1
     6    30    29    1
     7    54    55    1
     8    36    39    1
     9    83    82    1
    10    70    71    1
    11    80    81    2
    12    80    79    1
    13    24    25    1
    14    24    21    1
    15    46    47    1
    16    25    26    1
    17    23    22    2
    18    55    56    1
    19    55    58    1
    20    29    28    1
    21    29    32    1
    22    78    79    1
    23    78    72   am
    24    63    64    2
    25    63    62    1
    26    39    40    1
    27    79    82    1
    28    48    47    1
    29    48    49    2
    30    82    84    1
    31    71    72    1
    32    71    74    1
    33    10     8   ar
    34    10    11   ar
    35    22    28   am
    36    22    21    1
    37     8     6   ar
    38    72    73    2
    39    28    34    1
    40    61    56   am
    41    61    62    1
    42    32    33    1
    43    33    34    1
    44    21    20    1
    45    47    50    1
    46    56    57    2
    47     3     4    2
    48     3     2    1
    49    58    59    1
    50    58    60    1
    51    40    41    1
    52    62    65    1
    53    20    14   am
    54    65    66    1
    55    11     9   ar
    56    74    75    1
    57    50    51    1
    58     6     5    1
    59     6     7   ar
    60    12    13    1
    61     5     2    1
    62    66    67    1
    63     2     1    1
    64    51    53    1
    65    51    52    1
    66    41    42    1
    67    14    13    1
    68    14    15    2
    69     9     7   ar
    70    13    16    1
    71    75    77    1
    72    75    76    1
    73    42    43    2
    74    67    69   ar
    75    67    68   ar
    76    16    17    1
    77    43    44    1
    78    43    45    1
    79    17    18    2
    80    17    19   am
