@<TRIPOS>MOLECULE
tmp/6igzQ14.pdb
 137 133 0 0 0
SMALL
GASTEIGER

@<TRIPOS>ATOM
      1  N        275.0650  215.0870  174.2270 N.3    69  TRP69      -0.1227
      2  CA       273.9390  215.3320  173.3420 C.3    69  TRP69       0.1737
      3  C        272.7820  215.8680  174.1640 C.2    69  TRP69       0.2595
      4  O        271.9670  215.1280  174.6980 O.2    69  TRP69      -0.2718
      5  CB       273.5850  214.0180  172.6580 C.3    69  TRP69       0.0564
      6  CG       273.4180  212.9270  173.6830 C.ar   69  TRP69       0.0003
      7  CD1      274.4140  212.2610  174.3290 C.ar   69  TRP69       0.0946
      8  CD2      272.1920  212.3780  174.1730 C.ar   69  TRP69       0.0152
      9  NE1      273.8900  211.3500  175.2050 N.ar   69  TRP69      -0.2442
     10  CE2      272.5260  211.3980  175.1260 C.ar   69  TRP69       0.0810
     11  CE3      270.8420  212.6230  173.9030 C.ar   69  TRP69       0.0012
     12  CZ2      271.5660  210.6610  175.8010 C.ar   69  TRP69       0.0191
     13  CZ3      269.8930  211.8990  174.5820 C.ar   69  TRP69       0.0001
     14  CH2      270.2560  210.9260  175.5160 C.ar   69  TRP69       0.0015
     15  N        272.7200  217.1870  174.2870 N.am   70  TYR70      -0.1976
     16  CA       271.4770  217.9350  174.3490 C.3    70  TYR70       0.1639
     17  C        271.3420  218.9010  173.1870 C.2    70  TYR70       0.2290
     18  O        270.4260  219.7290  173.1820 O.2    70  TYR70      -0.2864
     19  CB       271.3320  218.6090  175.7040 C.3    70  TYR70       0.0560
     20  CG       271.0400  217.5530  176.7390 C.ar   70  TYR70      -0.0198
     21  CD1      270.2130  216.4920  176.4320 C.ar   70  TYR70      -0.0009
     22  CD2      271.5880  217.5980  178.0020 C.ar   70  TYR70      -0.0009
     23  CE1      269.9490  215.5120  177.3350 C.ar   70  TYR70       0.0417
     24  CE2      271.3110  216.6120  178.9200 C.ar   70  TYR70       0.0417
     25  CZ       270.4830  215.5760  178.5760 C.ar   70  TYR70       0.1957
     26  OH       270.1910  214.5860  179.4720 O.3    70  TYR70      -0.2866
     27  N        263.8940  224.3720  161.4020 N.3    82  ILE82      -0.1231
     28  CA       263.5800  223.2030  162.2100 C.3    82  ILE82       0.1692
     29  C        262.2340  222.7330  161.7090 C.2    82  ILE82       0.2591
     30  O        262.0860  221.6170  161.2010 O.2    82  ILE82      -0.2718
     31  CB       263.5130  223.5100  163.7090 C.3    82  ILE82       0.0266
     32  CG1      264.8210  224.1070  164.1930 C.3    82  ILE82       0.0019
     33  CG2      263.2110  222.2460  164.4760 C.3    82  ILE82       0.0020
     34  CD1      264.7540  225.5940  164.2800 C.3    82  ILE82       0.0001
     35  N        261.2470  223.6130  161.8640 N.am   83  ILE83      -0.1980
     36  CA       259.8720  223.4030  161.4390 C.3    83  ILE83       0.1595
     37  C        259.8700  223.0210  159.9670 C.2    83  ILE83       0.2287
     38  O        258.9230  222.4020  159.4740 O.2    83  ILE83      -0.2864
     39  CB       259.0350  224.6630  161.7080 C.3    83  ILE83       0.0276
     40  CG1      257.5460  224.3570  161.6120 C.3    83  ILE83       0.0022
     41  CG2      259.4070  225.7580  160.7480 C.3    83  ILE83       0.0022
     42  CD1      257.0510  223.4480  162.7050 C.3    83  ILE83       0.0001
     43  N        260.7610  219.1200  160.5810 N.3    86  VAL86      -0.1245
     44  CA       259.6510  218.4420  161.2440 C.3    86  VAL86       0.1561
     45  C        258.4580  218.3300  160.3100 C.2    86  VAL86       0.2260
     46  O        257.7440  217.3200  160.3080 O.2    86  VAL86      -0.2867
     47  CB       259.2840  219.1820  162.5380 C.3    86  VAL86       0.0252
     48  CG1      258.0960  218.5350  163.1980 C.3    86  VAL86       0.0019
     49  CG2      260.4630  219.1910  163.4660 C.3    86  VAL86       0.0019
     50  N        270.9600  202.2390  176.2790 N.3   159  PHE159     -0.1241
     51  CA       270.5780  203.6210  176.0250 C.3   159  PHE159      0.1605
     52  C        270.1490  204.3220  177.3010 C.2   159  PHE159      0.2264
     53  O        270.5570  205.4590  177.5630 O.2   159  PHE159     -0.2867
     54  CB       269.4640  203.6840  174.9930 C.3   159  PHE159      0.0534
     55  CG       268.8820  205.0500  174.8370 C.ar  159  PHE159     -0.0203
     56  CD1      269.5550  206.0240  174.1330 C.ar  159  PHE159     -0.0042
     57  CD2      267.6630  205.3610  175.4000 C.ar  159  PHE159     -0.0042
     58  CE1      269.0210  207.2810  173.9940 C.ar  159  PHE159     -0.0003
     59  CE2      267.1270  206.6160  175.2650 C.ar  159  PHE159     -0.0003
     60  CZ       267.8060  207.5760  174.5610 C.ar  159  PHE159     -0.0000
     61  N        270.9640  208.4120  179.1650 N.3   163  VAL163     -0.1245
     62  CA       270.0880  209.3860  179.7910 C.3   163  VAL163      0.1561
     63  C        270.5570  209.6390  181.2130 C.2   163  VAL163      0.2260
     64  O        271.0410  210.7290  181.5330 O.2   163  VAL163     -0.2867
     65  CB       268.6340  208.9040  179.7770 C.3   163  VAL163      0.0252
     66  CG1      267.7630  209.8840  180.5180 C.3   163  VAL163      0.0019
     67  CG2      268.1650  208.7310  178.3560 C.3   163  VAL163      0.0019
     68  N        272.2240  212.7430  183.0650 N.3   167  GLN167     -0.1245
     69  CA       271.3870  213.5580  183.9370 C.3   167  GLN167      0.1566
     70  C        272.2350  214.2140  185.0110 C.2   167  GLN167      0.2260
     71  O        272.4730  215.4240  184.9810 O.2   167  GLN167     -0.2867
     72  CB       270.3130  212.7080  184.6110 C.3   167  GLN167      0.0367
     73  CG       269.2170  212.1660  183.7160 C.3   167  GLN167      0.0905
     74  CD       268.2260  213.2120  183.2900 C.2   167  GLN167      0.2608
     75  OE1      267.8370  214.0650  184.0800 O.2   167  GLN167     -0.2717
     76  NE2      267.7910  213.1430  182.0450 N.am  167  GLN167     -0.0878
     77  N        266.4830  227.9980  173.2210 N.3   213  PHE213     -0.1227
     78  CA       266.5880  227.6780  171.8030 C.3   213  PHE213      0.1736
     79  C        265.6380  228.5740  171.0250 C.2   213  PHE213      0.2595
     80  O        264.4170  228.4480  171.1530 O.2   213  PHE213     -0.2718
     81  CB       266.2910  226.2030  171.5590 C.3   213  PHE213      0.0547
     82  CG       266.1590  225.8460  170.1230 C.ar  213  PHE213     -0.0202
     83  CD1      267.2600  225.8240  169.3030 C.ar  213  PHE213     -0.0042
     84  CD2      264.9390  225.4830  169.6060 C.ar  213  PHE213     -0.0042
     85  CE1      267.1370  225.4840  167.9840 C.ar  213  PHE213     -0.0003
     86  CE2      264.8150  225.1390  168.2960 C.ar  213  PHE213     -0.0003
     87  CZ       265.9150  225.1380  167.4820 C.ar  213  PHE213     -0.0000
     88  N        266.2110  229.4650  170.2210 N.am  214  GLN214     -0.1979
     89  CA       265.4750  230.3800  169.3530 C.3   214  GLN214      0.1601
     90  C        264.2870  231.0050  170.0750 C.2   214  GLN214      0.2287
     91  O        263.1580  231.0120  169.5840 O.2   214  GLN214     -0.2864
     92  CB       265.0460  229.6820  168.0690 C.3   214  GLN214      0.0394
     93  CG       266.2310  229.1750  167.2630 C.3   214  GLN214      0.0908
     94  CD       265.8300  228.6030  165.9280 C.2   214  GLN214      0.2608
     95  OE1      264.6640  228.3010  165.7030 O.2   214  GLN214     -0.2717
     96  NE2      266.7980  228.4320  165.0390 N.am  214  GLN214     -0.0878
     97  N        262.6330  230.1190  172.7910 N.3   216  ILE216     -0.1245
     98  CA       261.5890  229.1930  173.2070 C.3   216  ILE216      0.1561
     99  C        261.9790  228.5880  174.5480 C.2   216  ILE216      0.2260
    100  O        263.1600  228.3380  174.8090 O.2   216  ILE216     -0.2867
    101  CB       261.3590  228.1000  172.1470 C.3   216  ILE216      0.0252
    102  CG1      261.0360  228.7480  170.8070 C.3   216  ILE216      0.0019
    103  CG2      260.2190  227.1910  172.5440 C.3   216  ILE216      0.0019
    104  CD1      259.8400  229.6450  170.8660 C.3   216  ILE216      0.0001
    105  N        261.2920  225.4760  176.2690 N.3   218  ILE218     -0.1245
    106  CA       261.8120  224.1080  176.3350 C.3   218  ILE218      0.1561
    107  C        262.1810  223.7900  177.7800 C.2   218  ILE218      0.2260
    108  O        263.3620  223.8490  178.1490 O.2   218  ILE218     -0.2867
    109  CB       263.0050  223.9010  175.3850 C.3   218  ILE218      0.0252
    110  CG1      262.5780  224.1540  173.9470 C.3   218  ILE218      0.0019
    111  CG2      263.5040  222.4750  175.4450 C.3   218  ILE218      0.0019
    112  CD1      263.7190  224.1370  172.9850 C.3   218  ILE218      0.0001
    113  N        262.4330  221.1010  179.6400 N.3   220  THR220     -0.1204
    114  CA       263.3490  219.9650  179.7290 C.3   220  THR220      0.1979
    115  C        263.8830  219.6980  181.1420 C.2   220  THR220      0.2459
    116  O        265.0860  219.8390  181.3900 O.2   220  THR220     -0.2732
    117  CB       264.4930  220.1060  178.7300 C.3   220  THR220      0.1783
    118  OG1      265.3640  218.9780  178.8560 O.3   220  THR220     -0.2211
    119  CG2      265.2890  221.3980  178.9190 C.3   220  THR220      0.0376
    120  N        263.0330  219.2830  182.0690 N.am  221  PRO221     -0.2728
    121  CA       263.5060  218.9800  183.4180 C.3   221  PRO221      0.1401
    122  C        264.2080  217.6320  183.4640 C.2   221  PRO221      0.2269
    123  O        264.2220  216.8640  182.5040 O.2   221  PRO221     -0.2865
    124  CB       262.2170  218.9410  184.2320 C.3   221  PRO221      0.0296
    125  CG       261.2150  218.4510  183.2610 C.3   221  PRO221      0.0237
    126  CD       261.5870  219.0470  181.9340 C.3   221  PRO221      0.0939
    127  N        264.7060  213.7330  185.0010 N.3   223  PHE223     -0.1241
    128  CA       263.7370  212.6440  185.0910 C.3   223  PHE223      0.1605
    129  C        263.6150  212.2190  186.5470 C.2   223  PHE223      0.2264
    130  O        264.4790  211.5360  187.0960 O.2   223  PHE223     -0.2867
    131  CB       264.1670  211.4790  184.2120 C.3   223  PHE223      0.0534
    132  CG       263.2440  210.3050  184.2700 C.ar  223  PHE223     -0.0203
    133  CD1      262.1160  210.2550  183.4750 C.ar  223  PHE223     -0.0042
    134  CD2      263.4980  209.2550  185.1290 C.ar  223  PHE223     -0.0042
    135  CE1      261.2660  209.1700  183.5280 C.ar  223  PHE223     -0.0003
    136  CE2      262.6530  208.1690  185.1880 C.ar  223  PHE223     -0.0003
    137  CZ       261.5360  208.1250  184.3880 C.ar  223  PHE223     -0.0000
@<TRIPOS>BOND
     1    38    37    2
     2    37    36    1
     3    46    45    2
     4    45    44    1
     5    43    44    1
     6    41    39    1
     7    30    29    2
     8    44    47    1
     9    27    28    1
    10    36    39    1
    11    36    35    1
    12    40    39    1
    13    40    42    1
    14    29    35   am
    15    29    28    1
    16    28    31    1
    17    47    48    1
    18    47    49    1
    19    31    32    1
    20    31    33    1
    21    32    34    1
    22    96    94   am
    23    95    94    2
    24    94    93    1
    25    93    92    1
    26    87    85   ar
    27    87    86   ar
    28    85    83   ar
    29    92    89    1
    30    86    84   ar
    31    83    82   ar
    32    89    90    1
    33    89    88    1
    34    91    90    2
    35    84    82   ar
    36    82    81    1
    37    88    79   am
    38   102   104    1
    39   102   101    1
    40    79    80    2
    41    79    78    1
    42    81    78    1
    43    78    77    1
    44   101   103    1
    45   101    98    1
    46     5     2    1
    47     5     6    1
    48    97    98    1
    49   112   110    1
    50    18    17    2
    51    17    16    1
    52    98    99    1
    53     2     3    1
    54     2     1    1
    55     6     8   ar
    56     6     7   ar
    57    11     8   ar
    58    11    13   ar
    59   110   109    1
    60    58    56   ar
    61    58    60   ar
    62    56    55   ar
    63     3    15   am
    64     3     4    2
    65     8    10   ar
    66    15    16    1
    67     7     9   ar
    68    16    19    1
    69    99   100    2
    70    60    59   ar
    71    13    14   ar
    72    55    54    1
    73    55    57   ar
    74    54    51    1
    75    10     9   ar
    76    10    12   ar
    77    59    57   ar
    78   109   111    1
    79   109   106    1
    80    14    12   ar
    81    19    20    1
    82    51    50    1
    83    51    52    1
    84   105   106    1
    85   106   107    1
    86    21    20   ar
    87    21    23   ar
    88    20    22   ar
    89    52    53    2
    90    23    25   ar
    91   107   108    2
    92    22    24   ar
    93    67    65    1
    94    25    24   ar
    95    25    26    1
    96   117   118    1
    97   117   119    1
    98   117   114    1
    99    61    62    1
   100   113   114    1
   101   114   115    1
   102    65    62    1
   103    65    66    1
   104    62    63    1
   105   115   116    2
   106   115   120   am
   107    63    64    2
   108   126   120    1
   109   126   125    1
   110    76    74   am
   111   120   121    1
   112   123   122    2
   113    68    69    1
   114   125   124    1
   115    74    73    1
   116    74    75    2
   117   121   122    1
   118   121   124    1
   119   133   135   ar
   120   133   132   ar
   121   135   137   ar
   122    73    72    1
   123    69    72    1
   124    69    70    1
   125   131   132    1
   126   131   128    1
   127   132   134   ar
   128   137   136   ar
   129    71    70    2
   130   127   128    1
   131   128   129    1
   132   134   136   ar
   133   129   130    2
