@<TRIPOS>MOLECULE
tmp/6igzN11.pdb
 102 104 0 0 0
SMALL
GASTEIGER

@<TRIPOS>ATOM
      1  N        242.2060  179.6520  204.8330 N.3     2  PRO2       -0.2102
      2  CA       242.7170  180.4630  205.9380 C.3     2  PRO2        0.1504
      3  C        241.8040  181.6190  206.2770 C.2     2  PRO2        0.2576
      4  O        241.9880  182.7310  205.7860 O.2     2  PRO2       -0.2718
      5  CB       244.0640  180.9560  205.4060 C.3     2  PRO2        0.0282
      6  CG       244.4470  179.9540  204.3910 C.3     2  PRO2        0.0208
      7  CD       243.1650  179.5960  203.7230 C.3     2  PRO2        0.0893
      8  N        240.7930  181.3550  207.1000 N.am    3  VAL3       -0.1966
      9  CA       239.8690  182.4010  207.4890 C.3     3  VAL3        0.1727
     10  C        240.5330  183.3600  208.4680 C.2     3  VAL3        0.2616
     11  O        241.5400  183.0490  209.1090 O.2     3  VAL3       -0.2715
     12  CB       238.6060  181.7830  208.0980 C.3     3  VAL3        0.0290
     13  CG1      237.9530  180.8840  207.0900 C.3     3  VAL3        0.0023
     14  CG2      238.9620  181.0120  209.3410 C.3     3  VAL3        0.0023
     15  N        239.9640  184.5570  208.5610 N.am    4  TRP4       -0.1960
     16  CA       240.3150  185.4970  209.6110 C.3     4  TRP4        0.1771
     17  C        239.8130  184.9600  210.9390 C.2     4  TRP4        0.2620
     18  O        238.8660  184.1750  210.9900 O.2     4  TRP4       -0.2715
     19  CB       239.6670  186.8490  209.3530 C.3     4  TRP4        0.0590
     20  CG       238.2170  186.7720  209.5670 C.ar    4  TRP4        0.0006
     21  CD1      237.3080  186.1790  208.7600 C.ar    4  TRP4        0.0946
     22  CD2      237.4810  187.3290  210.6610 C.ar    4  TRP4        0.0152
     23  NE1      236.0520  186.2960  209.2940 N.ar    4  TRP4       -0.2442
     24  CE2      236.1370  187.0090  210.4600 C.ar    4  TRP4        0.0810
     25  CE3      237.8330  188.0590  211.7920 C.ar    4  TRP4        0.0012
     26  CZ2      235.1470  187.3970  211.3410 C.ar    4  TRP4        0.0191
     27  CZ3      236.8490  188.4370  212.6660 C.ar    4  TRP4        0.0001
     28  CH2      235.5250  188.1080  212.4370 C.ar    4  TRP4        0.0015
     29  N        240.4290  185.4100  212.0160 N.am    5  TYR5       -0.1960
     30  CA       240.0590  184.9450  213.3470 C.3     5  TYR5        0.1756
     31  C        240.0650  183.4280  213.3440 C.2     5  TYR5        0.2461
     32  O        238.9960  182.8130  213.3540 O.2     5  TYR5       -0.2730
     33  CB       238.6780  185.4580  213.7540 C.3     5  TYR5        0.0574
     34  CG       238.3370  185.2240  215.2020 C.ar    5  TYR5       -0.0198
     35  CD1      238.9100  185.9940  216.1830 C.ar    5  TYR5       -0.0009
     36  CD2      237.4320  184.2710  215.5840 C.ar    5  TYR5       -0.0009
     37  CE1      238.6130  185.8160  217.4930 C.ar    5  TYR5        0.0417
     38  CE2      237.1270  184.0810  216.9150 C.ar    5  TYR5        0.0417
     39  CZ       237.7260  184.8610  217.8620 C.ar    5  TYR5        0.1957
     40  OH       237.4360  184.6880  219.1900 O.3     5  TYR5       -0.2866
     41  N        241.2280  182.7950  213.2860 N.am    6  PRO6       -0.2727
     42  CA       241.2680  181.3500  213.0710 C.3     6  PRO6        0.1402
     43  C        240.5650  180.5930  214.1770 C.2     6  PRO6        0.2269
     44  O        240.4870  181.0440  215.3170 O.2     6  PRO6       -0.2865
     45  CB       242.7610  181.0420  213.0600 C.3     6  PRO6        0.0296
     46  CG       243.3820  182.3030  212.6280 C.3     6  PRO6        0.0237
     47  CD       242.5770  183.3700  213.2940 C.3     6  PRO6        0.0939
     48  N        238.0670  185.6290  202.7660 N.3    22  TYR22      -0.1241
     49  CA       238.5260  185.0750  204.0260 C.3    22  TYR22       0.1605
     50  C        237.3960  184.7230  204.9680 C.2    22  TYR22       0.2264
     51  O        237.6590  184.3590  206.1130 O.2    22  TYR22      -0.2867
     52  CB       239.4800  186.0510  204.6830 C.3    22  TYR22       0.0534
     53  CG       240.7040  186.2350  203.8470 C.ar   22  TYR22      -0.0201
     54  CD1      241.3990  185.1430  203.3720 C.ar   22  TYR22      -0.0009
     55  CD2      241.1200  187.4930  203.4600 C.ar   22  TYR22      -0.0009
     56  CE1      242.5120  185.2990  202.5930 C.ar   22  TYR22       0.0417
     57  CE2      242.2300  187.6570  202.6740 C.ar   22  TYR22       0.0417
     58  CZ       242.9210  186.5560  202.2460 C.ar   22  TYR22       0.1957
     59  OH       244.0300  186.7100  201.4580 O.3    22  TYR22      -0.2866
     60  N        234.9060  186.8650  206.1230 N.3    24  TYR24      -0.1241
     61  CA       234.6970  187.9550  207.0540 C.3    24  TYR24       0.1605
     62  C        233.4360  188.6830  206.6400 C.2    24  TYR24       0.2264
     63  O        233.4370  189.4330  205.6660 O.2    24  TYR24      -0.2867
     64  CB       235.9120  188.8600  207.0390 C.3    24  TYR24       0.0534
     65  CG       235.8090  190.1280  207.8180 C.ar   24  TYR24      -0.0201
     66  CD1      235.8330  190.1200  209.1870 C.ar   24  TYR24      -0.0009
     67  CD2      235.7750  191.3410  207.1800 C.ar   24  TYR24      -0.0009
     68  CE1      235.7730  191.2790  209.8910 C.ar   24  TYR24       0.0417
     69  CE2      235.7220  192.4990  207.8810 C.ar   24  TYR24       0.0417
     70  CZ       235.7190  192.4650  209.2340 C.ar   24  TYR24       0.1957
     71  OH       235.6630  193.6310  209.9440 O.3    24  TYR24      -0.2866
     72  N        243.8100  192.2360  197.7700 N.3   164  LYS164     -0.1245
     73  CA       244.6500  192.2930  198.9530 C.3   164  LYS164      0.1561
     74  C        245.5190  193.5400  198.9670 C.2   164  LYS164      0.2260
     75  O        245.8400  194.0560  200.0360 O.2   164  LYS164     -0.2867
     76  CB       245.5000  191.0380  199.0110 C.3   164  LYS164      0.0271
     77  CG       244.7080  189.7830  199.1990 C.3   164  LYS164      0.0035
     78  CD       245.6050  188.5960  199.0480 C.3   164  LYS164      0.0206
     79  CE       246.6050  188.5190  200.1560 C.3   164  LYS164      0.1093
     80  NZ       245.9310  188.1830  201.4220 N.3   164  LYS164     -0.1314
     81  N        242.6600  196.2130  199.7770 N.3   167  ARG167     -0.1245
     82  CA       242.2300  196.2780  201.1670 C.3   167  ARG167      0.1563
     83  C        243.2720  196.9870  202.0180 C.2   167  ARG167      0.2260
     84  O        242.9300  197.6290  203.0110 O.2   167  ARG167     -0.2867
     85  CB       241.9780  194.8790  201.7300 C.3   167  ARG167      0.0307
     86  CG       241.0350  193.9600  200.9680 C.3   167  ARG167      0.0489
     87  CD       240.9440  192.6580  201.7380 C.3   167  ARG167      0.2205
     88  NE       240.4070  191.5470  200.9790 N.pl3 167  ARG167     -0.0865
     89  CZ       239.1220  191.3700  200.7070 C.cat 167  ARG167      0.5346
     90  NH1      238.7450  190.3190  200.0120 N.pl3 167  ARG167      0.1354
     91  NH2      238.2440  192.2890  201.0500 N.pl3 167  ARG167      0.1354
     92  N        242.8210  200.6430  204.0730 N.3   171  PHE171     -0.1241
     93  CA       243.1600  200.7010  205.4860 C.3   171  PHE171      0.1605
     94  C        244.3350  201.6160  205.7690 C.2   171  PHE171      0.2264
     95  O        244.4630  202.1070  206.8910 O.2   171  PHE171     -0.2867
     96  CB       243.4550  199.3020  206.0020 C.3   171  PHE171      0.0534
     97  CG       243.8970  199.2680  207.4240 C.ar  171  PHE171     -0.0203
     98  CD1      242.9880  199.4450  208.4430 C.ar  171  PHE171     -0.0042
     99  CD2      245.2130  199.0340  207.7460 C.ar  171  PHE171     -0.0042
    100  CE1      243.3840  199.4080  209.7480 C.ar  171  PHE171     -0.0003
    101  CE2      245.6120  198.9920  209.0530 C.ar  171  PHE171     -0.0003
    102  CZ       244.6960  199.1770  210.0560 C.ar  171  PHE171     -0.0000
@<TRIPOS>BOND
     1    72    73    1
     2    73    74    1
     3    73    76    1
     4    74    75    2
     5    76    77    1
     6    78    77    1
     7    78    79    1
     8    81    82    1
     9    90    89    1
    10    79    80    1
    11    89    88    2
    12    89    91    1
    13    86    85    1
    14    86    87    1
    15    88    87    1
    16    82    85    1
    17    82    83    1
    18    59    58    1
    19    83    84    2
    20    58    56   ar
    21    58    57   ar
    22    56    54   ar
    23    57    55   ar
    24    48    49    1
    25    54    53   ar
    26    55    53   ar
    27     7     6    1
    28     7     1    1
    29    53    52    1
    30    49    52    1
    31    49    50    1
    32    92    93    1
    33     6     5    1
    34     1     2    1
    35    50    51    2
    36     5     2    1
    37    93    94    1
    38    93    96    1
    39    63    62    2
    40    94    95    2
    41     4     3    2
    42     2     3    1
    43    96    97    1
    44    60    61    1
    45     3     8   am
    46    62    61    1
    47    64    61    1
    48    64    65    1
    49    13    12    1
    50     8     9    1
    51    67    65   ar
    52    67    69   ar
    53    97    99   ar
    54    97    98   ar
    55     9    12    1
    56     9    10    1
    57    99   101   ar
    58    65    66   ar
    59    69    70   ar
    60    12    14    1
    61    98   100   ar
    62    10    15   am
    63    10    11    2
    64    15    16    1
    65    21    23   ar
    66    21    20   ar
    67   101   102   ar
    68    66    68   ar
    69    70    68   ar
    70    70    71    1
    71    23    24   ar
    72    19    20    1
    73    19    16    1
    74    20    22   ar
    75    16    17    1
    76   100   102   ar
    77    24    22   ar
    78    24    26   ar
    79    22    25   ar
    80    17    18    2
    81    17    29   am
    82    26    28   ar
    83    25    27   ar
    84    29    30    1
    85    28    27   ar
    86    46    45    1
    87    46    47    1
    88    45    42    1
    89    42    41    1
    90    42    43    1
    91    41    47    1
    92    41    31   am
    93    31    30    1
    94    31    32    2
    95    30    33    1
    96    33    34    1
    97    43    44    2
    98    34    36   ar
    99    34    35   ar
   100    36    38   ar
   101    35    37   ar
   102    38    39   ar
   103    37    39   ar
   104    39    40    1
