@<TRIPOS>MOLECULE
tmp/6igzP20.pdb
 101 101 0 0 0
SMALL
GASTEIGER

@<TRIPOS>ATOM
      1  N        215.8850  238.0750  170.0850 N.3    77  TRP77      -0.1227
      2  CA       214.5650  237.4920  169.9040 C.3    77  TRP77       0.1737
      3  C        213.5760  237.9280  170.9700 C.2    77  TRP77       0.2595
      4  O        212.3700  237.9310  170.7130 O.2    77  TRP77      -0.2718
      5  CB       214.6760  235.9790  169.8880 C.3    77  TRP77       0.0564
      6  CG       215.2560  235.4360  171.1280 C.ar   77  TRP77       0.0003
      7  CD1      216.5730  235.3160  171.4250 C.ar   77  TRP77       0.0946
      8  CD2      214.5410  234.9160  172.2490 C.ar   77  TRP77       0.0152
      9  NE1      216.7280  234.7630  172.6700 N.ar   77  TRP77      -0.2442
     10  CE2      215.4900  234.5100  173.1950 C.ar   77  TRP77       0.0810
     11  CE3      213.1890  234.7610  172.5460 C.ar   77  TRP77       0.0012
     12  CZ2      215.1340  233.9580  174.4090 C.ar   77  TRP77       0.0191
     13  CZ3      212.8400  234.2120  173.7470 C.ar   77  TRP77       0.0001
     14  CH2      213.8040  233.8200  174.6670 C.ar   77  TRP77       0.0015
     15  N        214.0430  238.2980  172.1540 N.am   78  PHE78      -0.1962
     16  CA       213.1530  238.8290  173.1700 C.3    78  PHE78       0.1771
     17  C        213.0960  240.3460  173.1610 C.2    78  PHE78       0.2620
     18  O        212.4000  240.9270  173.9920 O.2    78  PHE78      -0.2715
     19  CB       213.5590  238.3340  174.5570 C.3    78  PHE78       0.0574
     20  CG       214.9260  238.7540  174.9740 C.ar   78  PHE78      -0.0200
     21  CD1      215.1240  239.9520  175.6220 C.ar   78  PHE78      -0.0042
     22  CD2      216.0120  237.9440  174.7370 C.ar   78  PHE78      -0.0042
     23  CE1      216.3810  240.3380  176.0120 C.ar   78  PHE78      -0.0003
     24  CE2      217.2670  238.3230  175.1320 C.ar   78  PHE78      -0.0003
     25  CZ       217.4500  239.5190  175.7710 C.ar   78  PHE78      -0.0000
     26  N        213.8250  241.0020  172.2720 N.am   79  ASN79      -0.1958
     27  CA       213.6430  242.4260  172.0520 C.3    79  ASN79       0.1819
     28  C        212.7170  242.7110  170.8840 C.2    79  ASN79       0.2621
     29  O        212.5250  243.8760  170.5310 O.2    79  ASN79      -0.2715
     30  CB       214.9910  243.1160  171.8330 C.3    79  ASN79       0.1195
     31  CG       215.7860  243.2710  173.1160 C.2    79  ASN79       0.2630
     32  OD1      215.5070  244.1550  173.9270 O.2    79  ASN79      -0.2716
     33  ND2      216.7830  242.4130  173.3050 N.am   79  ASN79      -0.0877
     34  N        212.1620  241.6770  170.2640 N.am   80  ALA80      -0.1963
     35  CA       211.1640  241.8410  169.2200 C.3    80  ALA80       0.1728
     36  C        209.7510  241.8000  169.7660 C.2    80  ALA80       0.2617
     37  O        208.7980  241.8780  168.9880 O.2    80  ALA80      -0.2715
     38  CB       211.3320  240.7690  168.1440 C.3    80  ALA80       0.0334
     39  N        209.5920  241.6480  171.0780 N.am   81  GLY81      -0.1940
     40  CA       208.2940  241.9000  171.6740 C.3    81  GLY81       0.2014
     41  C        207.8370  243.3160  171.4030 C.2    81  GLY81       0.2638
     42  O        206.7040  243.5540  170.9890 O.2    81  GLY81      -0.2714
     43  N        208.7360  244.2720  171.5870 N.am   82  ALA82      -0.1977
     44  CA       208.4990  245.6100  171.0900 C.3    82  ALA82       0.1597
     45  C        208.5770  245.5910  169.5690 C.2    82  ALA82       0.2287
     46  O        208.6980  244.5420  168.9360 O.2    82  ALA82      -0.2864
     47  CB       209.4990  246.5930  171.6910 C.3    82  ALA82       0.0319
     48  N        205.9100  246.3640  167.5190 N.3    84  PRO84      -0.2116
     49  CA       204.7220  246.4950  166.6780 C.3    84  PRO84       0.1372
     50  C        204.5720  247.9360  166.2260 C.2    84  PRO84       0.2244
     51  O        204.8670  248.8740  166.9670 O.2    84  PRO84      -0.2868
     52  CB       203.5760  246.0760  167.6060 C.3    84  PRO84       0.0268
     53  CG       204.0400  246.4220  168.9290 C.3    84  PRO84       0.0207
     54  CD       205.5220  246.1840  168.9300 C.3    84  PRO84       0.0892
     55  N        198.1570  245.7350  169.6060 N.3    89  THR89      -0.1218
     56  CA       198.2780  244.3760  170.1220 C.3    89  THR89       0.1862
     57  C        196.9550  243.8230  170.6130 C.2    89  THR89       0.2287
     58  O        196.8300  242.6070  170.7700 O.2    89  THR89      -0.2866
     59  CB       199.2950  244.3100  171.2590 C.3    89  THR89       0.1770
     60  OG1      199.5080  242.9420  171.6340 O.3    89  THR89      -0.2211
     61  CG2      198.7910  245.0680  172.4600 C.3    89  THR89       0.0375
     62  N        195.4540  242.8430  166.7410 N.3    92  LEU92      -0.1231
     63  CA       196.3020  241.9110  166.0060 C.3    92  LEU92       0.1693
     64  C        196.3620  240.5620  166.6920 C.2    92  LEU92       0.2592
     65  O        196.5630  239.5360  166.0370 O.2    92  LEU92      -0.2718
     66  CB       197.7010  242.4920  165.8550 C.3    92  LEU92       0.0284
     67  CG       198.6970  241.7030  165.0170 C.3    92  LEU92       0.0019
     68  CD1      199.6070  242.6620  164.2950 C.3    92  LEU92       0.0001
     69  CD2      199.5160  240.7890  165.8970 C.3    92  LEU92       0.0001
     70  N        196.1910  240.5450  168.0060 N.am   93  PHE93      -0.1976
     71  CA       196.1800  239.2870  168.7310 C.3    93  PHE93       0.1639
     72  C        194.9050  238.5040  168.4500 C.2    93  PHE93       0.2290
     73  O        194.9610  237.3390  168.0510 O.2    93  PHE93      -0.2864
     74  CB       196.3440  239.5690  170.2160 C.3    93  PHE93       0.0560
     75  CG       196.2600  238.3660  171.0700 C.ar   93  PHE93      -0.0200
     76  CD1      197.3350  237.5160  171.1870 C.ar   93  PHE93      -0.0042
     77  CD2      195.1130  238.0990  171.7840 C.ar   93  PHE93      -0.0042
     78  CE1      197.2590  236.4080  171.9860 C.ar   93  PHE93      -0.0003
     79  CE2      195.0270  236.9970  172.5840 C.ar   93  PHE93      -0.0003
     80  CZ       196.1000  236.1460  172.6870 C.ar   93  PHE93      -0.0000
     81  N        194.8390  236.9530  165.0550 N.3    96  GLN96      -0.1245
     82  CA       195.5030  235.6570  165.1210 C.3    96  GLN96       0.1566
     83  C        194.5640  234.5800  165.6330 C.2    96  GLN96       0.2260
     84  O        194.2270  233.6360  164.9150 O.2    96  GLN96      -0.2867
     85  CB       196.7180  235.7530  166.0340 C.3    96  GLN96       0.0367
     86  CG       197.4030  234.4390  166.2510 C.3    96  GLN96       0.0905
     87  CD       198.5700  234.5580  167.1900 C.2    96  GLN96       0.2608
     88  OE1      198.9510  235.6540  167.5830 O.2    96  GLN96      -0.2717
     89  NE2      199.1310  233.4260  167.5810 N.am   96  GLN96      -0.0878
     90  N        215.4430  230.2160  176.0200 N.3   172  TYR172     -0.1241
     91  CA       214.6880  230.7830  177.1210 C.3   172  TYR172      0.1605
     92  C        215.6080  230.9580  178.3140 C.2   172  TYR172      0.2264
     93  O        215.9460  232.0850  178.6740 O.2   172  TYR172     -0.2867
     94  CB       213.5020  229.9030  177.4830 C.3   172  TYR172      0.0534
     95  CG       212.4750  229.7800  176.3910 C.ar  172  TYR172     -0.0201
     96  CD1      212.1700  230.8540  175.5780 C.ar  172  TYR172     -0.0009
     97  CD2      211.7940  228.6000  176.1890 C.ar  172  TYR172     -0.0009
     98  CE1      211.2330  230.7480  174.5860 C.ar  172  TYR172      0.0417
     99  CE2      210.8540  228.4900  175.2030 C.ar  172  TYR172      0.0417
    100  CZ       210.5780  229.5680  174.4060 C.ar  172  TYR172      0.1957
    101  OH       209.6380  229.4640  173.4180 O.3   172  TYR172     -0.2866
@<TRIPOS>BOND
     1    68    67    1
     2    84    83    2
     3    67    66    1
     4    67    69    1
     5    81    82    1
     6    82    83    1
     7    82    85    1
     8    66    63    1
     9    63    64    1
    10    63    62    1
    11    85    86    1
    12    65    64    2
    13    50    49    1
    14    50    51    2
    15    86    87    1
    16    49    48    1
    17    49    52    1
    18    64    70   am
    19    87    89   am
    20    87    88    2
    21    48    54    1
    22    52    53    1
    23    70    71    1
    24    73    72    2
    25    38    35    1
    26    72    71    1
    27    71    74    1
    28    53    54    1
    29    46    45    2
    30    37    36    2
    31    35    36    1
    32    35    34    1
    33    45    44    1
    34    55    56    1
    35    36    39   am
    36     5     2    1
    37     5     6    1
    38     2     1    1
    39     2     3    1
    40    56    57    1
    41    56    59    1
    42    74    75    1
    43    34    28   am
    44    29    28    2
    45    57    58    2
    46     4     3    2
    47    28    27    1
    48     3    15   am
    49    42    41    2
    50    75    76   ar
    51    75    77   ar
    52    39    40    1
    53    44    43    1
    54    44    47    1
    55     6     7   ar
    56     6     8   ar
    57    76    78   ar
    58    59    60    1
    59    59    61    1
    60    41    43   am
    61    41    40    1
    62     7     9   ar
    63    77    79   ar
    64    30    27    1
    65    30    31    1
    66    78    80   ar
    67    27    26    1
    68    15    16    1
    69     8    11   ar
    70     8    10   ar
    71    26    17   am
    72    11    13   ar
    73    79    80   ar
    74     9    10   ar
    75    31    33   am
    76    31    32    2
    77    17    16    1
    78    17    18    2
    79    16    19    1
    80    10    12   ar
    81   101   100    1
    82    13    14   ar
    83   100    98   ar
    84   100    99   ar
    85    12    14   ar
    86    19    20    1
    87    98    96   ar
    88    22    20   ar
    89    22    24   ar
    90    20    21   ar
    91    24    25   ar
    92    99    97   ar
    93    96    95   ar
    94    21    23   ar
    95    25    23   ar
    96    90    91    1
    97    97    95   ar
    98    95    94    1
    99    91    94    1
   100    91    92    1
   101    92    93    2
