@<TRIPOS>MOLECULE
tmp/6igzK04.pdb
 86 82 0 0 0
SMALL
GASTEIGER

@<TRIPOS>ATOM
      1  N        242.4110  198.7860  273.0120 N.3     1  PHE1       -0.1227
      2  CA       242.0240  198.6320  274.4110 C.3     1  PHE1        0.1736
      3  C        242.4370  197.2720  274.9960 C.2     1  PHE1        0.2595
      4  O        243.2820  197.2200  275.8900 O.2     1  PHE1       -0.2718
      5  CB       240.5150  198.8880  274.5670 C.3     1  PHE1        0.0547
      6  CG       239.6520  198.1460  273.5790 C.ar    1  PHE1       -0.0202
      7  CD1      239.3810  198.6950  272.3410 C.ar    1  PHE1       -0.0042
      8  CD2      239.1010  196.9190  273.8900 C.ar    1  PHE1       -0.0042
      9  CE1      238.5930  198.0320  271.4320 C.ar    1  PHE1       -0.0003
     10  CE2      238.3160  196.2520  272.9800 C.ar    1  PHE1       -0.0003
     11  CZ       238.0620  196.8090  271.7520 C.ar    1  PHE1       -0.0000
     12  N        241.8570  196.1850  274.4850 N.am    2  ILE2       -0.1980
     13  CA       242.2300  194.8260  274.8640 C.3     2  ILE2        0.1595
     14  C        242.0620  194.6250  276.3630 C.2     2  ILE2        0.2287
     15  O        243.0340  194.6450  277.1230 O.2     2  ILE2       -0.2864
     16  CB       243.6560  194.4880  274.4040 C.3     2  ILE2        0.0276
     17  CG1      243.7730  194.7180  272.9020 C.3     2  ILE2        0.0022
     18  CG2      243.9670  193.0300  274.6800 C.3     2  ILE2        0.0022
     19  CD1      242.7930  193.8940  272.0930 C.3     2  ILE2        0.0001
     20  N        234.4390  197.5460  277.5960 N.3     6  PRO6       -0.2102
     21  CA       233.7080  197.0620  276.4170 C.3     6  PRO6        0.1504
     22  C        234.2360  195.7420  275.8990 C.2     6  PRO6        0.2575
     23  O        233.4650  194.9510  275.3440 O.2     6  PRO6       -0.2718
     24  CB       233.8880  198.1970  275.4010 C.3     6  PRO6        0.0282
     25  CG       235.1080  198.8920  275.8330 C.3     6  PRO6        0.0208
     26  CD       235.0570  198.8550  277.3230 C.3     6  PRO6        0.0893
     27  N        235.5240  195.4660  276.0730 N.am    7  ASN7       -0.1975
     28  CA       236.0330  194.1620  275.6760 C.3     7  ASN7        0.1688
     29  C        235.5620  193.0890  276.6490 C.2     7  ASN7        0.2292
     30  O        235.2650  191.9610  276.2380 O.2     7  ASN7       -0.2864
     31  CB       237.5550  194.1960  275.5940 C.3     7  ASN7        0.1181
     32  CG       238.1290  192.9970  274.8840 C.2     7  ASN7        0.2629
     33  OD1      237.4510  192.0010  274.6820 O.2     7  ASN7       -0.2716
     34  ND2      239.4010  193.0770  274.5270 N.am    7  ASN7       -0.0877
     35  N        232.0640  192.3360  275.1160 N.3    10  MET10      -0.1230
     36  CA       231.8790  191.7420  273.7960 C.3    10  MET10       0.1702
     37  C        232.3250  190.2860  273.7760 C.2    10  MET10       0.2592
     38  O        231.6050  189.4130  273.2760 O.2    10  MET10      -0.2718
     39  CB       232.6300  192.5580  272.7470 C.3    10  MET10       0.0401
     40  CG       232.3330  192.1270  271.3350 C.3    10  MET10       0.0596
     41  SD       230.6170  192.4530  270.9090 S.3    10  MET10      -0.1393
     42  CE       230.6690  194.2280  270.7280 C.3    10  MET10       0.0692
     43  N        233.5120  190.0040  274.3140 N.am   11  VAL11      -0.1980
     44  CA       233.9520  188.6200  274.4610 C.3    11  VAL11       0.1595
     45  C        232.9470  187.8330  275.2850 C.2    11  VAL11       0.2287
     46  O        232.6830  186.6550  275.0160 O.2    11  VAL11      -0.2864
     47  CB       235.3580  188.5710  275.0820 C.3    11  VAL11       0.0276
     48  CG1      235.7290  187.1530  275.4330 C.3    11  VAL11       0.0022
     49  CG2      236.3690  189.1390  274.1180 C.3    11  VAL11       0.0022
     50  N        229.3240  187.7570  272.4380 N.3    14  THR14      -0.1203
     51  CA       229.3040  186.8600  271.2910 C.3    14  THR14       0.1994
     52  C        229.7300  185.4590  271.7000 C.2    14  THR14       0.2618
     53  O        229.0170  184.4780  271.4580 O.2    14  THR14      -0.2717
     54  CB       230.2120  187.4090  270.2010 C.3    14  THR14       0.1784
     55  OG1      231.5610  187.4130  270.6710 O.3    14  THR14      -0.2211
     56  CG2      229.8220  188.8270  269.9120 C.3    14  THR14       0.0376
     57  N        230.8870  185.3530  272.3470 N.am   15  GLY15      -0.1956
     58  CA       231.3580  184.0950  272.8840 C.3    15  GLY15       0.1869
     59  C        230.3600  183.4940  273.8450 C.2    15  GLY15       0.2309
     60  O        230.3480  182.2830  274.0610 O.2    15  GLY15      -0.2863
     61  N        228.7720  181.5430  262.3650 N.3    60  LEU60      -0.1245
     62  CA       228.5670  182.8800  261.8220 C.3    60  LEU60       0.1561
     63  C        227.2640  183.4810  262.3140 C.2    60  LEU60       0.2260
     64  O        227.2030  184.6740  262.6230 O.2    60  LEU60      -0.2867
     65  CB       228.5870  182.8430  260.2980 C.3    60  LEU60       0.0270
     66  CG       229.9070  182.4180  259.6640 C.3    60  LEU60       0.0019
     67  CD1      229.7990  182.4170  258.1530 C.3    60  LEU60       0.0001
     68  CD2      231.0240  183.3180  260.1180 C.3    60  LEU60       0.0001
     69  N        227.0030  190.2450  268.1840 N.3    67  HIS67      -0.1241
     70  CA       227.5700  191.5870  268.1620 C.3    67  HIS67       0.1621
     71  C        226.5160  192.6780  268.2290 C.2    67  HIS67       0.2264
     72  O        226.8030  193.7680  268.7320 O.2    67  HIS67      -0.2867
     73  CB       228.4470  191.7690  266.9290 C.3    67  HIS67       0.0745
     74  CG       229.7770  191.1060  267.0490 C.ar   67  HIS67       0.0817
     75  ND1      229.9650  189.7610  266.8260 N.ar   67  HIS67      -0.2268
     76  CD2      230.9870  191.6030  267.3930 C.ar   67  HIS67       0.1154
     77  CE1      231.2360  189.4600  267.0230 C.ar   67  HIS67       0.1986
     78  NE2      231.8780  190.5610  267.3630 N.ar   67  HIS67      -0.2212
     79  N        227.0300  195.1990  270.8210 N.3    71  ILE71      -0.1245
     80  CA       227.0890  196.6380  270.6140 C.3    71  ILE71       0.1561
     81  C        225.9300  197.3320  271.3130 C.2    71  ILE71       0.2260
     82  O        226.1120  198.3600  271.9740 O.2    71  ILE71      -0.2867
     83  CB       227.1210  196.9480  269.1120 C.3    71  ILE71       0.0252
     84  CG1      228.4400  196.4560  268.5200 C.3    71  ILE71       0.0019
     85  CG2      226.9390  198.4170  268.8870 C.3    71  ILE71       0.0019
     86  CD1      228.4830  196.4660  267.0150 C.3    71  ILE71       0.0001
@<TRIPOS>BOND
     1    67    66    1
     2    66    68    1
     3    66    65    1
     4    65    62    1
     5    62    63    1
     6    62    61    1
     7    63    64    2
     8    75    77   ar
     9    75    74   ar
    10    73    74    1
    11    73    70    1
    12    86    84    1
    13    77    78   ar
    14    74    76   ar
    15    78    76   ar
    16    70    69    1
    17    70    71    1
    18    71    72    2
    19    84    83    1
    20    85    83    1
    21    83    80    1
    22    56    54    1
    23    54    55    1
    24    54    51    1
    25    80    79    1
    26    80    81    1
    27    42    41    1
    28    41    40    1
    29    51    52    1
    30    51    50    1
    31    81    82    2
    32    40    39    1
    33     9    11   ar
    34     9     7   ar
    35    53    52    2
    36    52    57   am
    37    11    10   ar
    38    19    17    1
    39     7     6   ar
    40    57    58    1
    41    39    36    1
    42    58    59    1
    43    17    16    1
    44    10     8   ar
    45     1     2    1
    46    38    37    2
    47     6     8   ar
    48     6     5    1
    49    37    36    1
    50    37    43   am
    51    36    35    1
    52    59    60    2
    53    49    47    1
    54    43    44    1
    55    16    18    1
    56    16    13    1
    57     2     5    1
    58     2     3    1
    59    44    47    1
    60    44    45    1
    61    12    13    1
    62    12     3   am
    63    34    32   am
    64    33    32    2
    65    13    14    1
    66    32    31    1
    67     3     4    2
    68    46    45    2
    69    47    48    1
    70    23    22    2
    71    24    25    1
    72    24    21    1
    73    31    28    1
    74    28    27    1
    75    28    29    1
    76    25    26    1
    77    22    27   am
    78    22    21    1
    79    30    29    2
    80    14    15    2
    81    21    20    1
    82    26    20    1
