@<TRIPOS>MOLECULE
tmp/6igzU04.pdb
 177 171 0 0 0
SMALL
GASTEIGER

@<TRIPOS>ATOM
      1  N        113.8300  237.3070  215.4110 N.3    47  ARG47      -0.1245
      2  CA       112.8420  237.5910  216.4430 C.3    47  ARG47       0.1563
      3  C        113.3670  238.5580  217.4920 C.2    47  ARG47       0.2260
      4  O        112.5730  239.1950  218.1880 O.2    47  ARG47      -0.2867
      5  CB       112.4100  236.2750  217.0920 C.3    47  ARG47       0.0307
      6  CG       111.3640  236.3850  218.1490 C.3    47  ARG47       0.0489
      7  CD       110.8550  235.0210  218.5940 C.3    47  ARG47       0.2205
      8  NE       110.1190  234.3150  217.5510 N.pl3  47  ARG47      -0.0865
      9  CZ       110.5630  233.2300  216.9280 C.cat  47  ARG47       0.5346
     10  NH1      111.7390  232.7140  217.2530 N.pl3  47  ARG47       0.1354
     11  NH2      109.8270  232.6540  215.9880 N.pl3  47  ARG47       0.1354
     12  N        114.7450  242.4530  215.4450 N.3    50  MET50      -0.1230
     13  CA       113.6070  243.1280  214.8440 C.3    50  MET50       0.1702
     14  C        113.0250  244.1720  215.7840 C.2    50  MET50       0.2592
     15  O        112.5310  245.2120  215.3370 O.2    50  MET50      -0.2718
     16  CB       112.5650  242.0850  214.4640 C.3    50  MET50       0.0401
     17  CG       111.4330  242.6050  213.6590 C.3    50  MET50       0.0596
     18  SD       110.4390  241.2550  213.0280 S.3    50  MET50      -0.1393
     19  CE       109.1620  242.1740  212.1860 C.3    50  MET50       0.0692
     20  N        113.1020  243.9220  217.0880 N.am   51  ASN51      -0.1974
     21  CA       112.7000  244.9210  218.0650 C.3    51  ASN51       0.1688
     22  C        113.7290  246.0300  218.1690 C.2    51  ASN51       0.2292
     23  O        113.3750  247.2090  218.2490 O.2    51  ASN51      -0.2864
     24  CB       112.5220  244.2520  219.4160 C.3    51  ASN51       0.1181
     25  CG       111.4430  243.2240  219.3890 C.2    51  ASN51       0.2629
     26  OD1      110.5430  243.2960  218.5630 O.2    51  ASN51      -0.2716
     27  ND2      111.5320  242.2410  220.2720 N.am   51  ASN51      -0.0877
     28  N        115.5570  247.4710  216.1830 N.3    53  VAL53      -0.1231
     29  CA       115.3290  248.5380  215.2220 C.3    53  VAL53       0.1692
     30  C        114.2190  249.4510  215.7190 C.2    53  VAL53       0.2591
     31  O        114.4170  250.6560  215.9070 O.2    53  VAL53      -0.2718
     32  CB       114.9980  247.9550  213.8410 C.3    53  VAL53       0.0266
     33  CG1      114.6580  249.0640  212.8970 C.3    53  VAL53       0.0020
     34  CG2      116.1640  247.1540  213.3170 C.3    53  VAL53       0.0020
     35  N        113.0420  248.8750  215.9720 N.am   54  ALA54      -0.1980
     36  CA       111.9270  249.6620  216.4830 C.3    54  ALA54       0.1597
     37  C        112.2990  250.3290  217.7920 C.2    54  ALA54       0.2287
     38  O        111.8530  251.4430  218.0800 O.2    54  ALA54      -0.2864
     39  CB       110.6960  248.7790  216.6610 C.3    54  ALA54       0.0319
     40  N        114.4090  253.1130  216.3420 N.3    57  VAL57      -0.1245
     41  CA       113.5940  253.9740  215.4890 C.3    57  VAL57       0.1561
     42  C        112.6260  254.7920  216.3290 C.2    57  VAL57       0.2260
     43  O        112.6730  256.0260  216.3290 O.2    57  VAL57      -0.2867
     44  CB       112.8530  253.1410  214.4340 C.3    57  VAL57       0.0252
     45  CG1      111.8640  254.0060  213.7050 C.3    57  VAL57       0.0019
     46  CG2      113.8410  252.5700  213.4590 C.3    57  VAL57       0.0019
     47  N        103.2000  229.4070  224.6220 N.3   119  TRP119     -0.1227
     48  CA       103.8310  230.2830  223.6460 C.3   119  TRP119      0.1737
     49  C        102.8350  231.2590  223.0280 C.2   119  TRP119      0.2595
     50  O        103.0230  232.4730  223.1420 O.2   119  TRP119     -0.2718
     51  CB       104.5520  229.4560  222.5830 C.3   119  TRP119      0.0564
     52  CG       103.7320  228.4570  221.8810 C.ar  119  TRP119      0.0003
     53  CD1      103.0500  228.6320  220.7230 C.ar  119  TRP119      0.0946
     54  CD2      103.5310  227.1000  222.2680 C.ar  119  TRP119      0.0152
     55  NE1      102.4180  227.4710  220.3660 N.ar  119  TRP119     -0.2442
     56  CE2      102.7010  226.5110  221.3000 C.ar  119  TRP119      0.0810
     57  CE3      103.9660  226.3260  223.3420 C.ar  119  TRP119      0.0012
     58  CZ2      102.2930  225.1840  221.3760 C.ar  119  TRP119      0.0191
     59  CZ3      103.5640  225.0120  223.4190 C.ar  119  TRP119      0.0001
     60  CH2      102.7340  224.4510  222.4420 C.ar  119  TRP119      0.0015
     61  N        101.7900  230.7580  222.3570 N.am  120  ASP120     -0.1960
     62  CA       100.7750  231.6360  221.7790 C.3   120  ASP120      0.1825
     63  C         99.5900  231.8450  222.7110 C.2   120  ASP120      0.2464
     64  O         98.7260  230.9680  222.8290 O.2   120  ASP120     -0.2730
     65  CB       100.2600  231.0730  220.4560 C.3   120  ASP120      0.1450
     66  CG       101.2250  231.2800  219.3300 C.2   120  ASP120      0.3671
     67  OD1      102.1350  232.1170  219.4910 O.co2 120  ASP120     -0.2456
     68  OD2      101.0690  230.6190  218.2840 O.co2 120  ASP120     -0.2456
     69  N         99.4950  233.0050  223.3620 N.am  121  PRO121     -0.2715
     70  CA        98.2770  233.2980  224.1270 C.3   121  PRO121      0.1536
     71  C         97.0770  233.5690  223.2410 C.2   121  PRO121      0.2598
     72  O         95.9500  233.2050  223.6020 O.2   121  PRO121     -0.2715
     73  CB        98.6760  234.5270  224.9500 C.3   121  PRO121      0.0310
     74  CG        99.7030  235.1950  224.1180 C.3   121  PRO121      0.0237
     75  CD       100.4720  234.1000  223.4430 C.3   121  PRO121      0.0939
     76  N         97.2780  234.2280  222.0990 N.am  122  LEU122     -0.1964
     77  CA        96.1650  234.4820  221.1940 C.3   122  LEU122      0.1728
     78  C         95.8630  233.2900  220.2960 C.2   122  LEU122      0.2617
     79  O         94.7030  233.0800  219.9260 O.2   122  LEU122     -0.2715
     80  CB        96.4480  235.7180  220.3480 C.3   122  LEU122      0.0311
     81  CG        96.5540  236.9850  221.1870 C.3   122  LEU122      0.0022
     82  CD1       96.8840  238.1810  220.3130 C.3   122  LEU122      0.0001
     83  CD2       95.2720  237.2080  221.9670 C.3   122  LEU122      0.0001
     84  N         96.8730  232.5030  219.9430 N.am  123  GLY123     -0.1940
     85  CA        96.6540  231.4060  219.0250 C.3   123  GLY123      0.2014
     86  C         96.2880  231.8760  217.6330 C.2   123  GLY123      0.2638
     87  O         95.2170  231.5330  217.1250 O.2   123  GLY123     -0.2714
     88  N         97.1590  232.6710  217.0070 N.am  124  MET124     -0.1976
     89  CA        96.8300  233.2510  215.7030 C.3   124  MET124      0.1605
     90  C         97.0690  232.2760  214.5530 C.2   124  MET124      0.2287
     91  O         96.1190  231.7260  213.9880 O.2   124  MET124     -0.2864
     92  CB        97.6230  234.5450  215.4860 C.3   124  MET124      0.0413
     93  CG        97.1820  235.6920  216.3680 C.3   124  MET124      0.0598
     94  SD        95.4810  236.1650  215.9900 S.3   124  MET124     -0.1393
     95  CE        95.2340  237.5350  217.1160 C.3   124  MET124      0.0692
     96  N        110.2160  238.9020  207.6300 N.3   136  ASN136     -0.1240
     97  CA       110.4480  240.1260  208.3810 C.3   136  ASN136      0.1653
     98  C        111.7320  240.0400  209.1900 C.2   136  ASN136      0.2266
     99  O        112.4150  241.0500  209.3890 O.2   136  ASN136     -0.2867
    100  CB       109.2580  240.4010  209.2860 C.3   136  ASN136      0.1155
    101  CG       108.0170  240.7480  208.5160 C.2   136  ASN136      0.2627
    102  OD1      106.9680  240.1440  208.7030 O.2   136  ASN136     -0.2716
    103  ND2      108.1190  241.7510  207.6620 N.am  136  ASN136     -0.0877
    104  N        114.9430  240.4460  207.0180 N.3   139  LEU139     -0.1231
    105  CA       115.0730  241.8580  206.7040 C.3   139  LEU139      0.1693
    106  C        115.4830  242.6650  207.9200 C.2   139  LEU139      0.2591
    107  O        116.2620  243.6150  207.8010 O.2   139  LEU139     -0.2718
    108  CB       113.7620  242.3760  206.1230 C.3   139  LEU139      0.0284
    109  CG       113.6550  243.8740  205.8800 C.3   139  LEU139      0.0019
    110  CD1      112.9690  244.1560  204.5750 C.3   139  LEU139      0.0001
    111  CD2      112.8220  244.4360  207.0080 C.3   139  LEU139      0.0001
    112  N        114.9750  242.3010  209.0940 N.am  140  ALA140     -0.1980
    113  CA       115.2470  243.0890  210.2910 C.3   140  ALA140      0.1597
    114  C        116.7260  243.0600  210.6420 C.2   140  ALA140      0.2287
    115  O        117.3570  244.1070  210.8260 O.2   140  ALA140     -0.2864
    116  CB       114.4070  242.5680  211.4530 C.3   140  ALA140      0.0319
    117  N        119.1340  242.2460  208.6170 N.3   142  PHE142     -0.1227
    118  CA       119.7390  243.0060  207.5330 C.3   142  PHE142      0.1736
    119  C        119.5610  244.4980  207.7580 C.2   142  PHE142      0.2595
    120  O        120.4860  245.2850  207.5310 O.2   142  PHE142     -0.2718
    121  CB       119.1260  242.5820  206.2000 C.3   142  PHE142      0.0547
    122  CG       119.6730  243.3170  205.0090 C.ar  142  PHE142     -0.0202
    123  CD1      120.8550  242.9200  204.4190 C.ar  142  PHE142     -0.0042
    124  CD2      118.9960  244.3950  204.4690 C.ar  142  PHE142     -0.0042
    125  CE1      121.3550  243.5890  203.3200 C.ar  142  PHE142     -0.0003
    126  CE2      119.4940  245.0670  203.3730 C.ar  142  PHE142     -0.0003
    127  CZ       120.6730  244.6610  202.7980 C.ar  142  PHE142     -0.0000
    128  N        118.3830  244.9060  208.2280 N.am  143  ALA143     -0.1980
    129  CA       118.1450  246.3200  208.4800 C.3   143  ALA143      0.1597
    130  C        119.0330  246.8480  209.5910 C.2   143  ALA143      0.2287
    131  O        119.3380  248.0440  209.6210 O.2   143  ALA143     -0.2864
    132  CB       116.6800  246.5540  208.8260 C.3   143  ALA143      0.0319
    133  N        122.7710  248.2280  208.6720 N.3   146  GLY146     -0.1210
    134  CA       122.7470  249.6040  208.2110 C.3   146  GLY146      0.1956
    135  C        122.9890  250.5870  209.3350 C.2   146  GLY146      0.2611
    136  O        123.8700  251.4430  209.2450 O.2   146  GLY146     -0.2717
    137  N        122.2330  250.4510  210.4290 N.am  147  PHE147     -0.1976
    138  CA       122.3870  251.3710  211.5500 C.3   147  PHE147      0.1639
    139  C        123.8370  251.4930  211.9750 C.2   147  PHE147      0.2290
    140  O        124.2810  252.5720  212.3850 O.2   147  PHE147     -0.2864
    141  CB       121.5570  250.9190  212.7490 C.3   147  PHE147      0.0560
    142  CG       120.0890  250.9220  212.5070 C.ar  147  PHE147     -0.0200
    143  CD1      119.5570  251.5590  211.4130 C.ar  147  PHE147     -0.0042
    144  CD2      119.2340  250.3110  213.3940 C.ar  147  PHE147     -0.0042
    145  CE1      118.2070  251.5650  211.1970 C.ar  147  PHE147     -0.0003
    146  CE2      117.8830  250.3200  213.1790 C.ar  147  PHE147     -0.0003
    147  CZ       117.3720  250.9510  212.0810 C.ar  147  PHE147     -0.0000
    148  N        125.5640  253.5970  209.4690 N.3   150  GLN150     -0.1245
    149  CA       125.0950  254.9710  209.5820 C.3   150  GLN150      0.1566
    150  C        125.8960  255.7280  210.6320 C.2   150  GLN150      0.2260
    151  O        126.2040  256.9140  210.4620 O.2   150  GLN150     -0.2867
    152  CB       123.6150  254.9990  209.9560 C.3   150  GLN150      0.0367
    153  CG       122.7030  254.2420  209.0330 C.3   150  GLN150      0.0905
    154  CD       122.7640  254.7340  207.6260 C.2   150  GLN150      0.2608
    155  OE1      123.3680  254.1010  206.7690 O.2   150  GLN150     -0.2717
    156  NE2      122.1530  255.8780  207.3720 N.am  150  GLN150     -0.0878
    157  N        119.4640  257.0400  211.6620 N.3   158  PRO158     -0.2116
    158  CA       118.6980  256.8610  210.4210 C.3   158  PRO158      0.1372
    159  C        117.7240  257.9850  210.1410 C.2   158  PRO158      0.2244
    160  O        117.5770  258.3950  208.9810 O.2   158  PRO158     -0.2868
    161  CB       117.9670  255.5380  210.6490 C.3   158  PRO158      0.0268
    162  CG       118.7700  254.8420  211.6700 C.3   158  PRO158      0.0207
    163  CD       119.3140  255.8930  212.5720 C.3   158  PRO158      0.0892
    164  N        119.4670  260.5330  208.4710 N.3   161  CYS161     -0.1221
    165  CA       119.8250  259.9270  207.1950 C.3   161  CYS161      0.1808
    166  C        118.6240  259.8560  206.2650 C.2   161  CYS161      0.2601
    167  O        118.6860  260.3020  205.1140 O.2   161  CYS161     -0.2717
    168  CB       120.3980  258.5340  207.4330 C.3   161  CYS161      0.0970
    169  SG       120.8580  257.6630  205.9340 S.3   161  CYS161     -0.0800
    170  N        117.5170  259.2940  206.7480 N.am  162  LEU162     -0.1979
    171  CA       116.3040  259.2500  205.9470 C.3   162  LEU162      0.1596
    172  C        115.7850  260.6460  205.6350 C.2   162  LEU162      0.2287
    173  O        115.0890  260.8290  204.6310 O.2   162  LEU162     -0.2864
    174  CB       115.2440  258.4240  206.6720 C.3   162  LEU162      0.0297
    175  CG       113.9000  258.2340  205.9800 C.3   162  LEU162      0.0022
    176  CD1      114.0940  257.4870  204.6810 C.3   162  LEU162      0.0001
    177  CD2      112.9510  257.4820  206.8870 C.3   162  LEU162      0.0001
@<TRIPOS>BOND
     1   127   125   ar
     2   127   126   ar
     3   125   123   ar
     4   126   124   ar
     5   123   122   ar
     6   124   122   ar
     7   110   109    1
     8   173   172    2
     9   176   175    1
    10   122   121    1
    11   167   166    2
    12   172   171    1
    13   109   108    1
    14   109   111    1
    15   169   168    1
    16   171   174    1
    17   171   170    1
    18   175   174    1
    19   175   177    1
    20   108   105    1
    21   121   118    1
    22   166   170   am
    23   166   165    1
    24   105   104    1
    25   105   106    1
    26   155   154    2
    27   165   168    1
    28   165   164    1
    29   156   154   am
    30   120   119    2
    31   118   119    1
    32   118   117    1
    33   154   153    1
    34    96    97    1
    35   103   101   am
    36   119   128   am
    37   107   106    2
    38   106   112   am
    39   134   133    1
    40   134   135    1
    41   128   129    1
    42    97    98    1
    43    97   100    1
    44   129   132    1
    45   129   130    1
    46   101   102    2
    47   101   100    1
    48   160   159    2
    49   153   152    1
    50   112   113    1
    51    98    99    2
    52   136   135    2
    53   135   137   am
    54   148   149    1
    55   149   152    1
    56   149   150    1
    57   130   131    2
    58   159   158    1
    59   113   114    1
    60   113   116    1
    61   158   161    1
    62   158   157    1
    63   137   138    1
    64   151   150    2
    65   114   115    2
    66   161   162    1
    67   145   143   ar
    68   145   147   ar
    69   143   142   ar
    70   138   139    1
    71   138   141    1
    72   157   163    1
    73   162   163    1
    74   139   140    2
    75   147   146   ar
    76    19    18    1
    77   142   141    1
    78   142   144   ar
    79    33    32    1
    80    18    17    1
    81   146   144   ar
    82    34    32    1
    83    46    44    1
    84    17    16    1
    85    45    44    1
    86    32    29    1
    87    91    90    2
    88    44    41    1
    89    16    13    1
    90    90    89    1
    91    13    12    1
    92    13    14    1
    93    29    30    1
    94    29    28    1
    95    15    14    2
    96     1     2    1
    97    92    89    1
    98    92    93    1
    99    41    42    1
   100    41    40    1
   101    89    88    1
   102    30    31    2
   103    30    35   am
   104    14    20   am
   105    35    36    1
   106    11     9    1
   107    94    93    1
   108    94    95    1
   109    42    43    2
   110     2     5    1
   111     2     3    1
   112    36    39    1
   113    36    37    1
   114     9    10    1
   115     9     8    2
   116    88    86   am
   117    20    21    1
   118     5     6    1
   119    87    86    2
   120     3     4    2
   121     8     7    1
   122    86    85    1
   123    37    38    2
   124    21    22    1
   125    21    24    1
   126     6     7    1
   127    22    23    2
   128    68    66   ar
   129    26    25    2
   130    85    84    1
   131    66    67   ar
   132    66    65    1
   133    25    24    1
   134    25    27   am
   135    79    78    2
   136    84    78   am
   137    78    77    1
   138    82    81    1
   139    80    81    1
   140    80    77    1
   141    55    53   ar
   142    55    56   ar
   143    65    62    1
   144    53    52   ar
   145    81    83    1
   146    77    76    1
   147    56    58   ar
   148    56    54   ar
   149    58    60   ar
   150    62    61    1
   151    62    63    1
   152    52    54   ar
   153    52    51    1
   154    76    71   am
   155    54    57   ar
   156    61    49   am
   157    60    59   ar
   158    51    48    1
   159    63    64    2
   160    63    69   am
   161    49    50    2
   162    49    48    1
   163    71    72    2
   164    71    70    1
   165    57    59   ar
   166    69    75    1
   167    69    70    1
   168    75    74    1
   169    48    47    1
   170    74    73    1
   171    70    73    1
