@<TRIPOS>MOLECULE
tmp/6igzS12.pdb
 180 178 0 0 0
SMALL
GASTEIGER

@<TRIPOS>ATOM
      1  N        265.7710  168.9620  219.8120 N.3    26  TRP26      -0.1227
      2  CA       265.2690  170.1520  220.4770 C.3    26  TRP26       0.1737
      3  C        264.7000  171.0860  219.4290 C.2    26  TRP26       0.2595
      4  O        265.4470  171.7320  218.6920 O.2    26  TRP26      -0.2718
      5  CB       266.3780  170.8220  221.2760 C.3    26  TRP26       0.0564
      6  CG       266.0120  172.0970  221.9200 C.ar   26  TRP26       0.0003
      7  CD1      265.1770  172.2650  222.9720 C.ar   26  TRP26       0.0946
      8  CD2      266.5870  173.3740  221.6610 C.ar   26  TRP26       0.0152
      9  NE1      265.1300  173.5830  223.3370 N.ar   26  TRP26      -0.2442
     10  CE2      265.9980  174.2840  222.5490 C.ar   26  TRP26       0.0810
     11  CE3      267.5250  173.8400  220.7470 C.ar   26  TRP26       0.0012
     12  CZ2      266.3080  175.6270  222.5450 C.ar   26  TRP26       0.0191
     13  CZ3      267.8340  175.1720  220.7510 C.ar   26  TRP26       0.0001
     14  CH2      267.2300  176.0520  221.6390 C.ar   26  TRP26       0.0015
     15  N        263.3800  171.1560  219.3740 N.am   27  ASP27      -0.1960
     16  CA       262.6700  172.2000  218.6440 C.3    27  ASP27       0.1825
     17  C        261.4210  172.5300  219.4410 C.2    27  ASP27       0.2464
     18  O        260.3010  172.2050  219.0380 O.2    27  ASP27      -0.2730
     19  CB       262.3500  171.7520  217.2200 C.3    27  ASP27       0.1450
     20  CG       261.6430  172.8170  216.4260 C.2    27  ASP27       0.3671
     21  OD1      262.1820  173.9360  216.3260 O.co2  27  ASP27      -0.2456
     22  OD2      260.5660  172.5290  215.8730 O.co2  27  ASP27      -0.2456
     23  N        261.5840  173.1560  220.6070 N.am   28  PRO28      -0.2715
     24  CA       260.4250  173.3750  221.4780 C.3    28  PRO28       0.1536
     25  C        259.4230  174.3470  220.9000 C.2    28  PRO28       0.2598
     26  O        258.2360  174.2670  221.2280 O.2    28  PRO28      -0.2715
     27  CB       261.0570  173.9200  222.7610 C.3    28  PRO28       0.0310
     28  CG       262.2660  174.6000  222.2940 C.3    28  PRO28       0.0237
     29  CD       262.7940  173.7880  221.1480 C.3    28  PRO28       0.0939
     30  N        259.8590  175.2710  220.0560 N.am   29  MET29      -0.1978
     31  CA       258.9030  176.1240  219.3780 C.3    29  MET29       0.1605
     32  C        258.0830  175.3660  218.3550 C.2    29  MET29       0.2287
     33  O        257.1300  175.9320  217.8170 O.2    29  MET29      -0.2864
     34  CB       259.6280  177.2770  218.6990 C.3    29  MET29       0.0413
     35  CG       260.2900  178.2310  219.6600 C.3    29  MET29       0.0598
     36  SD       259.1490  179.2090  220.6250 S.3    29  MET29      -0.1393
     37  CE       258.5430  180.2890  219.3360 C.3    29  MET29       0.0692
     38  N        258.7640  174.9900  215.4960 N.3    31  LEU31      -0.1245
     39  CA       258.7610  175.8750  214.3420 C.3    31  LEU31       0.1561
     40  C        259.1340  175.1290  213.0710 C.2    31  LEU31       0.2260
     41  O        258.4780  175.2790  212.0360 O.2    31  LEU31      -0.2867
     42  CB       259.7100  177.0380  214.5960 C.3    31  LEU31       0.0270
     43  CG       259.8540  178.0030  213.4360 C.3    31  LEU31       0.0019
     44  CD1      258.5030  178.5360  213.0710 C.3    31  LEU31       0.0001
     45  CD2      260.7270  179.1320  213.8570 C.3    31  LEU31       0.0001
     46  N        270.9160  177.8020  209.4340 N.3    45  GLU45      -0.1245
     47  CA       271.7520  177.3810  210.5510 C.3    45  GLU45       0.1567
     48  C        273.1840  177.1530  210.1010 C.2    45  GLU45       0.2260
     49  O        274.1280  177.5560  210.7850 O.2    45  GLU45      -0.2867
     50  CB       271.2010  176.1200  211.1970 C.3    45  GLU45       0.0388
     51  CG       271.9740  175.7190  212.4270 C.3    45  GLU45       0.1160
     52  CD       271.3890  174.5140  213.1160 C.2    45  GLU45       0.3649
     53  OE1      270.4480  173.9190  212.5650 O.co2  45  GLU45      -0.2457
     54  OE2      271.8550  174.1750  214.2220 O.co2  45  GLU45      -0.2457
     55  N        274.6770  180.6930  208.9020 N.3    48  HIS48      -0.1241
     56  CA       274.9550  181.4480  210.1160 C.3    48  HIS48       0.1621
     57  C        276.1380  180.8630  210.8620 C.2    48  HIS48       0.2264
     58  O        277.0570  181.5880  211.2560 O.2    48  HIS48      -0.2867
     59  CB       273.7210  181.4890  211.0070 C.3    48  HIS48       0.0745
     60  CG       272.6510  182.3960  210.5030 C.ar   48  HIS48       0.0817
     61  ND1      272.7190  183.7600  210.6480 N.ar   48  HIS48      -0.2268
     62  CD2      271.5090  182.1440  209.8260 C.ar   48  HIS48       0.1154
     63  CE1      271.6520  184.3110  210.1030 C.ar   48  HIS48       0.1986
     64  NE2      270.9040  183.3530  209.5940 N.ar   48  HIS48      -0.2212
     65  N        279.5030  181.8860  208.9550 N.3    51  TRP51      -0.1227
     66  CA       279.9040  183.2810  209.1000 C.3    51  TRP51       0.1737
     67  C        280.2540  183.6170  210.5350 C.2    51  TRP51       0.2595
     68  O        281.0700  184.5100  210.7820 O.2    51  TRP51      -0.2718
     69  CB       278.8030  184.2170  208.6170 C.3    51  TRP51       0.0564
     70  CG       278.6380  184.2340  207.1600 C.ar   51  TRP51       0.0003
     71  CD1      277.6610  183.6380  206.4410 C.ar   51  TRP51       0.0946
     72  CD2      279.5140  184.8480  206.2220 C.ar   51  TRP51       0.0152
     73  NE1      277.8520  183.8650  205.1040 N.ar   51  TRP51      -0.2442
     74  CE2      278.9910  184.6050  204.9450 C.ar   51  TRP51       0.0810
     75  CE3      280.6870  185.5910  206.3390 C.ar   51  TRP51       0.0012
     76  CZ2      279.6000  185.0770  203.7910 C.ar   51  TRP51       0.0191
     77  CZ3      281.2890  186.0560  205.1970 C.ar   51  TRP51       0.0001
     78  CH2      280.7470  185.8010  203.9380 C.ar   51  TRP51       0.0015
     79  N        279.6310  182.9400  211.4920 N.am   52  ALA52      -0.1980
     80  CA       280.0060  183.1460  212.8810 C.3    52  ALA52       0.1597
     81  C        281.4020  182.6060  213.1390 C.2    52  ALA52       0.2287
     82  O        282.2540  183.3010  213.7020 O.2    52  ALA52      -0.2864
     83  CB       278.9880  182.4830  213.8040 C.3    52  ALA52       0.0319
     84  N        283.8020  182.1220  211.0760 N.3    54  MET54      -0.1230
     85  CA       284.7350  183.0740  210.4930 C.3    54  MET54       0.1702
     86  C        284.7330  184.3770  211.2710 C.2    54  MET54       0.2592
     87  O        285.7830  184.9990  211.4550 O.2    54  MET54      -0.2718
     88  CB       284.3900  183.3260  209.0350 C.3    54  MET54       0.0401
     89  CG       284.6500  182.1560  208.1480 C.3    54  MET54       0.0596
     90  SD       286.3900  181.7300  208.2190 S.3    54  MET54      -0.1393
     91  CE       287.1080  183.2160  207.5350 C.3    54  MET54       0.0692
     92  N        283.5630  184.8030  211.7400 N.am   55  GLY55      -0.1957
     93  CA       283.4930  186.0490  212.4790 C.3    55  GLY55       0.1869
     94  C        284.2800  185.9950  213.7700 C.2    55  GLY55       0.2309
     95  O        285.1220  186.8540  214.0310 O.2    55  GLY55      -0.2863
     96  N        287.8620  186.0500  213.1450 N.3    58  GLY58      -0.1210
     97  CA       288.2770  187.3290  212.6010 C.3    58  GLY58       0.1956
     98  C        288.3130  188.4350  213.6310 C.2    58  GLY58       0.2611
     99  O        289.0680  189.3980  213.4860 O.2    58  GLY58      -0.2717
    100  N        287.5010  188.3260  214.6730 N.am   59  ILE59      -0.1979
    101  CA       287.5200  189.3430  215.7110 C.3    59  ILE59       0.1595
    102  C        288.7210  189.1450  216.6150 C.2    59  ILE59       0.2287
    103  O        289.4410  190.0970  216.9320 O.2    59  ILE59      -0.2864
    104  CB       286.2040  189.3080  216.4930 C.3    59  ILE59       0.0276
    105  CG1      285.0590  189.5860  215.5370 C.3    59  ILE59       0.0022
    106  CG2      286.2140  190.3450  217.5730 C.3    59  ILE59       0.0022
    107  CD1      283.7390  189.2540  216.0980 C.3    59  ILE59       0.0001
    108  N        291.6240  190.3250  214.7580 N.3    62  GLN62      -0.1245
    109  CA       291.7600  191.7740  214.7230 C.3    62  GLN62       0.1566
    110  C        292.4400  192.2970  215.9760 C.2    62  GLN62       0.2260
    111  O        293.4930  192.9370  215.9040 O.2    62  GLN62      -0.2867
    112  CB       290.3980  192.4360  214.5730 C.3    62  GLN62       0.0367
    113  CG       290.5000  193.9410  214.6510 C.3    62  GLN62       0.0905
    114  CD       289.1800  194.6370  214.4360 C.2    62  GLN62       0.2608
    115  OE1      288.1890  194.0150  214.0600 O.2    62  GLN62      -0.2717
    116  NE2      289.1530  195.9360  214.6980 N.am   62  GLN62      -0.0878
    117  N        286.9220  196.8970  218.4460 N.3    71  TRP71      -0.1241
    118  CA       286.4150  196.0160  217.4020 C.3    71  TRP71       0.1605
    119  C        285.0470  196.4350  216.8860 C.2    71  TRP71       0.2264
    120  O        284.8220  196.4850  215.6730 O.2    71  TRP71      -0.2867
    121  CB       286.3550  194.5840  217.9110 C.3    71  TRP71       0.0550
    122  CG       285.4820  193.8230  217.0390 C.ar   71  TRP71       0.0003
    123  CD1      285.7810  193.3350  215.8140 C.ar   71  TRP71       0.0946
    124  CD2      284.1270  193.4650  217.3020 C.ar   71  TRP71       0.0152
    125  NE1      284.6920  192.6930  215.2880 N.ar   71  TRP71      -0.2442
    126  CE2      283.6640  192.7540  216.1900 C.ar   71  TRP71       0.0810
    127  CE3      283.2640  193.6720  218.3760 C.ar   71  TRP71       0.0012
    128  CZ2      282.3700  192.2560  216.1140 C.ar   71  TRP71       0.0191
    129  CZ3      281.9860  193.1720  218.3000 C.ar   71  TRP71       0.0001
    130  CH2      281.5510  192.4710  217.1800 C.ar   71  TRP71       0.0015
    131  N        283.6270  198.9000  216.2440 N.3    73  GLU73      -0.1231
    132  CA       283.5180  199.9890  215.2940 C.3    73  GLU73       0.1699
    133  C        284.1510  199.6050  213.9670 C.2    73  GLU73       0.2592
    134  O        283.4560  199.1390  213.0620 O.2    73  GLU73      -0.2718
    135  CB       284.2090  201.2180  215.8700 C.3    73  GLU73       0.0402
    136  CG       284.2790  202.4160  214.9670 C.3    73  GLU73       0.1161
    137  CD       285.0530  203.5230  215.6230 C.2    73  GLU73       0.3649
    138  OE1      285.4790  203.3310  216.7810 O.co2  73  GLU73      -0.2457
    139  OE2      285.2640  204.5700  214.9900 O.co2  73  GLU73      -0.2457
    140  N        285.4620  199.7890  213.8390 N.am   74  ALA74      -0.1980
    141  CA       286.2580  199.2280  212.7530 C.3    74  ALA74       0.1597
    142  C        285.7680  199.6490  211.3730 C.2    74  ALA74       0.2287
    143  O        286.4960  199.5210  210.3870 O.2    74  ALA74      -0.2864
    144  CB       286.2790  197.7040  212.8500 C.3    74  ALA74       0.0319
    145  N        278.1230  181.0650  216.9850 N.3   166  MET166     -0.1230
    146  CA       276.9560  181.9410  216.9520 C.3   166  MET166      0.1702
    147  C        276.6330  182.4930  218.3300 C.2   166  MET166      0.2592
    148  O        276.2750  183.6650  218.4710 O.2   166  MET166     -0.2718
    149  CB       275.7480  181.2030  216.3810 C.3   166  MET166      0.0401
    150  CG       275.8280  180.9450  214.8990 C.3   166  MET166      0.0596
    151  SD       274.3290  180.2030  214.2520 S.3   166  MET166     -0.1393
    152  CE       274.5500  178.5300  214.8100 C.3   166  MET166      0.0692
    153  N        276.7610  181.6670  219.3630 N.am  167  VAL167     -0.1980
    154  CA       276.6150  182.1730  220.7200 C.3   167  VAL167      0.1595
    155  C        277.8270  183.0060  221.1040 C.2   167  VAL167      0.2287
    156  O        277.6990  184.1330  221.5920 O.2   167  VAL167     -0.2864
    157  CB       276.3930  181.0140  221.7030 C.3   167  VAL167      0.0276
    158  CG1      276.4160  181.5290  223.1110 C.3   167  VAL167      0.0022
    159  CG2      275.0730  180.3540  221.4220 C.3   167  VAL167      0.0022
    160  N        280.0210  184.5490  219.2410 N.3   169  TRP169     -0.1227
    161  CA       280.0330  185.8080  218.5090 C.3   169  TRP169      0.1737
    162  C        278.9870  186.7580  219.0590 C.2   169  TRP169      0.2596
    163  O        279.2250  187.9640  219.1550 O.2   169  TRP169     -0.2718
    164  CB       279.7910  185.5700  217.0250 C.3   169  TRP169      0.0564
    165  CG       279.9080  186.8110  216.2210 C.ar  169  TRP169      0.0003
    166  CD1      281.0160  187.2720  215.5850 C.ar  169  TRP169      0.0946
    167  CD2      278.8830  187.7770  215.9870 C.ar  169  TRP169      0.0152
    168  NE1      280.7450  188.4560  214.9530 N.ar  169  TRP169     -0.2442
    169  CE2      279.4410  188.7920  215.1930 C.ar  169  TRP169      0.0810
    170  CE3      277.5460  187.8820  216.3720 C.ar  169  TRP169      0.0012
    171  CZ2      278.7110  189.8920  214.7740 C.ar  169  TRP169      0.0191
    172  CZ3      276.8250  188.9780  215.9590 C.ar  169  TRP169      0.0001
    173  CH2      277.4070  189.9680  215.1680 C.ar  169  TRP169      0.0015
    174  N        277.8170  186.2350  219.4170 N.am  170  THR170     -0.1953
    175  CA       276.8070  187.0790  220.0380 C.3   170  THR170      0.1897
    176  C        277.3340  187.6950  221.3210 C.2   170  THR170      0.2313
    177  O        277.0720  188.8680  221.6100 O.2   170  THR170     -0.2863
    178  CB       275.5450  186.2710  220.3160 C.3   170  THR170      0.1794
    179  OG1      275.0380  185.7590  219.0820 O.3   170  THR170     -0.2208
    180  CG2      274.4870  187.1330  220.9730 C.3   170  THR170      0.0378
@<TRIPOS>BOND
     1    76    78   ar
     2    76    74   ar
     3    78    77   ar
     4    74    73   ar
     5    74    72   ar
     6    73    71   ar
     7    77    75   ar
     8    72    75   ar
     9    72    70   ar
    10    71    70   ar
    11    70    69    1
    12    91    90    1
    13    89    90    1
    14    89    88    1
    15    69    66    1
    16    55    56    1
    17    65    66    1
    18    88    85    1
    19    66    67    1
    20    46    47    1
    21    64    62   ar
    22    64    63   ar
    23    62    60   ar
    24    48    47    1
    25    48    49    2
    26    63    61   ar
    27    56    57    1
    28    56    59    1
    29   143   142    2
    30    85    84    1
    31    85    86    1
    32    60    61   ar
    33    60    59    1
    34    67    68    2
    35    67    79   am
    36    47    50    1
    37    57    58    2
    38    50    51    1
    39    86    87    2
    40    86    92   am
    41   142   141    1
    42    79    80    1
    43    92    93    1
    44    41    40    2
    45    51    52    1
    46    93    94    1
    47    53    52   ar
    48    97    96    1
    49    97    98    1
    50   141   144    1
    51   141   140    1
    52    80    81    1
    53    80    83    1
    54   134   133    2
    55    44    43    1
    56    40    39    1
    57    52    54   ar
    58    81    82    2
    59    43    45    1
    60    43    42    1
    61    99    98    2
    62    98   100   am
    63    94    95    2
    64   140   133   am
    65   133   132    1
    66   115   114    2
    67   151   152    1
    68   151   150    1
    69    39    42    1
    70    39    38    1
    71   114   113    1
    72   114   116   am
    73   112   113    1
    74   112   109    1
    75   100   101    1
    76   109   108    1
    77   109   110    1
    78   171   173   ar
    79   171   169   ar
    80   150   149    1
    81   168   169   ar
    82   168   166   ar
    83   136   137    1
    84   136   135    1
    85   139   137   ar
    86   173   172   ar
    87   169   167   ar
    88   125   123   ar
    89   125   126   ar
    90   132   135    1
    91   132   131    1
    92   105   107    1
    93   105   104    1
    94   166   165   ar
    95   137   138   ar
    96   120   119    2
    97   101   104    1
    98   101   102    1
    99   123   122   ar
   100    22    20   ar
   101   111   110    2
   102   172   170   ar
   103   167   165   ar
   104   167   170   ar
   105   128   126   ar
   106   128   130   ar
   107   126   124   ar
   108   165   164    1
   109    21    20   ar
   110   149   146    1
   111    20    19    1
   112   104   106    1
   113   102   103    2
   114   119   118    1
   115   146   145    1
   116   146   147    1
   117   164   161    1
   118   122   124   ar
   119   122   121    1
   120   130   129   ar
   121    19    16    1
   122   124   127   ar
   123   118   121    1
   124   118   117    1
   125    33    32    2
   126   129   127   ar
   127   147   148    2
   128   147   153   am
   129    32    31    1
   130   161   162    1
   131   161   160    1
   132    16    15    1
   133    16    17    1
   134     4     3    2
   135    34    31    1
   136    34    35    1
   137    18    17    2
   138   162   163    2
   139   162   174   am
   140   179   178    1
   141    37    36    1
   142   153   154    1
   143    15     3   am
   144    31    30    1
   145   174   175    1
   146     3     2    1
   147    17    23   am
   148    35    36    1
   149     1     2    1
   150   175   178    1
   151   175   176    1
   152    30    25   am
   153   178   180    1
   154     2     5    1
   155    23    29    1
   156    23    24    1
   157   154   155    1
   158   154   157    1
   159    11    13   ar
   160    11     8   ar
   161    13    14   ar
   162    25    26    2
   163    25    24    1
   164   155   156    2
   165    29    28    1
   166     5     6    1
   167   176   177    2
   168   159   157    1
   169    24    27    1
   170    14    12   ar
   171     8     6   ar
   172     8    10   ar
   173   157   158    1
   174     6     7   ar
   175    28    27    1
   176    12    10   ar
   177    10     9   ar
   178     7     9   ar
