@<TRIPOS>MOLECULE
tmp/6igzV11.pdb
 97 96 0 0 0
SMALL
GASTEIGER

@<TRIPOS>ATOM
      1  N        124.6910  225.5910  264.9060 N.3    49  TYR49      -0.1241
      2  CA       125.4720  226.5890  265.6130 C.3    49  TYR49       0.1605
      3  C        125.6040  227.8800  264.8170 C.2    49  TYR49       0.2264
      4  O        125.8540  228.9350  265.4090 O.2    49  TYR49      -0.2867
      5  CB       126.8380  226.0040  265.9520 C.3    49  TYR49       0.0534
      6  CG       127.7430  226.9270  266.7150 C.ar   49  TYR49      -0.0201
      7  CD1      127.5400  227.1640  268.0660 C.ar   49  TYR49      -0.0009
      8  CD2      128.8200  227.5380  266.0950 C.ar   49  TYR49      -0.0009
      9  CE1      128.3740  228.0040  268.7770 C.ar   49  TYR49       0.0417
     10  CE2      129.6630  228.3780  266.7960 C.ar   49  TYR49       0.0417
     11  CZ       129.4360  228.6080  268.1380 C.ar   49  TYR49       0.1957
     12  OH       130.2730  229.4460  268.8420 O.3    49  TYR49      -0.2866
     13  N        128.7090  242.9310  267.4440 N.3    68  TRP68      -0.1227
     14  CA       129.4210  241.6740  267.6520 C.3    68  TRP68       0.1737
     15  C        130.9280  241.8180  267.4930 C.2    68  TRP68       0.2595
     16  O        131.6960  241.2660  268.2870 O.2    68  TRP68      -0.2718
     17  CB       128.8970  240.6010  266.6980 C.3    68  TRP68       0.0564
     18  CG       129.0510  240.9320  265.2530 C.ar   68  TRP68       0.0003
     19  CD1      128.1600  241.5890  264.4690 C.ar   68  TRP68       0.0946
     20  CD2      130.1700  240.6240  264.4190 C.ar   68  TRP68       0.0152
     21  NE1      128.6490  241.7090  263.1940 N.ar   68  TRP68      -0.2442
     22  CE2      129.8850  241.1240  263.1390 C.ar   68  TRP68       0.0810
     23  CE3      131.3850  239.9710  264.6310 C.ar   68  TRP68       0.0012
     24  CZ2      130.7680  240.9990  262.0770 C.ar   68  TRP68       0.0191
     25  CZ3      132.2610  239.8500  263.5780 C.ar   68  TRP68       0.0001
     26  CH2      131.9490  240.3590  262.3150 C.ar   68  TRP68       0.0015
     27  N        131.3790  242.5460  266.4720 N.am   69  TRP69      -0.1962
     28  CA       132.8200  242.6350  266.2710 C.3    69  TRP69       0.1771
     29  C        133.4700  243.4270  267.3920 C.2    69  TRP69       0.2619
     30  O        134.5970  243.1270  267.8000 O.2    69  TRP69      -0.2715
     31  CB       133.1510  243.2430  264.9080 C.3    69  TRP69       0.0590
     32  CG       132.6870  244.6440  264.6840 C.ar   69  TRP69       0.0006
     33  CD1      133.3510  245.7860  265.0180 C.ar   69  TRP69       0.0946
     34  CD2      131.4960  245.0570  264.0080 C.ar   69  TRP69       0.0152
     35  NE1      132.6300  246.8860  264.6230 N.ar   69  TRP69      -0.2442
     36  CE2      131.4870  246.4640  264.0010 C.ar   69  TRP69       0.0810
     37  CE3      130.4280  244.3740  263.4250 C.ar   69  TRP69       0.0012
     38  CZ2      130.4550  247.1990  263.4280 C.ar   69  TRP69       0.0191
     39  CZ3      129.4000  245.1090  262.8600 C.ar   69  TRP69       0.0001
     40  CH2      129.4220  246.5060  262.8660 C.ar   69  TRP69       0.0015
     41  N        132.7660  244.4240  267.9140 N.am   70  GLU70      -0.1977
     42  CA       133.2250  245.2070  269.0490 C.3    70  GLU70       0.1602
     43  C        132.7060  244.6490  270.3700 C.2    70  GLU70       0.2287
     44  O        133.1360  245.0980  271.4340 O.2    70  GLU70      -0.2864
     45  CB       132.7970  246.6700  268.8540 C.3    70  GLU70       0.0415
     46  CG       133.3580  247.7050  269.8240 C.3    70  GLU70       0.1163
     47  CD       132.5850  247.7880  271.1200 C.2    70  GLU70       0.3649
     48  OE1      131.4100  247.3660  271.1380 O.co2  70  GLU70      -0.2457
     49  OE2      133.1530  248.2680  272.1220 O.co2  70  GLU70      -0.2457
     50  N        132.7910  241.3480  272.0200 N.3    72  GLY72      -0.1210
     51  CA       133.7140  240.6010  272.8580 C.3    72  GLY72       0.1956
     52  C        134.9120  241.4010  273.3180 C.2    72  GLY72       0.2611
     53  O        135.6710  240.9220  274.1690 O.2    72  GLY72      -0.2717
     54  N        135.0860  242.6130  272.7940 N.am   73  ALA73      -0.1979
     55  CA       136.1810  243.4620  273.2320 C.3    73  ALA73       0.1597
     56  C        135.9150  244.0120  274.6250 C.2    73  ALA73       0.2287
     57  O        136.6450  243.7070  275.5750 O.2    73  ALA73      -0.2864
     58  CB       136.3950  244.5960  272.2310 C.3    73  ALA73       0.0319
     59  N        134.1860  244.3370  277.9840 N.3    75  VAL75      -0.1245
     60  CA       133.4080  243.8020  279.0960 C.3    75  VAL75       0.1561
     61  C        134.3140  243.8620  280.3190 C.2    75  VAL75       0.2260
     62  O        135.5330  244.0090  280.2030 O.2    75  VAL75      -0.2867
     63  CB       132.9050  242.3490  278.8780 C.3    75  VAL75       0.0252
     64  CG1      131.8510  242.2680  277.7950 C.3    75  VAL75       0.0019
     65  CG2      134.0600  241.4370  278.5410 C.3    75  VAL75       0.0019
     66  N        136.1180  239.0890  282.3570 N.3    78  PRO78      -0.2116
     67  CA       137.2250  238.1140  282.3960 C.3    78  PRO78       0.1372
     68  C        138.2160  238.3890  283.5170 C.2    78  PRO78       0.2244
     69  O        138.7260  239.5020  283.6630 O.2    78  PRO78      -0.2868
     70  CB       137.8760  238.2700  281.0200 C.3    78  PRO78       0.0268
     71  CG       137.5220  239.6470  280.5910 C.3    78  PRO78       0.0207
     72  CD       136.1310  239.8530  281.0950 C.3    78  PRO78       0.0892
     73  N        139.2410  233.4370  281.8350 N.3    84  LEU84      -0.1231
     74  CA       138.3050  233.8300  280.7870 C.3    84  LEU84       0.1693
     75  C        138.0740  232.6940  279.7970 C.2    84  LEU84       0.2591
     76  O        136.9310  232.3770  279.4510 O.2    84  LEU84      -0.2718
     77  CB       138.8150  235.0970  280.0990 C.3    84  LEU84       0.0284
     78  CG       140.1870  235.1780  279.4170 C.3    84  LEU84       0.0019
     79  CD1      140.1590  234.7490  277.9640 C.3    84  LEU84       0.0001
     80  CD2      140.7980  236.5700  279.5590 C.3    84  LEU84       0.0001
     81  N        139.1530  232.0700  279.3260 N.am   85  ILE85      -0.1980
     82  CA       139.0250  230.9290  278.4240 C.3    85  ILE85       0.1595
     83  C        138.8060  229.6290  279.1920 C.2    85  ILE85       0.2287
     84  O        137.9730  228.8050  278.8010 O.2    85  ILE85      -0.2864
     85  CB       140.2530  230.8520  277.4930 C.3    85  ILE85       0.0276
     86  CG1      140.0990  229.7070  276.4870 C.3    85  ILE85       0.0022
     87  CG2      141.5570  230.7640  278.2880 C.3    85  ILE85       0.0022
     88  CD1      138.9830  229.9080  275.4860 C.3    85  ILE85       0.0001
     89  N        135.4020  228.1410  279.8320 N.3    88  GLU88      -0.1245
     90  CA       134.6860  227.7830  278.6160 C.3    88  GLU88       0.1567
     91  C        135.2790  226.5670  277.9170 C.2    88  GLU88       0.2260
     92  O        134.6140  225.9780  277.0600 O.2    88  GLU88      -0.2867
     93  CB       134.6600  229.0050  277.6940 C.3    88  GLU88       0.0388
     94  CG       133.9830  228.8080  276.3640 C.3    88  GLU88       0.1160
     95  CD       133.8330  230.0950  275.5830 C.2    88  GLU88       0.3649
     96  OE1      134.1140  231.1800  276.1350 O.co2  88  GLU88      -0.2457
     97  OE2      133.4760  230.0140  274.3940 O.co2  88  GLU88      -0.2457
@<TRIPOS>BOND
     1    24    26   ar
     2    24    22   ar
     3    26    25   ar
     4    39    40   ar
     5    39    37   ar
     6    40    38   ar
     7    22    21   ar
     8    22    20   ar
     9    21    19   ar
    10    37    34   ar
    11    38    36   ar
    12    25    23   ar
    13    36    34   ar
    14    36    35   ar
    15    34    32   ar
    16    20    23   ar
    17    20    18   ar
    18    19    18   ar
    19    35    33   ar
    20    32    31    1
    21    32    33   ar
    22     3     4    2
    23     3     2    1
    24     1     2    1
    25    31    28    1
    26    18    17    1
    27     2     5    1
    28     5     6    1
    29     8     6   ar
    30     8    10   ar
    31    28    27    1
    32    28    29    1
    33    27    15   am
    34    17    14    1
    35     6     7   ar
    36    10    11   ar
    37    29    30    2
    38    29    41   am
    39    13    14    1
    40    15    14    1
    41    15    16    2
    42    41    42    1
    43     7     9   ar
    44    11     9   ar
    45    11    12    1
    46    45    42    1
    47    45    46    1
    48    42    43    1
    49    46    47    1
    50    43    44    2
    51    47    48   ar
    52    47    49   ar
    53    50    51    1
    54    58    55    1
    55    54    55    1
    56    54    52   am
    57    51    52    1
    58    55    56    1
    59    52    53    2
    60    97    95   ar
    61    56    57    2
    62    88    86    1
    63    95    96   ar
    64    95    94    1
    65    94    93    1
    66    86    85    1
    67    92    91    2
    68    85    87    1
    69    85    82    1
    70    93    90    1
    71    64    63    1
    72    91    90    1
    73    79    78    1
    74    59    60    1
    75    82    83    1
    76    82    81    1
    77    65    63    1
    78    90    89    1
    79    84    83    2
    80    63    60    1
    81    60    61    1
    82    81    75   am
    83    78    80    1
    84    78    77    1
    85    76    75    2
    86    75    74    1
    87    77    74    1
    88    62    61    2
    89    71    70    1
    90    71    72    1
    91    74    73    1
    92    70    67    1
    93    72    66    1
    94    66    67    1
    95    67    68    1
    96    68    69    2
