@<TRIPOS>MOLECULE
tmp/6igzV13.pdb
 192 185 0 0 0
SMALL
GASTEIGER

@<TRIPOS>ATOM
      1  N        125.6650  220.7200  262.4050 N.3    45  MET45      -0.1245
      2  CA       126.3220  221.3880  263.5230 C.3    45  MET45       0.1570
      3  C        126.8120  222.7670  263.1240 C.2    45  MET45       0.2261
      4  O        126.5750  223.7470  263.8380 O.2    45  MET45      -0.2867
      5  CB       127.4790  220.5500  264.0540 C.3    45  MET45       0.0387
      6  CG       127.0670  219.3110  264.7970 C.3    45  MET45       0.0595
      7  SD       126.1310  219.6980  266.2870 S.3    45  MET45      -0.1393
      8  CE       124.4780  219.2570  265.7700 C.3    45  MET45       0.0692
      9  N        123.2910  224.4750  262.5430 N.3    48  ARG48      -0.1231
     10  CA       122.6810  224.7510  263.8380 C.3    48  ARG48       0.1694
     11  C        123.4340  225.8530  264.5660 C.2    48  ARG48       0.2592
     12  O        122.8990  226.9390  264.8120 O.2    48  ARG48      -0.2718
     13  CB       122.6430  223.4850  264.6900 C.3    48  ARG48       0.0321
     14  CG       121.6980  222.4090  264.2040 C.3    48  ARG48       0.0489
     15  CD       121.6730  221.2690  265.2040 C.3    48  ARG48       0.2205
     16  NE       120.8600  220.1360  264.7780 N.pl3  48  ARG48      -0.0865
     17  CZ       120.7620  218.9940  265.4530 C.cat  48  ARG48       0.5346
     18  NH1      121.4150  218.8330  266.5950 N.pl3  48  ARG48       0.1354
     19  NH2      120.0030  218.0120  264.9920 N.pl3  48  ARG48       0.1354
     20  N        124.6910  225.5910  264.9060 N.am   49  TYR49      -0.1976
     21  CA       125.4720  226.5890  265.6130 C.3    49  TYR49       0.1639
     22  C        125.6040  227.8800  264.8170 C.2    49  TYR49       0.2290
     23  O        125.8540  228.9350  265.4090 O.2    49  TYR49      -0.2864
     24  CB       126.8380  226.0040  265.9520 C.3    49  TYR49       0.0560
     25  CG       127.7430  226.9270  266.7150 C.ar   49  TYR49      -0.0198
     26  CD1      127.5400  227.1640  268.0660 C.ar   49  TYR49      -0.0009
     27  CD2      128.8200  227.5380  266.0950 C.ar   49  TYR49      -0.0009
     28  CE1      128.3740  228.0040  268.7770 C.ar   49  TYR49       0.0417
     29  CE2      129.6630  228.3780  266.7960 C.ar   49  TYR49       0.0417
     30  CZ       129.4360  228.6080  268.1380 C.ar   49  TYR49       0.1957
     31  OH       130.2730  229.4460  268.8420 O.3    49  TYR49      -0.2866
     32  N        123.0510  229.2180  262.5960 N.3    51  MET51      -0.1230
     33  CA       121.7950  229.9580  262.5780 C.3    51  MET51       0.1702
     34  C        121.5830  230.6890  263.8940 C.2    51  MET51       0.2592
     35  O        121.1320  231.8390  263.9100 O.2    51  MET51      -0.2718
     36  CB       120.6180  229.0290  262.2760 C.3    51  MET51       0.0401
     37  CG       120.3050  228.0120  263.3550 C.3    51  MET51       0.0596
     38  SD       118.9130  226.9280  262.9750 S.3    51  MET51      -0.1393
     39  CE       119.6770  225.5830  262.0820 C.3    51  MET51       0.0692
     40  N        121.9460  230.0560  265.0050 N.am   52  LEU52      -0.1980
     41  CA       121.8990  230.7500  266.2770 C.3    52  LEU52       0.1596
     42  C        122.9880  231.8020  266.3950 C.2    52  LEU52       0.2287
     43  O        122.9490  232.6050  267.3310 O.2    52  LEU52      -0.2864
     44  CB       121.9900  229.7360  267.4190 C.3    52  LEU52       0.0297
     45  CG       123.2110  228.8220  267.5600 C.3    52  LEU52       0.0022
     46  CD1      124.3540  229.5250  268.2620 C.3    52  LEU52       0.0001
     47  CD2      122.8470  227.5590  268.3140 C.3    52  LEU52       0.0001
     48  N        121.9210  235.7260  265.8890 N.3    55  MET55      -0.1245
     49  CA       121.1030  236.2900  266.9550 C.3    55  MET55       0.1570
     50  C        121.9310  237.1510  267.8950 C.2    55  MET55       0.2261
     51  O        121.4800  238.2130  268.3390 O.2    55  MET55      -0.2867
     52  CB       120.4340  235.1520  267.7200 C.3    55  MET55       0.0387
     53  CG       119.6240  234.2260  266.8340 C.3    55  MET55       0.0595
     54  SD       118.2570  235.0500  266.0110 S.3    55  MET55      -0.1393
     55  CE       117.1840  235.3340  267.4110 C.3    55  MET55       0.0692
     56  N        122.3700  213.6160  267.8630 N.3   111  VAL111     -0.1231
     57  CA       121.4220  214.0530  268.8800 C.3   111  VAL111      0.1692
     58  C        120.0340  214.1520  268.2530 C.2   111  VAL111      0.2591
     59  O        119.3380  215.1580  268.4130 O.2   111  VAL111     -0.2718
     60  CB       121.8680  215.3820  269.5190 C.3   111  VAL111      0.0266
     61  CG1      121.0760  215.6540  270.7960 C.3   111  VAL111      0.0020
     62  CG2      123.3620  215.3660  269.7970 C.3   111  VAL111      0.0020
     63  N        119.6510  213.1440  267.4690 N.am  112  LEU112     -0.1980
     64  CA       118.2990  213.0550  266.9180 C.3   112  LEU112      0.1596
     65  C        117.4000  212.2210  267.8200 C.2   112  LEU112      0.2287
     66  O        116.3510  212.6930  268.2670 O.2   112  LEU112     -0.2864
     67  CB       118.2990  212.5060  265.4880 C.3   112  LEU112      0.0297
     68  CG       118.9290  213.4670  264.4810 C.3   112  LEU112      0.0022
     69  CD1      118.8310  212.9300  263.0580 C.3   112  LEU112      0.0001
     70  CD2      118.2910  214.8370  264.6020 C.3   112  LEU112      0.0001
     71  N        117.9710  212.0090  270.5680 N.3   114  PHE114     -0.1241
     72  CA       117.8860  213.0530  271.5950 C.3   114  PHE114      0.1605
     73  C        118.0500  212.5100  273.0080 C.2   114  PHE114      0.2264
     74  O        117.5620  213.1050  273.9700 O.2   114  PHE114     -0.2867
     75  CB       116.5910  213.8800  271.4870 C.3   114  PHE114      0.0534
     76  CG       115.3010  213.1030  271.6900 C.ar  114  PHE114     -0.0203
     77  CD1      114.8250  212.8170  272.9640 C.ar  114  PHE114     -0.0042
     78  CD2      114.5210  212.7390  270.6060 C.ar  114  PHE114     -0.0042
     79  CE1      113.6400  212.1320  273.1430 C.ar  114  PHE114     -0.0003
     80  CE2      113.3350  212.0570  270.7830 C.ar  114  PHE114     -0.0003
     81  CZ       112.8940  211.7580  272.0530 C.ar  114  PHE114     -0.0000
     82  N        119.5410  215.2680  275.3070 N.3   117  PHE117     -0.1241
     83  CA       118.6320  216.3980  275.4850 C.3   117  PHE117      0.1605
     84  C        117.2570  216.0010  274.9660 C.2   117  PHE117      0.2264
     85  O        117.0780  215.8230  273.7580 O.2   117  PHE117     -0.2867
     86  CB       119.1400  217.6350  274.7430 C.3   117  PHE117      0.0534
     87  CG       120.4210  218.2030  275.2880 C.ar  117  PHE117     -0.0203
     88  CD1      120.8250  217.9350  276.5840 C.ar  117  PHE117     -0.0042
     89  CD2      121.2180  219.0160  274.5010 C.ar  117  PHE117     -0.0042
     90  CE1      122.0000  218.4660  277.0830 C.ar  117  PHE117     -0.0003
     91  CE2      122.3940  219.5500  274.9950 C.ar  117  PHE117     -0.0003
     92  CZ       122.7840  219.2750  276.2870 C.ar  117  PHE117     -0.0000
     93  N        113.7340  216.8970  273.9070 N.3   119  PRO119     -0.2102
     94  CA       112.8430  218.0010  273.5600 C.3   119  PRO119      0.1504
     95  C        111.4080  217.6370  273.9090 C.2   119  PRO119      0.2576
     96  O        111.1220  216.5670  274.4400 O.2   119  PRO119     -0.2718
     97  CB       113.0270  218.1260  272.0500 C.3   119  PRO119      0.0282
     98  CG       113.3410  216.7540  271.6160 C.3   119  PRO119      0.0208
     99  CD       114.1700  216.1590  272.7130 C.3   119  PRO119      0.0893
    100  N        110.4970  218.5510  273.5850 N.am  120  LEU120     -0.1966
    101  CA       109.0830  218.2170  273.6480 C.3   120  LEU120      0.1728
    102  C        108.6890  217.2100  272.5810 C.2   120  LEU120      0.2616
    103  O        107.6300  216.5930  272.7050 O.2   120  LEU120     -0.2715
    104  CB       108.2370  219.4800  273.5120 C.3   120  LEU120      0.0311
    105  CG       108.0160  220.2830  274.7930 C.3   120  LEU120      0.0022
    106  CD1      109.3110  220.8820  275.3090 C.3   120  LEU120      0.0001
    107  CD2      106.9750  221.3660  274.5640 C.3   120  LEU120      0.0001
    108  N        109.5040  217.0780  271.5290 N.am  121  ASN121     -0.1958
    109  CA       109.3580  216.0830  270.4580 C.3   121  ASN121      0.1819
    110  C        107.9170  215.9760  269.9660 C.2   121  ASN121      0.2621
    111  O        107.4560  214.9050  269.5630 O.2   121  ASN121     -0.2715
    112  CB       109.9250  214.7130  270.8680 C.3   121  ASN121      0.1195
    113  CG       109.1630  214.0400  272.0070 C.2   121  ASN121      0.2630
    114  OD1      107.9400  214.0950  272.0880 O.2   121  ASN121     -0.2716
    115  ND2      109.9050  213.3830  272.8920 N.am  121  ASN121     -0.0877
    116  N        107.2040  217.1010  269.9750 N.am  122  MET122     -0.1963
    117  CA       105.8500  217.1210  269.4420 C.3   122  MET122      0.1736
    118  C        105.8690  216.9940  267.9250 C.2   122  MET122      0.2616
    119  O        105.1670  216.1570  267.3460 O.2   122  MET122     -0.2715
    120  CB       105.1410  218.4050  269.8720 C.3   122  MET122      0.0427
    121  CG       104.8320  218.4880  271.3560 C.3   122  MET122      0.0599
    122  SD       104.0830  220.0700  271.7930 S.3   122  MET122     -0.1393
    123  CE       102.5030  219.9330  270.9610 C.3   122  MET122      0.0692
    124  N        106.6800  217.8220  267.2630 N.am  123  ARG123     -0.1963
    125  CA       106.7620  217.7880  265.8080 C.3   123  ARG123      0.1729
    126  C        107.6530  216.6510  265.3280 C.2   123  ARG123      0.2617
    127  O        107.3230  215.9710  264.3500 O.2   123  ARG123     -0.2715
    128  CB       107.3020  219.1180  265.2980 C.3   123  ARG123      0.0348
    129  CG       107.2650  219.2950  263.7990 C.3   123  ARG123      0.0492
    130  CD       107.9750  220.5820  263.4480 C.3   123  ARG123      0.2205
    131  NE       107.7960  220.9820  262.0620 N.pl3 123  ARG123     -0.0865
    132  CZ       108.2840  222.1060  261.5580 C.cat 123  ARG123      0.5346
    133  NH1      109.0110  222.9100  262.3180 N.pl3 123  ARG123      0.1354
    134  NH2      108.0640  222.4150  260.2940 N.pl3 123  ARG123      0.1354
    135  N        108.7790  216.4430  265.9980 N.am  124  SER124     -0.1936
    136  CA       109.7410  215.3600  265.7430 C.3   124  SER124      0.2055
    137  C        110.2460  215.4550  264.2980 C.2   124  SER124      0.2642
    138  O        110.4530  216.5650  263.7860 O.2   124  SER124     -0.2714
    139  CB       109.1020  214.0490  266.1100 C.3   124  SER124      0.2130
    140  OG       108.8190  214.0020  267.4970 O.3   124  SER124     -0.2179
    141  N        110.4110  214.3240  263.6080 N.am  125  GLU125     -0.1976
    142  CA       111.4750  214.1630  262.6220 C.3   125  GLU125      0.1602
    143  C        111.0990  214.5160  261.1870 C.2   125  GLU125      0.2287
    144  O        111.9960  214.5910  260.3420 O.2   125  GLU125     -0.2864
    145  CB       111.9770  212.7130  262.6410 C.3   125  GLU125      0.0415
    146  CG       112.5060  212.2310  263.9850 C.3   125  GLU125      0.1163
    147  CD       113.6460  213.0680  264.5090 C.2   125  GLU125      0.3649
    148  OE1      114.4830  213.5070  263.6980 O.co2 125  GLU125     -0.2457
    149  OE2      113.7110  213.2810  265.7340 O.co2 125  GLU125     -0.2457
    150  N        109.5870  217.2030  259.3490 N.3   127  ASN127     -0.1225
    151  CA       109.9620  218.4980  258.7940 C.3   127  ASN127      0.1785
    152  C        111.4320  218.8270  258.9820 C.2   127  ASN127      0.2597
    153  O        111.8430  219.9190  258.5810 O.2   127  ASN127     -0.2718
    154  CB       109.0990  219.6030  259.3910 C.3   127  ASN127      0.1169
    155  CG       107.6830  219.5780  258.8610 C.2   127  ASN127      0.2627
    156  OD1      107.4250  219.9840  257.7300 O.2   127  ASN127     -0.2716
    157  ND2      106.7560  219.1020  259.6770 N.am  127  ASN127     -0.0877
    158  N        112.2160  217.9240  259.5740 N.am  128  LYS128     -0.1980
    159  CA       113.5970  218.1570  259.9850 C.3   128  LYS128      0.1596
    160  C        114.3970  218.9010  258.9200 C.2   128  LYS128      0.2287
    161  O        115.3250  219.6500  259.2430 O.2   128  LYS128     -0.2864
    162  CB       114.2620  216.8150  260.2990 C.3   128  LYS128      0.0298
    163  CG       115.7170  216.8970  260.7130 C.3   128  LYS128      0.0038
    164  CD       115.8680  217.7070  261.9810 C.3   128  LYS128      0.0206
    165  CE       117.2480  217.5460  262.5900 C.3   128  LYS128      0.1093
    166  NZ       118.3120  218.0480  261.6840 N.3   128  LYS128     -0.1314
    167  N        113.2690  221.4010  257.4400 N.3   130  LYS130     -0.1231
    168  CA       112.9770  222.8190  257.6150 C.3   130  LYS130      0.1693
    169  C        113.9740  223.4770  258.5620 C.2   130  LYS130      0.2591
    170  O        114.4820  224.5690  258.2860 O.2   130  LYS130     -0.2718
    171  CB       111.5440  222.9920  258.1140 C.3   130  LYS130      0.0285
    172  CG       111.0940  224.4280  258.1990 C.3   130  LYS130      0.0035
    173  CD       109.6610  224.5370  258.6640 C.3   130  LYS130      0.0206
    174  CE       108.6750  224.0320  257.6270 C.3   130  LYS130      0.1093
    175  NZ       108.6780  224.8570  256.3890 N.3   130  LYS130     -0.1314
    176  N        114.2510  222.8330  259.6960 N.am  131  GLU131     -0.1979
    177  CA       115.3830  223.2210  260.5330 C.3   131  GLU131      0.1602
    178  C        116.6390  223.4120  259.7010 C.2   131  GLU131      0.2287
    179  O        117.1900  224.5140  259.6110 O.2   131  GLU131     -0.2864
    180  CB       115.6400  222.1540  261.5960 C.3   131  GLU131      0.0415
    181  CG       116.9460  222.3730  262.3560 C.3   131  GLU131      0.1163
    182  CD       117.2280  221.2860  263.3730 C.2   131  GLU131      0.3649
    183  OE1      116.3690  220.4010  263.5520 O.co2 131  GLU131     -0.2457
    184  OE2      118.3240  221.2990  263.9740 O.co2 131  GLU131     -0.2457
    185  N        116.1960  226.2620  257.2860 N.3   134  ASN134     -0.1240
    186  CA       116.1760  227.6140  257.8310 C.3   134  ASN134      0.1653
    187  C        117.5380  228.0570  258.3550 C.2   134  ASN134      0.2266
    188  O        117.8100  229.2610  258.3870 O.2   134  ASN134     -0.2867
    189  CB       115.1240  227.7350  258.9400 C.3   134  ASN134      0.1155
    190  CG       113.6920  227.6000  258.4230 C.2   134  ASN134      0.2627
    191  OD1      112.8980  226.8310  258.9620 O.2   134  ASN134     -0.2716
    192  ND2      113.3540  228.3670  257.3960 N.am  134  ASN134     -0.0877
@<TRIPOS>BOND
     1   175   174    1
     2   185   186    1
     3   192   190   am
     4   167   168    1
     5   168   171    1
     6   168   169    1
     7   174   173    1
     8   156   155    2
     9   186   187    1
    10   186   189    1
    11   171   172    1
    12   172   173    1
    13   170   169    2
    14   187   188    2
    15   190   189    1
    16   190   191    2
    17   169   176   am
    18   153   152    2
    19   151   152    1
    20   151   150    1
    21   151   154    1
    22   155   154    1
    23   155   157   am
    24   160   161    2
    25   160   159    1
    26   152   158   am
    27   158   159    1
    28   179   178    2
    29   176   177    1
    30   178   177    1
    31   159   162    1
    32   134   132    1
    33   162   163    1
    34   144   143    2
    35   177   180    1
    36   163   164    1
    37   143   142    1
    38   132   131    2
    39   132   133    1
    40   180   181    1
    41   166   165    1
    42   164   165    1
    43   131   130    1
    44    39    38    1
    45    36    33    1
    46    36    37    1
    47   181   182    1
    48     1     2    1
    49     9    10    1
    50    33    32    1
    51    33    34    1
    52   142   145    1
    53   142   141    1
    54   145   146    1
    55    38    37    1
    56    69    68    1
    57     3     2    1
    58     3     4    2
    59   182   183   ar
    60   182   184   ar
    61   130   129    1
    62     2     5    1
    63   141   137   am
    64   148   147   ar
    65   138   137    2
    66   129   128    1
    67    10    11    1
    68    10    13    1
    69    34    35    2
    70    34    40   am
    71   146   147    1
    72     5     6    1
    73    14    13    1
    74    14    15    1
    75   137   136    1
    76   127   126    2
    77    68    70    1
    78    68    67    1
    79   147   149   ar
    80    11    12    2
    81    11    20   am
    82    16    15    1
    83    16    17    2
    84     6     7    1
    85    22    23    2
    86    22    21    1
    87    20    21    1
    88    19    17    1
    89    40    41    1
    90   128   125    1
    91   126   125    1
    92   126   135   am
    93    17    18    1
    94    67    64    1
    95    21    24    1
    96   136   135    1
    97   136   139    1
    98     8     7    1
    99   125   124    1
   100    48    49    1
   101    24    25    1
   102    54    53    1
   103    54    55    1
   104    27    25   ar
   105    27    29   ar
   106   139   140    1
   107    41    42    1
   108    41    44    1
   109    42    43    2
   110    25    26   ar
   111    29    30   ar
   112    53    52    1
   113    64    63    1
   114    64    65    1
   115    49    52    1
   116    49    50    1
   117   124   118   am
   118   119   118    2
   119    44    45    1
   120    63    58   am
   121    45    46    1
   122    45    47    1
   123    65    66    2
   124    56    57    1
   125    50    51    2
   126   118   117    1
   127    26    28   ar
   128    30    28   ar
   129    30    31    1
   130    58    59    2
   131    58    57    1
   132    57    60    1
   133   117   120    1
   134   117   116    1
   135    60    62    1
   136    60    61    1
   137   111   110    2
   138   120   121    1
   139   110   116   am
   140   110   109    1
   141   109   112    1
   142   109   108    1
   143    71    72    1
   144    78    80   ar
   145    78    76   ar
   146    80    81   ar
   147   112   113    1
   148   123   122    1
   149   121   122    1
   150    75    72    1
   151    75    76    1
   152   108   102   am
   153    72    73    1
   154    98    97    1
   155    98    99    1
   156    76    77   ar
   157   113   114    2
   158   113   115   am
   159    97    94    1
   160    81    79   ar
   161   102   103    2
   162   102   101    1
   163    99    93    1
   164    77    79   ar
   165    73    74    2
   166   104   101    1
   167   104   105    1
   168    94    93    1
   169    94    95    1
   170   100   101    1
   171   100    95   am
   172    85    84    2
   173    95    96    2
   174    89    91   ar
   175    89    87   ar
   176   107   105    1
   177    86    87    1
   178    86    83    1
   179   105   106    1
   180    84    83    1
   181    91    92   ar
   182    87    88   ar
   183    82    83    1
   184    92    90   ar
   185    88    90   ar
