@<TRIPOS>MOLECULE
tmp/6igzN19.pdb
 155 149 0 0 0
SMALL
GASTEIGER

@<TRIPOS>ATOM
      1  N        240.1740  200.2770  194.0540 N.3    48  ARG48      -0.1245
      2  CA       240.8720  200.9000  192.9480 C.3    48  ARG48       0.1563
      3  C        241.0660  202.3920  193.1620 C.2    48  ARG48       0.2260
      4  O        242.1060  202.9300  192.7820 O.2    48  ARG48      -0.2867
      5  CB       240.1250  200.6300  191.6510 C.3    48  ARG48       0.0307
      6  CG       240.1140  199.1720  191.2420 C.3    48  ARG48       0.0489
      7  CD       239.4890  199.0440  189.8860 C.3    48  ARG48       0.2205
      8  NE       239.5340  197.6920  189.3500 N.pl3  48  ARG48      -0.0865
      9  CZ       238.5630  196.8040  189.4800 C.cat  48  ARG48       0.5346
     10  NH1      237.4530  197.1340  190.1020 N.pl3  48  ARG48       0.1354
     11  NH2      238.6930  195.5970  188.9650 N.pl3  48  ARG48       0.1354
     12  N        244.0490  202.6530  195.9410 N.3    51  MET51      -0.1230
     13  CA       245.3960  202.4830  195.4140 C.3    51  MET51       0.1702
     14  C        245.8500  203.6660  194.5720 C.2    51  MET51       0.2592
     15  O        247.0460  203.9630  194.5190 O.2    51  MET51      -0.2718
     16  CB       245.4700  201.1910  194.6100 C.3    51  MET51       0.0401
     17  CG       245.3260  199.9640  195.4620 C.3    51  MET51       0.0596
     18  SD       245.5650  198.4230  194.5800 S.3    51  MET51      -0.1393
     19  CE       244.0140  198.2890  193.7290 C.3    51  MET51       0.0692
     20  N        244.9270  204.3580  193.9130 N.am   52  LEU52      -0.1980
     21  CA       245.3120  205.6060  193.2730 C.3    52  LEU52       0.1596
     22  C        245.4270  206.7390  194.2740 C.2    52  LEU52       0.2287
     23  O        246.2720  207.6200  194.1060 O.2    52  LEU52      -0.2864
     24  CB       244.3190  206.0000  192.1840 C.3    52  LEU52       0.0297
     25  CG       244.2150  205.1700  190.9090 C.3    52  LEU52       0.0022
     26  CD1      243.1070  205.7350  190.0550 C.3    52  LEU52       0.0001
     27  CD2      245.5180  205.1820  190.1480 C.3    52  LEU52       0.0001
     28  N        233.9820  191.6250  180.4590 N.3   131  THR131     -0.1218
     29  CA       234.4360  190.2460  180.4240 C.3   131  THR131      0.1862
     30  C        233.5830  189.3280  181.2870 C.2   131  THR131      0.2287
     31  O        233.8910  188.1410  181.3980 O.2   131  THR131     -0.2866
     32  CB       235.9100  190.1700  180.8340 C.3   131  THR131      0.1770
     33  OG1      236.4170  188.8540  180.5850 O.3   131  THR131     -0.2211
     34  CG2      236.0790  190.5080  182.2930 C.3   131  THR131      0.0375
     35  N        235.2190  193.6950  186.7120 N.3   136  TYR136     -0.1228
     36  CA       236.3020  193.6150  185.7420 C.3   136  TYR136      0.1721
     37  C        235.7430  193.9040  184.3600 C.2   136  TYR136      0.2437
     38  O        235.0800  193.0430  183.7690 O.2   136  TYR136     -0.2733
     39  CB       236.9340  192.2260  185.7840 C.3   136  TYR136      0.0547
     40  CG       237.3120  191.8260  187.1730 C.ar  136  TYR136     -0.0200
     41  CD1      237.9330  192.7050  188.0170 C.ar  136  TYR136     -0.0009
     42  CD2      236.9970  190.5820  187.6530 C.ar  136  TYR136     -0.0009
     43  CE1      238.2540  192.3420  189.2890 C.ar  136  TYR136      0.0417
     44  CE2      237.3050  190.2160  188.9150 C.ar  136  TYR136      0.0417
     45  CZ       237.9350  191.0960  189.7330 C.ar  136  TYR136      0.1957
     46  OH       238.2500  190.7280  191.0130 O.3   136  TYR136     -0.2866
     47  N        235.9600  195.0930  183.8050 N.am  137  PRO137     -0.2718
     48  CA       235.5300  195.3130  182.4250 C.3   137  PRO137      0.1535
     49  C        236.3640  194.5680  181.4060 C.2   137  PRO137      0.2599
     50  O        235.8030  193.9660  180.4820 O.2   137  PRO137     -0.2715
     51  CB       235.6560  196.8290  182.2710 C.3   137  PRO137      0.0310
     52  CG       236.6970  197.2020  183.2240 C.3   137  PRO137      0.0237
     53  CD       236.5470  196.3000  184.3970 C.3   137  PRO137      0.0939
     54  N        237.6840  194.5610  181.5500 N.am  138  GLY138     -0.1955
     55  CA       238.5060  194.0690  180.4610 C.3   138  GLY138      0.1869
     56  C        238.3790  194.9620  179.2350 C.2   138  GLY138      0.2309
     57  O        237.8370  196.0640  179.2840 O.2   138  GLY138     -0.2863
     58  N        240.2860  199.7500  178.7810 N.3   142  PHE142     -0.1227
     59  CA       240.5430  199.5110  180.1930 C.3   142  PHE142      0.1736
     60  C        241.6660  198.5250  180.4220 C.2   142  PHE142      0.2595
     61  O        242.1240  198.3760  181.5560 O.2   142  PHE142     -0.2718
     62  CB       239.2760  198.9980  180.8460 C.3   142  PHE142      0.0547
     63  CG       238.1630  199.9650  180.7870 C.ar  142  PHE142     -0.0202
     64  CD1      238.4230  201.3110  180.7200 C.ar  142  PHE142     -0.0042
     65  CD2      236.8640  199.5390  180.7240 C.ar  142  PHE142     -0.0042
     66  CE1      237.4120  202.2080  180.6430 C.ar  142  PHE142     -0.0003
     67  CE2      235.8510  200.4350  180.6450 C.ar  142  PHE142     -0.0003
     68  CZ       236.1270  201.7700  180.6020 C.ar  142  PHE142     -0.0000
     69  N        242.1050  197.8490  179.3760 N.am  143  ASP143     -0.1974
     70  CA       243.0900  196.7790  179.4770 C.3   143  ASP143      0.1709
     71  C        243.9850  196.8630  178.2520 C.2   143  ASP143      0.2293
     72  O        243.9170  196.0240  177.3480 O.2   143  ASP143     -0.2864
     73  CB       242.3760  195.4370  179.5820 C.3   143  ASP143      0.1436
     74  CG       243.3050  194.2930  179.7300 C.2   143  ASP143      0.3671
     75  OD1      244.5250  194.4960  179.8530 O.co2 143  ASP143     -0.2456
     76  OD2      242.7850  193.1690  179.7110 O.co2 143  ASP143     -0.2456
     77  N        247.2380  196.4620  177.7990 N.3   145  PHE145     -0.1241
     78  CA       248.3120  195.4970  177.6210 C.3   145  PHE145      0.1605
     79  C        247.8180  194.0970  177.3240 C.2   145  PHE145      0.2264
     80  O        248.6340  193.1780  177.2190 O.2   145  PHE145     -0.2867
     81  CB       249.2360  195.4860  178.8310 C.3   145  PHE145      0.0534
     82  CG       250.1680  196.6450  178.8630 C.ar  145  PHE145     -0.0203
     83  CD1      251.3290  196.6180  178.1190 C.ar  145  PHE145     -0.0042
     84  CD2      249.8820  197.7650  179.6070 C.ar  145  PHE145     -0.0042
     85  CE1      252.1910  197.6760  178.1280 C.ar  145  PHE145     -0.0003
     86  CE2      250.7440  198.8330  179.6210 C.ar  145  PHE145     -0.0003
     87  CZ       251.9010  198.7860  178.8800 C.ar  145  PHE145     -0.0000
     88  N        246.5270  192.0050  179.0160 N.3   147  LEU147     -0.1231
     89  CA       246.6000  191.1070  180.1480 C.3   147  LEU147      0.1693
     90  C        245.1840  190.6510  180.4830 C.2   147  LEU147      0.2591
     91  O        244.2120  191.1770  179.9490 O.2   147  LEU147     -0.2718
     92  CB       247.2760  191.8170  181.3140 C.3   147  LEU147      0.0284
     93  CG       247.9560  190.9840  182.3800 C.3   147  LEU147      0.0019
     94  CD1      249.1450  191.7680  182.8770 C.3   147  LEU147      0.0001
     95  CD2      247.0100  190.6900  183.4960 C.3   147  LEU147      0.0001
     96  N        245.0660  189.6030  181.2910 N.am  148  ALA148     -0.1980
     97  CA       243.7720  189.0070  181.6160 C.3   148  ALA148      0.1597
     98  C        243.0980  188.4110  180.3930 C.2   148  ALA148      0.2287
     99  O        241.8810  188.2170  180.3790 O.2   148  ALA148     -0.2864
    100  CB       242.8260  190.0200  182.2730 C.3   148  ALA148      0.0319
    101  N        245.5910  184.7380  185.7690 N.3   155  LEU155     -0.1245
    102  CA       244.6650  185.8440  185.9710 C.3   155  LEU155      0.1561
    103  C        244.0410  185.7970  187.3570 C.2   155  LEU155      0.2260
    104  O        244.1600  186.7500  188.1340 O.2   155  LEU155     -0.2867
    105  CB       243.5890  185.8270  184.8990 C.3   155  LEU155      0.0270
    106  CG       242.5540  186.9020  185.1480 C.3   155  LEU155      0.0019
    107  CD1      243.2410  188.2370  185.1670 C.3   155  LEU155      0.0001
    108  CD2      241.5160  186.8490  184.0670 C.3   155  LEU155      0.0001
    109  N        246.1030  187.2520  189.7950 N.3   158  TYR158     -0.1227
    110  CA       246.1230  188.7040  189.9300 C.3   158  TYR158      0.1736
    111  C        244.9160  189.2080  190.6980 C.2   158  TYR158      0.2595
    112  O        245.0520  190.0330  191.6030 O.2   158  TYR158     -0.2718
    113  CB       246.1650  189.3910  188.5650 C.3   158  TYR158      0.0548
    114  CG       247.4980  189.3810  187.8780 C.ar  158  TYR158     -0.0200
    115  CD1      248.4870  190.2650  188.2630 C.ar  158  TYR158     -0.0009
    116  CD2      247.7430  188.5590  186.8020 C.ar  158  TYR158     -0.0009
    117  CE1      249.6940  190.2910  187.6400 C.ar  158  TYR158      0.0417
    118  CE2      248.9520  188.5840  186.1660 C.ar  158  TYR158      0.0417
    119  CZ       249.9260  189.4550  186.5920 C.ar  158  TYR158      0.1957
    120  OH       251.1430  189.4870  185.9630 O.3   158  TYR158     -0.2866
    121  N        243.7260  188.7250  190.3390 N.am  159  LYS159     -0.1980
    122  CA       242.5020  189.1750  190.9880 C.3   159  LYS159      0.1596
    123  C        242.5960  189.0670  192.4970 C.2   159  LYS159      0.2287
    124  O        241.9410  189.8240  193.2160 O.2   159  LYS159     -0.2864
    125  CB       241.3210  188.3550  190.4780 C.3   159  LYS159      0.0298
    126  CG       240.8890  188.6880  189.0680 C.3   159  LYS159      0.0038
    127  CD       240.1920  187.5180  188.4130 C.3   159  LYS159      0.0206
    128  CE       239.0110  187.0480  189.2090 C.3   159  LYS159      0.1093
    129  NZ       238.4140  185.8530  188.5770 N.3   159  LYS159     -0.1314
    130  N        245.6580  189.3930  194.1170 N.3   161  LYS161     -0.1231
    131  CA       246.5990  190.4520  194.4640 C.3   161  LYS161      0.1693
    132  C        245.9190  191.8070  194.4780 C.2   161  LYS161      0.2591
    133  O        246.1870  192.6340  195.3530 O.2   161  LYS161     -0.2718
    134  CB       247.7560  190.4760  193.4750 C.3   161  LYS161      0.0285
    135  CG       248.6700  189.2870  193.5050 C.3   161  LYS161      0.0035
    136  CD       249.7400  189.4830  192.4580 C.3   161  LYS161      0.0206
    137  CE       250.7390  188.3640  192.4230 C.3   161  LYS161      0.1093
    138  NZ       251.5160  188.2610  193.6760 N.3   161  LYS161     -0.1314
    139  N        245.0490  192.0590  193.5010 N.am  162  GLU162     -0.1979
    140  CA       244.4280  193.3700  193.3800 C.3   162  GLU162      0.1602
    141  C        243.6190  193.7120  194.6110 C.2   162  GLU162      0.2287
    142  O        243.6980  194.8320  195.1230 O.2   162  GLU162     -0.2864
    143  CB       243.5450  193.4240  192.1410 C.3   162  GLU162      0.0415
    144  CG       242.7680  194.7050  192.0210 C.3   162  GLU162      0.1163
    145  CD       241.9790  194.7840  190.7440 C.2   162  GLU162      0.3649
    146  OE1      242.1140  193.8700  189.9140 O.co2 162  GLU162     -0.2457
    147  OE2      241.2040  195.7450  190.5790 O.co2 162  GLU162     -0.2457
    148  N        245.9230  194.0310  197.8000 N.3   165  ASN165     -0.1240
    149  CA       246.6190  195.3090  197.7480 C.3   165  ASN165      0.1653
    150  C        245.6520  196.4600  197.9030 C.2   165  ASN165      0.2266
    151  O        246.0410  197.5360  198.3650 O.2   165  ASN165     -0.2867
    152  CB       247.3700  195.4620  196.4320 C.3   165  ASN165      0.1155
    153  CG       248.5280  194.5290  196.3260 C.2   165  ASN165      0.2627
    154  OD1      249.5900  194.7750  196.8850 O.2   165  ASN165     -0.2716
    155  ND2      248.3310  193.4320  195.6170 N.am  165  ASN165     -0.0877
@<TRIPOS>BOND
     1    80    79    2
     2    79    78    1
     3    72    71    2
     4    78    77    1
     5    78    81    1
     6    83    85   ar
     7    83    82   ar
     8    85    87   ar
     9    71    70    1
    10    58    59    1
    11    81    82    1
    12    82    84   ar
    13    87    86   ar
    14    88    89    1
    15    56    57    2
    16    56    55    1
    17    69    70    1
    18    69    60   am
    19    70    73    1
    20    73    74    1
    21    84    86   ar
    22    76    74   ar
    23    74    75   ar
    24    91    90    2
    25    89    90    1
    26    89    92    1
    27    59    60    1
    28    59    62    1
    29    99    98    2
    30    98    97    1
    31    60    61    2
    32    29    28    1
    33    29    32    1
    34    29    30    1
    35    55    54    1
    36    50    49    2
    37    90    96   am
    38    33    32    1
    39    68    66   ar
    40    68    67   ar
    41    66    64   ar
    42    67    65   ar
    43    64    63   ar
    44    65    63   ar
    45    63    62    1
    46    32    34    1
    47    30    31    2
    48    96    97    1
    49    92    93    1
    50    49    54   am
    51    49    48    1
    52    97   100    1
    53    51    48    1
    54    51    52    1
    55    93    94    1
    56    93    95    1
    57    48    47    1
    58    52    53    1
    59    38    37    2
    60    47    37   am
    61    47    53    1
    62   108   106    1
    63    37    36    1
    64   105   106    1
    65   105   102    1
    66   106   107    1
    67    36    39    1
    68    36    35    1
    69   101   102    1
    70    39    40    1
    71   120   119    1
    72   102   103    1
    73   118   119   ar
    74   118   116   ar
    75   119   117   ar
    76   116   114   ar
    77    40    42   ar
    78    40    41   ar
    79   103   104    2
    80   117   115   ar
    81    42    44   ar
    82   114   115   ar
    83   114   113    1
    84    41    43   ar
    85   127   126    1
    86   127   128    1
    87   113   110    1
    88   129   128    1
    89    44    45   ar
    90    11     9    1
    91   126   125    1
    92    43    45   ar
    93     8     9    2
    94     8     7    1
    95     9    10    1
    96    45    46    1
    97   109   110    1
    98     7     6    1
    99   146   145   ar
   100   110   111    1
   101    26    25    1
   102    27    25    1
   103   121   111   am
   104   121   122    1
   105   125   122    1
   106   147   145   ar
   107   111   112    2
   108   145   144    1
   109    25    24    1
   110   122   123    1
   111     6     5    1
   112     5     2    1
   113   144   143    1
   114   143   140    1
   115    24    21    1
   116   137   136    1
   117   137   138    1
   118   136   135    1
   119   123   124    2
   120     4     3    2
   121     2     3    1
   122     2     1    1
   123    21    20    1
   124    21    22    1
   125   140   139    1
   126   140   141    1
   127   134   135    1
   128   134   131    1
   129   139   132   am
   130    19    18    1
   131    20    14   am
   132    23    22    2
   133   130   131    1
   134   131   132    1
   135   132   133    2
   136    15    14    2
   137    14    13    1
   138    18    17    1
   139    16    13    1
   140    16    17    1
   141   141   142    2
   142    13    12    1
   143   155   153   am
   144   153   152    1
   145   153   154    2
   146   152   149    1
   147   149   148    1
   148   149   150    1
   149   150   151    2
