@<TRIPOS>MOLECULE
tmp/6igzN14.pdb
 119 119 0 0 0
SMALL
GASTEIGER

@<TRIPOS>ATOM
      1  N        240.1010  203.0780  193.7720 N.3    49  TRP49      -0.1241
      2  CA       240.3220  204.4810  194.0970 C.3    49  TRP49       0.1605
      3  C        241.3090  204.6410  195.2340 C.2    49  TRP49       0.2264
      4  O        242.0590  205.6190  195.2660 O.2    49  TRP49      -0.2867
      5  CB       239.0230  205.1760  194.4680 C.3    49  TRP49       0.0550
      6  CG       238.1350  205.3880  193.3230 C.ar   49  TRP49       0.0003
      7  CD1      237.0400  204.6670  192.9990 C.ar   49  TRP49       0.0946
      8  CD2      238.2840  206.3730  192.3060 C.ar   49  TRP49       0.0152
      9  NE1      236.4760  205.1510  191.8550 N.ar   49  TRP49      -0.2442
     10  CE2      237.2270  206.2020  191.4070 C.ar   49  TRP49       0.0810
     11  CE3      239.2100  207.3900  192.0710 C.ar   49  TRP49       0.0012
     12  CZ2      237.0660  207.0050  190.2900 C.ar   49  TRP49       0.0191
     13  CZ3      239.0510  208.1850  190.9640 C.ar   49  TRP49       0.0001
     14  CH2      237.9880  207.9900  190.0870 C.ar   49  TRP49       0.0015
     15  N        244.9270  204.3580  193.9130 N.3    52  LEU52      -0.1231
     16  CA       245.3120  205.6060  193.2730 C.3    52  LEU52       0.1693
     17  C        245.4270  206.7390  194.2740 C.2    52  LEU52       0.2592
     18  O        246.2720  207.6200  194.1060 O.2    52  LEU52      -0.2718
     19  CB       244.3190  206.0000  192.1840 C.3    52  LEU52       0.0284
     20  CG       244.2150  205.1700  190.9090 C.3    52  LEU52       0.0019
     21  CD1      243.1070  205.7350  190.0550 C.3    52  LEU52       0.0001
     22  CD2      245.5180  205.1820  190.1480 C.3    52  LEU52       0.0001
     23  N        244.5940  206.7430  195.3100 N.am   53  GLY53      -0.1957
     24  CA       244.6500  207.8320  196.2650 C.3    53  GLY53       0.1869
     25  C        245.9250  207.8150  197.0800 C.2    53  GLY53       0.2309
     26  O        246.5440  208.8560  197.3030 O.2    53  GLY53      -0.2863
     27  N        249.0340  206.5550  196.4760 N.3    55  VAL55      -0.1231
     28  CA       250.1570  207.0660  195.7020 C.3    55  VAL55       0.1692
     29  C        249.9960  208.5570  195.4560 C.2    55  VAL55       0.2592
     30  O        250.9670  209.3180  195.5050 O.2    55  VAL55      -0.2718
     31  CB       250.2840  206.2880  194.3840 C.3    55  VAL55       0.0266
     32  CG1      251.3980  206.8510  193.5510 C.3    55  VAL55       0.0020
     33  CG2      250.5080  204.8290  194.6670 C.3    55  VAL55       0.0020
     34  N        248.7690  209.0030  195.2090 N.am   56  GLY56      -0.1957
     35  CA       248.5510  210.4170  194.9850 C.3    56  GLY56       0.1869
     36  C        248.8600  211.2610  196.2020 C.2    56  GLY56       0.2309
     37  O        249.1630  212.4470  196.0770 O.2    56  GLY56      -0.2863
     38  N        253.3800  210.4540  196.9180 N.3    59  VAL59      -0.1231
     39  CA       254.3750  210.9780  195.9860 C.3    59  VAL59       0.1678
     40  C        254.5630  212.4840  196.1280 C.2    59  VAL59       0.2434
     41  O        255.7090  212.9220  196.3160 O.2    59  VAL59      -0.2733
     42  CB       254.0350  210.5440  194.5500 C.3    59  VAL59       0.0265
     43  CG1      254.9790  211.1990  193.5820 C.3    59  VAL59       0.0020
     44  CG2      254.1230  209.0480  194.4430 C.3    59  VAL59       0.0020
     45  N        253.5210  213.3200  196.0670 N.am   60  PRO60      -0.2729
     46  CA       253.7380  214.7480  196.3410 C.3    60  PRO60       0.1401
     47  C        254.3450  215.0050  197.6990 C.2    60  PRO60       0.2269
     48  O        255.0920  215.9770  197.8620 O.2    60  PRO60      -0.2865
     49  CB       252.3330  215.3420  196.2350 C.3    60  PRO60       0.0296
     50  CG       251.6360  214.4400  195.3220 C.3    60  PRO60       0.0237
     51  CD       252.1400  213.0710  195.6330 C.3    60  PRO60       0.0939
     52  N        258.6180  222.0190  195.7420 N.3    69  ASP69      -0.1225
     53  CA       257.4390  222.8260  196.0470 C.3    69  ASP69       0.1805
     54  C        256.1090  222.2060  195.6400 C.2    69  ASP69       0.2598
     55  O        255.4380  222.6940  194.7280 O.2    69  ASP69      -0.2718
     56  CB       257.5880  224.2460  195.4660 C.3    69  ASP69       0.1424
     57  CG       257.7010  224.2970  193.9400 C.2    69  ASP69       0.3668
     58  OD1      257.4380  223.3090  193.2320 O.co2  69  ASP69      -0.2456
     59  OD2      258.0590  225.3790  193.4330 O.co2  69  ASP69      -0.2456
     60  N        255.6930  221.1630  196.3250 N.am   70  PHE70      -0.1963
     61  CA       254.3080  220.7850  196.1170 C.3    70  PHE70       0.1756
     62  C        253.5920  221.0040  197.4370 C.2    70  PHE70       0.2461
     63  O        254.2420  221.3020  198.4430 O.2    70  PHE70      -0.2730
     64  CB       254.1890  219.3290  195.6790 C.3    70  PHE70       0.0574
     65  CG       254.8630  219.0250  194.3860 C.ar   70  PHE70      -0.0200
     66  CD1      254.2600  219.3360  193.1900 C.ar   70  PHE70      -0.0042
     67  CD2      256.0800  218.3810  194.3640 C.ar   70  PHE70      -0.0042
     68  CE1      254.8690  219.0400  191.9980 C.ar   70  PHE70      -0.0003
     69  CE2      256.6940  218.0810  193.1730 C.ar   70  PHE70      -0.0003
     70  CZ       256.0870  218.4090  191.9900 C.ar   70  PHE70      -0.0000
     71  N        252.2830  220.8630  197.4910 N.am   71  PRO71      -0.2727
     72  CA       251.6160  220.9370  198.7900 C.3    71  PRO71       0.1402
     73  C        251.4880  219.5580  199.3960 C.2    71  PRO71       0.2269
     74  O        251.8830  218.5730  198.7680 O.2    71  PRO71      -0.2865
     75  CB       250.2510  221.5280  198.4410 C.3    71  PRO71       0.0296
     76  CG       249.9990  221.0190  197.0850 C.3    71  PRO71       0.0237
     77  CD       251.3200  220.9750  196.3850 C.3    71  PRO71       0.0939
     78  N        248.7190  216.5870  200.6520 N.3    73  TRP73      -0.1241
     79  CA       247.4710  216.1990  200.0150 C.3    73  TRP73       0.1605
     80  C        246.3230  217.0490  200.5320 C.2    73  TRP73       0.2264
     81  O        245.5080  217.5480  199.7520 O.2    73  TRP73      -0.2867
     82  CB       247.1980  214.7190  200.2380 C.3    73  TRP73       0.0550
     83  CG       247.0630  214.3310  201.6460 C.ar   73  TRP73       0.0003
     84  CD1      248.0530  213.9310  202.4790 C.ar   73  TRP73       0.0946
     85  CD2      245.8580  214.2970  202.4040 C.ar   73  TRP73       0.0152
     86  NE1      247.5410  213.6500  203.7160 N.ar   73  TRP73      -0.2442
     87  CE2      246.1900  213.8690  203.6910 C.ar   73  TRP73       0.0810
     88  CE3      244.5280  214.5970  202.1180 C.ar   73  TRP73       0.0012
     89  CZ2      245.2450  213.7270  204.6870 C.ar   73  TRP73       0.0191
     90  CZ3      243.5950  214.4550  203.1050 C.ar   73  TRP73       0.0001
     91  CH2      243.9520  214.0210  204.3710 C.ar   73  TRP73       0.0015
     92  N        246.0260  220.8110  199.1990 N.3    76  ALA76      -0.1231
     93  CA       246.3070  220.9010  197.7770 C.3    76  ALA76       0.1694
     94  C        245.1020  221.3890  197.0000 C.2    76  ALA76       0.2592
     95  O        245.2520  221.8330  195.8600 O.2    76  ALA76      -0.2718
     96  CB       246.7500  219.5490  197.2230 C.3    76  ALA76       0.0304
     97  N        243.9160  221.3230  197.5990 N.am   77  GLY77      -0.1957
     98  CA       242.7530  221.9050  196.9610 C.3    77  GLY77       0.1869
     99  C        242.8720  223.4100  196.8450 C.2    77  GLY77       0.2309
    100  O        242.6930  223.9750  195.7640 O.2    77  GLY77      -0.2863
    101  N        245.6460  225.3640  197.0910 N.3    79  VAL79      -0.1231
    102  CA       246.8140  225.8170  196.3390 C.3    79  VAL79       0.1692
    103  C        246.5410  225.8580  194.8510 C.2    79  VAL79       0.2592
    104  O        247.0480  226.7340  194.1420 O.2    79  VAL79      -0.2718
    105  CB       248.0220  224.9260  196.6570 C.3    79  VAL79       0.0266
    106  CG1      249.1750  225.2710  195.7540 C.3    79  VAL79       0.0020
    107  CG2      248.4230  225.1110  198.0930 C.3    79  VAL79       0.0020
    108  N        245.7230  224.9390  194.3490 N.am   80  TYR80      -0.1976
    109  CA       245.4000  224.9950  192.9340 C.3    80  TYR80       0.1639
    110  C        244.4940  226.1790  192.6320 C.2    80  TYR80       0.2290
    111  O        244.7890  226.9860  191.7440 O.2    80  TYR80      -0.2864
    112  CB       244.7520  223.7000  192.4680 C.3    80  TYR80       0.0560
    113  CG       244.4530  223.7780  191.0020 C.ar   80  TYR80      -0.0198
    114  CD1      245.4400  223.5420  190.0700 C.ar   80  TYR80      -0.0009
    115  CD2      243.2060  224.1590  190.5510 C.ar   80  TYR80      -0.0009
    116  CE1      245.1820  223.6380  188.7370 C.ar   80  TYR80       0.0417
    117  CE2      242.9430  224.2610  189.2220 C.ar   80  TYR80       0.0417
    118  CZ       243.9320  224.0040  188.3200 C.ar   80  TYR80       0.1957
    119  OH       243.6660  224.1090  186.9810 O.3    80  TYR80      -0.2866
@<TRIPOS>BOND
     1   119   118    1
     2   118   116   ar
     3   118   117   ar
     4   116   114   ar
     5   117   115   ar
     6    21    20    1
     7   114   113   ar
     8    14    12   ar
     9    14    13   ar
    10    22    20    1
    11    12    10   ar
    12   115   113   ar
    13    20    19    1
    14    13    11   ar
    15   113   112    1
    16    10     9   ar
    17    10     8   ar
    18   111   110    2
    19     9     7   ar
    20    70    68   ar
    21    70    69   ar
    22    68    66   ar
    23    11     8   ar
    24    19    16    1
    25     8     6   ar
    26   112   109    1
    27   110   109    1
    28   109   108    1
    29     7     6   ar
    30    69    67   ar
    31    66    65   ar
    32    58    57   ar
    33    16    15    1
    34    16    17    1
    35     6     5    1
    36    59    57   ar
    37    32    31    1
    38    43    42    1
    39     1     2    1
    40    57    56    1
    41     2     5    1
    42     2     3    1
    43    18    17    2
    44   104   103    2
    45    17    23   am
    46   108   103   am
    47    67    65   ar
    48    31    33    1
    49    31    28    1
    50    65    64    1
    51    44    42    1
    52    42    39    1
    53    55    54    2
    54   103   102    1
    55    35    34    1
    56    35    36    1
    57    34    29   am
    58     3     4    2
    59    23    24    1
    60    50    51    1
    61    50    49    1
    62    29    30    2
    63    29    28    1
    64    56    53    1
    65    51    45    1
    66    54    53    1
    67    54    60   am
    68    64    61    1
    69    28    27    1
    70    52    53    1
    71   106   105    1
    72   100    99    2
    73    95    94    2
    74    39    40    1
    75    39    38    1
    76    45    40   am
    77    45    46    1
    78    37    36    2
    79    61    60    1
    80    61    62    1
    81    40    41    2
    82    49    46    1
    83    24    25    1
    84   102   105    1
    85   102   101    1
    86    46    47    1
    87    77    76    1
    88    77    71    1
    89   105   107    1
    90    99    98    1
    91    98    97    1
    92    94    97   am
    93    94    93    1
    94    25    26    2
    95    76    75    1
    96    96    93    1
    97    62    71   am
    98    62    63    2
    99    71    72    1
   100    47    48    2
   101    93    92    1
   102    75    72    1
   103    74    73    2
   104    72    73    1
   105    81    80    2
   106    79    82    1
   107    79    80    1
   108    79    78    1
   109    82    83    1
   110    83    85   ar
   111    83    84   ar
   112    88    85   ar
   113    88    90   ar
   114    85    87   ar
   115    84    86   ar
   116    90    91   ar
   117    87    86   ar
   118    87    89   ar
   119    91    89   ar
