@<TRIPOS>MOLECULE
tmp/6igzS13.pdb
 86 84 0 0 0
SMALL
GASTEIGER

@<TRIPOS>ATOM
      1  N        279.5030  181.8860  208.9550 N.3    51  TRP51      -0.1241
      2  CA       279.9040  183.2810  209.1000 C.3    51  TRP51       0.1605
      3  C        280.2540  183.6170  210.5350 C.2    51  TRP51       0.2264
      4  O        281.0700  184.5100  210.7820 O.2    51  TRP51      -0.2867
      5  CB       278.8030  184.2170  208.6170 C.3    51  TRP51       0.0550
      6  CG       278.6380  184.2340  207.1600 C.ar   51  TRP51       0.0003
      7  CD1      277.6610  183.6380  206.4410 C.ar   51  TRP51       0.0946
      8  CD2      279.5140  184.8480  206.2220 C.ar   51  TRP51       0.0152
      9  NE1      277.8520  183.8650  205.1040 N.ar   51  TRP51      -0.2442
     10  CE2      278.9910  184.6050  204.9450 C.ar   51  TRP51       0.0810
     11  CE3      280.6870  185.5910  206.3390 C.ar   51  TRP51       0.0012
     12  CZ2      279.6000  185.0770  203.7910 C.ar   51  TRP51       0.0191
     13  CZ3      281.2890  186.0560  205.1970 C.ar   51  TRP51       0.0001
     14  CH2      280.7470  185.8010  203.9380 C.ar   51  TRP51       0.0015
     15  N        283.8020  182.1220  211.0760 N.3    54  MET54      -0.1245
     16  CA       284.7350  183.0740  210.4930 C.3    54  MET54       0.1570
     17  C        284.7330  184.3770  211.2710 C.2    54  MET54       0.2261
     18  O        285.7830  184.9990  211.4550 O.2    54  MET54      -0.2867
     19  CB       284.3900  183.3260  209.0350 C.3    54  MET54       0.0387
     20  CG       284.6500  182.1560  208.1480 C.3    54  MET54       0.0595
     21  SD       286.3900  181.7300  208.2190 S.3    54  MET54      -0.1393
     22  CE       287.1080  183.2160  207.5350 C.3    54  MET54       0.0692
     23  N        281.5440  195.1680  196.7550 N.3    96  GLU96      -0.1245
     24  CA       281.0760  193.9710  197.4350 C.3    96  GLU96       0.1567
     25  C        279.7590  193.4830  196.8590 C.2    96  GLU96       0.2260
     26  O        279.5900  192.2870  196.6010 O.2    96  GLU96      -0.2867
     27  CB       280.9240  194.2480  198.9230 C.3    96  GLU96       0.0388
     28  CG       280.3750  193.0800  199.7030 C.3    96  GLU96       0.1160
     29  CD       280.3060  193.3870  201.1690 C.2    96  GLU96       0.3649
     30  OE1      280.6350  194.5290  201.5270 O.co2  96  GLU96      -0.2457
     31  OE2      279.9470  192.4970  201.9600 O.co2  96  GLU96      -0.2457
     32  N        277.9030  193.5270  194.0250 N.3    98  CYS98      -0.1221
     33  CA       277.8280  192.7250  192.8120 C.3    98  CYS98       0.1808
     34  C        278.5040  191.3760  192.9900 C.2    98  CYS98       0.2601
     35  O        278.1710  190.4180  192.2870 O.2    98  CYS98      -0.2717
     36  CB       278.4680  193.4760  191.6520 C.3    98  CYS98       0.0970
     37  SG       277.6550  195.0160  191.2420 S.3    98  CYS98      -0.0800
     38  N        279.4610  191.2820  193.9080 N.am   99  MET99      -0.1965
     39  CA       280.1070  190.0050  194.1630 C.3    99  MET99       0.1736
     40  C        279.1990  189.0840  194.9610 C.2    99  MET99       0.2616
     41  O        279.0060  187.9240  194.5920 O.2    99  MET99      -0.2715
     42  CB       281.4250  190.2240  194.8950 C.3    99  MET99       0.0427
     43  CG       282.4450  191.0090  194.1040 C.3    99  MET99       0.0599
     44  SD       282.9760  190.1350  192.6270 S.3    99  MET99      -0.1393
     45  CE       284.1110  191.3230  191.9190 C.3    99  MET99       0.0692
     46  N        278.6290  189.5860  196.0560 N.am  100  MET100     -0.1977
     47  CA       277.7890  188.7450  196.9020 C.3   100  MET100      0.1605
     48  C        276.4380  188.4890  196.2630 C.2   100  MET100      0.2287
     49  O        275.8800  187.3960  196.3980 O.2   100  MET100     -0.2864
     50  CB       277.6050  189.3830  198.2750 C.3   100  MET100      0.0413
     51  CG       278.8580  189.4050  199.1060 C.3   100  MET100      0.0598
     52  SD       279.4570  187.7420  199.4270 S.3   100  MET100     -0.1393
     53  CE       278.1570  187.1210  200.4780 C.3   100  MET100      0.0692
     54  N        275.7350  187.9400  193.2850 N.3   102  TYR102     -0.1227
     55  CA       275.8160  186.7990  192.3880 C.3   102  TYR102      0.1736
     56  C        275.8780  185.4990  193.1640 C.2   102  TYR102      0.2595
     57  O        275.0500  184.6080  192.9650 O.2   102  TYR102     -0.2718
     58  CB       277.0250  186.9170  191.4740 C.3   102  TYR102      0.0548
     59  CG       277.2420  185.6650  190.6770 C.ar  102  TYR102     -0.0200
     60  CD1      276.4030  185.3310  189.6340 C.ar  102  TYR102     -0.0009
     61  CD2      278.2810  184.8140  190.9690 C.ar  102  TYR102     -0.0009
     62  CE1      276.5930  184.1860  188.9140 C.ar  102  TYR102      0.0417
     63  CE2      278.4780  183.6720  190.2490 C.ar  102  TYR102      0.0417
     64  CZ       277.6330  183.3610  189.2270 C.ar  102  TYR102      0.1957
     65  OH       277.8360  182.2120  188.5090 O.3   102  TYR102     -0.2866
     66  N        276.8450  185.3840  194.0690 N.am  103  VAL103     -0.1980
     67  CA       277.0720  184.1210  194.7560 C.3   103  VAL103      0.1595
     68  C        275.8390  183.7000  195.5350 C.2   103  VAL103      0.2287
     69  O        275.4520  182.5280  195.5280 O.2   103  VAL103     -0.2864
     70  CB       278.2950  184.2390  195.6710 C.3   103  VAL103      0.0276
     71  CG1      278.4600  182.9750  196.4560 C.3   103  VAL103      0.0022
     72  CG2      279.5150  184.5190  194.8490 C.3   103  VAL103      0.0022
     73  N        278.9880  177.9510  184.8120 N.3   121  PRO121     -0.2102
     74  CA       278.6430  178.6350  183.5590 C.3   121  PRO121      0.1504
     75  C        279.9230  179.0670  182.8680 C.2   121  PRO121      0.2575
     76  O        280.9890  178.6190  183.2820 O.2   121  PRO121     -0.2718
     77  CB       277.7950  179.8190  184.0230 C.3   121  PRO121      0.0282
     78  CG       278.2780  180.0920  185.3910 C.3   121  PRO121      0.0208
     79  CD       278.6640  178.7700  185.9890 C.3   121  PRO121      0.0893
     80  N        279.8650  179.9080  181.8400 N.am  122  VAL122     -0.1980
     81  CA       281.0870  180.2940  181.1340 C.3   122  VAL122      0.1595
     82  C        281.7230  179.0200  180.5860 C.2   122  VAL122      0.2287
     83  O        281.2090  178.4410  179.6250 O.2   122  VAL122     -0.2864
     84  CB       282.0440  181.0930  182.0410 C.3   122  VAL122      0.0276
     85  CG1      283.2460  181.6050  181.2600 C.3   122  VAL122      0.0022
     86  CG2      281.3080  182.2410  182.6900 C.3   122  VAL122      0.0022
@<TRIPOS>BOND
     1    83    82    2
     2    82    81    1
     3    81    80    1
     4    81    84    1
     5    85    84    1
     6    80    75   am
     7    84    86    1
     8    75    76    2
     9    75    74    1
    10    74    77    1
    11    74    73    1
    12    77    78    1
    13    73    79    1
    14    78    79    1
    15    65    64    1
    16    62    64   ar
    17    62    60   ar
    18    64    63   ar
    19    60    59   ar
    20    63    61   ar
    21    59    61   ar
    22    59    58    1
    23    37    36    1
    24    58    55    1
    25    36    33    1
    26    45    44    1
    27    35    34    2
    28    55    56    1
    29    55    54    1
    30    44    43    1
    31    33    34    1
    32    33    32    1
    33    57    56    2
    34    34    38   am
    35    56    66   am
    36    38    39    1
    37    66    67    1
    38    43    42    1
    39    39    42    1
    40    39    40    1
    41    41    40    2
    42    67    68    1
    43    67    70    1
    44    72    70    1
    45    40    46   am
    46    69    68    2
    47    70    71    1
    48    46    47    1
    49    48    49    2
    50    48    47    1
    51    26    25    2
    52    23    24    1
    53    25    24    1
    54    47    50    1
    55    24    27    1
    56    50    51    1
    57    27    28    1
    58    51    52    1
    59    52    53    1
    60    28    29    1
    61    29    30   ar
    62    29    31   ar
    63    12    14   ar
    64    12    10   ar
    65    14    13   ar
    66    10     9   ar
    67    10     8   ar
    68     9     7   ar
    69    13    11   ar
    70     8    11   ar
    71     8     6   ar
    72     7     6   ar
    73     6     5    1
    74    22    21    1
    75    20    21    1
    76    20    19    1
    77     5     2    1
    78     1     2    1
    79    19    16    1
    80     2     3    1
    81    16    15    1
    82    16    17    1
    83     3     4    2
    84    17    18    2
