@<TRIPOS>MOLECULE
tmp/6igzK06.pdb
 84 81 0 0 0
SMALL
GASTEIGER

@<TRIPOS>ATOM
      1  N        227.1910  181.9320  271.2940 N.3    18  LEU18      -0.1231
      2  CA       227.4770  180.6020  270.7880 C.3    18  LEU18       0.1693
      3  C        228.0740  179.6900  271.8430 C.2    18  LEU18       0.2591
      4  O        228.3790  178.5370  271.5310 O.2    18  LEU18      -0.2718
      5  CB       228.3990  180.6820  269.5670 C.3    18  LEU18       0.0284
      6  CG       229.7380  181.4150  269.6240 C.3    18  LEU18       0.0019
      7  CD1      230.7940  180.6210  270.3350 C.3    18  LEU18       0.0001
      8  CD2      230.1960  181.7010  268.2170 C.3    18  LEU18       0.0001
      9  N        228.2630  180.1790  273.0670 N.am   19  ALA19      -0.1980
     10  CA       228.7630  179.3430  274.1480 C.3    19  ALA19       0.1597
     11  C        227.8870  178.1170  274.2860 C.2    19  ALA19       0.2287
     12  O        228.3040  177.0030  273.9620 O.2    19  ALA19      -0.2864
     13  CB       228.7850  180.1060  275.4690 C.3    19  ALA19       0.0319
     14  N        226.0500  176.1200  271.3070 N.3    22  ARG22      -0.1231
     15  CA       226.4650  174.7310  271.1910 C.3    22  ARG22       0.1694
     16  C        225.3250  173.7910  271.5430 C.2    22  ARG22       0.2592
     17  O        224.9880  172.8900  270.7700 O.2    22  ARG22      -0.2718
     18  CB       227.6570  174.4940  272.1180 C.3    22  ARG22       0.0321
     19  CG       228.1490  173.0750  272.1980 C.3    22  ARG22       0.0489
     20  CD       228.7770  172.6250  270.9080 C.3    22  ARG22       0.2205
     21  NE       229.2090  171.2400  271.0060 N.pl3  22  ARG22      -0.0865
     22  CZ       228.4120  170.2070  270.7700 C.cat  22  ARG22       0.5346
     23  NH1      228.8690  168.9750  270.8900 N.pl3  22  ARG22       0.1354
     24  NH2      227.1510  170.4070  270.4170 N.pl3  22  ARG22       0.1354
     25  N        224.7110  173.9920  272.7090 N.am   23  PHE23      -0.1976
     26  CA       223.6760  173.0890  273.2020 C.3    23  PHE23       0.1639
     27  C        222.4380  173.8550  273.6510 C.2    23  PHE23       0.2290
     28  O        222.4540  174.5380  274.6760 O.2    23  PHE23      -0.2864
     29  CB       224.2380  172.2230  274.3280 C.3    23  PHE23       0.0560
     30  CG       224.9820  172.9960  275.3920 C.ar   23  PHE23      -0.0200
     31  CD1      226.3380  173.2480  275.2580 C.ar   23  PHE23      -0.0042
     32  CD2      224.3390  173.4520  276.5260 C.ar   23  PHE23      -0.0042
     33  CE1      227.0270  173.9440  276.2220 C.ar   23  PHE23      -0.0003
     34  CE2      225.0250  174.1500  277.4940 C.ar   23  PHE23      -0.0003
     35  CZ       226.3710  174.3970  277.3400 C.ar   23  PHE23      -0.0000
     36  N        229.9180  168.2890  259.1600 N.3    48  THR48      -0.1203
     37  CA       230.9190  169.0410  259.8950 C.3    48  THR48       0.1994
     38  C        231.5550  168.1340  260.9310 C.2    48  THR48       0.2618
     39  O        230.8520  167.4230  261.6550 O.2    48  THR48      -0.2717
     40  CB       230.3190  170.2870  260.5580 C.3    48  THR48       0.1784
     41  OG1      231.3520  171.0110  261.2310 O.3    48  THR48      -0.2211
     42  CG2      229.2250  169.9300  261.5400 C.3    48  THR48       0.0376
     43  N        232.8850  168.1200  260.9680 N.am   49  GLY49      -0.1942
     44  CA       233.5820  167.5000  262.0710 C.3    49  GLY49       0.2014
     45  C        233.3200  168.3090  263.3190 C.2    49  GLY49       0.2639
     46  O        233.6470  169.5050  263.3650 O.2    49  GLY49      -0.2714
     47  N        232.7340  167.6840  264.3330 N.am   50  ASP50      -0.1957
     48  CA       232.2880  168.3170  265.5680 C.3    50  ASP50       0.1825
     49  C        231.5290  167.2420  266.3310 C.2    50  ASP50       0.2464
     50  O        230.8520  166.4240  265.7020 O.2    50  ASP50      -0.2730
     51  CB       231.3870  169.5220  265.2940 C.3    50  ASP50       0.1450
     52  CG       231.0710  170.3030  266.5420 C.2    50  ASP50       0.3671
     53  OD1      231.9540  171.0270  267.0330 O.co2  50  ASP50      -0.2456
     54  OD2      229.9640  170.1400  267.0810 O.co2  50  ASP50      -0.2456
     55  N        231.5940  167.1980  267.6620 N.am   51  PRO51      -0.2727
     56  CA       231.0720  166.0120  268.3520 C.3    51  PRO51       0.1402
     57  C        229.5920  165.7830  268.1250 C.2    51  PRO51       0.2269
     58  O        229.1930  164.6540  267.8170 O.2    51  PRO51      -0.2865
     59  CB       231.4040  166.2970  269.8210 C.3    51  PRO51       0.0296
     60  CG       231.4870  167.7580  269.9040 C.3    51  PRO51       0.0237
     61  CD       232.0650  168.2110  268.6150 C.3    51  PRO51       0.0939
     62  N        226.9490  170.4790  265.3200 N.3    54  PHE54      -0.1241
     63  CA       227.1580  171.9200  265.3670 C.3    54  PHE54       0.1605
     64  C        227.8610  172.3380  264.0840 C.2    54  PHE54       0.2264
     65  O        229.0550  172.0790  263.9110 O.2    54  PHE54      -0.2867
     66  CB       227.9560  172.3130  266.6030 C.3    54  PHE54       0.0534
     67  CG       228.1230  173.7860  266.7710 C.ar   54  PHE54      -0.0203
     68  CD1      227.1300  174.5420  267.3550 C.ar   54  PHE54      -0.0042
     69  CD2      229.2660  174.4150  266.3430 C.ar   54  PHE54      -0.0042
     70  CE1      227.2820  175.8880  267.5140 C.ar   54  PHE54      -0.0003
     71  CE2      229.4180  175.7610  266.5020 C.ar   54  PHE54      -0.0003
     72  CZ       228.4250  176.4960  267.0880 C.ar   54  PHE54      -0.0000
     73  N        229.3130  174.7850  260.9210 N.3    56  ALA56      -0.1245
     74  CA       230.1380  175.9790  260.8270 C.3    56  ALA56       0.1562
     75  C        229.3000  177.2230  260.5700 C.2    56  ALA56       0.2260
     76  O        229.7270  178.3340  260.8980 O.2    56  ALA56      -0.2867
     77  CB       231.1780  175.8020  259.7300 C.3    56  ALA56       0.0290
     78  N        228.1790  179.0120  263.6130 N.3    59  VAL59      -0.1245
     79  CA       229.1630  179.9390  264.1560 C.3    59  VAL59       0.1561
     80  C        228.8770  181.3560  263.6820 C.2    59  VAL59       0.2260
     81  O        228.7590  182.2850  264.4880 O.2    59  VAL59      -0.2867
     82  CB       230.5820  179.5060  263.7640 C.3    59  VAL59       0.0252
     83  CG1      231.5760  180.5230  264.2630 C.3    59  VAL59       0.0019
     84  CG2      230.8830  178.1420  264.3180 C.3    59  VAL59       0.0019
@<TRIPOS>BOND
     1    36    37    1
     2    77    74    1
     3    37    40    1
     4    37    38    1
     5    40    41    1
     6    40    42    1
     7    75    74    1
     8    75    76    2
     9    74    73    1
    10    38    43   am
    11    38    39    2
    12    43    44    1
    13    44    45    1
    14    45    46    2
    15    45    47   am
    16    78    79    1
    17    80    79    1
    18    80    81    2
    19    82    79    1
    20    82    83    1
    21    82    84    1
    22    65    64    2
    23    64    63    1
    24    47    48    1
    25    51    48    1
    26    51    52    1
    27    62    63    1
    28    63    66    1
    29    48    49    1
    30    50    49    2
    31    49    55   am
    32    69    71   ar
    33    69    67   ar
    34    71    72   ar
    35    52    53   ar
    36    52    54   ar
    37    66    67    1
    38    67    68   ar
    39    72    70   ar
    40    68    70   ar
    41    55    56    1
    42    55    61    1
    43    58    57    2
    44    57    56    1
    45     8     6    1
    46    56    59    1
    47    61    60    1
    48     5     6    1
    49     5     2    1
    50     6     7    1
    51    59    60    1
    52    24    22    1
    53    17    16    2
    54    22    23    1
    55    22    21    2
    56     2     1    1
    57     2     3    1
    58    20    21    1
    59    20    19    1
    60    15    14    1
    61    15    16    1
    62    15    18    1
    63     4     3    2
    64    16    25   am
    65     3     9   am
    66    18    19    1
    67    25    26    1
    68     9    10    1
    69    26    27    1
    70    26    29    1
    71    27    28    2
    72    12    11    2
    73    10    11    1
    74    10    13    1
    75    29    30    1
    76    31    30   ar
    77    31    33   ar
    78    30    32   ar
    79    33    35   ar
    80    32    34   ar
    81    35    34   ar
