@<TRIPOS>MOLECULE
tmp/6igzP21.pdb
 220 212 0 0 0
SMALL
GASTEIGER

@<TRIPOS>ATOM
      1  N        201.0550  213.2290  167.8430 N.3    41  GLN41      -0.1245
      2  CA       200.7720  214.4440  167.0980 C.3    41  GLN41       0.1566
      3  C        201.1630  215.6770  167.8960 C.2    41  GLN41       0.2260
      4  O        201.6760  216.6460  167.3330 O.2    41  GLN41      -0.2867
      5  CB       199.2990  214.4890  166.7190 C.3    41  GLN41       0.0367
      6  CG       198.9390  215.6260  165.8100 C.3    41  GLN41       0.0905
      7  CD       197.5110  215.5410  165.3450 C.2    41  GLN41       0.2608
      8  OE1      196.8090  214.5770  165.6390 O.2    41  GLN41      -0.2717
      9  NE2      197.0690  216.5500  164.6170 N.am   41  GLN41      -0.0878
     10  N        203.6270  218.6560  166.2620 N.3    45  VAL45      -0.1245
     11  CA       203.2030  220.0510  166.2210 C.3    45  VAL45       0.1561
     12  C        204.1760  220.9170  167.0020 C.2    45  VAL45       0.2260
     13  O        204.5840  221.9860  166.5460 O.2    45  VAL45      -0.2867
     14  CB       201.7730  220.2000  166.7540 C.3    45  VAL45       0.0252
     15  CG1      201.3940  221.6430  166.7520 C.3    45  VAL45       0.0019
     16  CG2      200.8210  219.4050  165.9080 C.3    45  VAL45       0.0019
     17  N        207.4950  220.7650  165.0680 N.3    48  ARG48      -0.1231
     18  CA       207.4860  221.6050  163.8810 C.3    48  ARG48       0.1694
     19  C        207.5560  223.0840  164.2370 C.2    48  ARG48       0.2592
     20  O        208.3350  223.8280  163.6400 O.2    48  ARG48      -0.2718
     21  CB       206.2590  221.3050  163.0340 C.3    48  ARG48       0.0321
     22  CG       206.2730  219.9250  162.4310 C.3    48  ARG48       0.0489
     23  CD       205.1230  219.7780  161.4870 C.3    48  ARG48       0.2205
     24  NE       205.1140  218.5000  160.7890 N.pl3  48  ARG48      -0.0865
     25  CZ       204.4560  217.4350  161.2090 C.cat  48  ARG48       0.5346
     26  NH1      203.7310  217.5050  162.3010 N.pl3  48  ARG48       0.1354
     27  NH2      204.4990  216.3130  160.5200 N.pl3  48  ARG48       0.1354
     28  N        206.7520  223.5390  165.1990 N.am   49  PHE49      -0.1976
     29  CA       206.8760  224.9280  165.6310 C.3    49  PHE49       0.1639
     30  C        208.2760  225.2210  166.1280 C.2    49  PHE49       0.2290
     31  O        208.8630  226.2510  165.7870 O.2    49  PHE49      -0.2864
     32  CB       205.8630  225.2780  166.7190 C.3    49  PHE49       0.0560
     33  CG       204.4940  225.5490  166.2070 C.ar   49  PHE49      -0.0200
     34  CD1      204.2330  226.7170  165.5300 C.ar   49  PHE49      -0.0042
     35  CD2      203.4560  224.6900  166.4640 C.ar   49  PHE49      -0.0042
     36  CE1      202.9850  226.9890  165.0580 C.ar   49  PHE49      -0.0003
     37  CE2      202.1950  224.9640  166.0050 C.ar   49  PHE49      -0.0003
     38  CZ       201.9590  226.1140  165.3020 C.ar   49  PHE49      -0.0000
     39  N        210.8910  225.6870  163.1010 N.3    52  MET52      -0.1245
     40  CA       210.6640  226.9950  162.4930 C.3    52  MET52       0.1570
     41  C        210.9440  228.1130  163.4800 C.2    52  MET52       0.2261
     42  O        211.7410  229.0140  163.2070 O.2    52  MET52      -0.2867
     43  CB       209.2310  227.1040  161.9800 C.3    52  MET52       0.0387
     44  CG       208.9270  226.2710  160.7680 C.3    52  MET52       0.0595
     45  SD       209.9490  226.7700  159.3840 S.3    52  MET52      -0.1393
     46  CE       209.3630  228.4380  159.1480 C.3    52  MET52       0.0692
     47  N        192.0390  233.5260  163.5190 N.3    99  LEU99      -0.1231
     48  CA       192.5470  233.0360  162.2480 C.3    99  LEU99       0.1693
     49  C        193.1840  231.6640  162.4080 C.2    99  LEU99       0.2591
     50  O        192.8680  230.7360  161.6600 O.2    99  LEU99      -0.2718
     51  CB       193.5410  234.0430  161.6850 C.3    99  LEU99       0.0284
     52  CG       194.0500  233.8380  160.2760 C.3    99  LEU99       0.0019
     53  CD1      192.8910  233.9940  159.3310 C.3    99  LEU99       0.0001
     54  CD2      195.1010  234.8690  159.9850 C.3    99  LEU99       0.0001
     55  N        194.0790  231.5170  163.3880 N.am  100  MET100     -0.1979
     56  CA       194.6800  230.2180  163.6770 C.3   100  MET100      0.1605
     57  C        193.6200  229.1950  164.0300 C.2   100  MET100      0.2287
     58  O        193.5150  228.1430  163.3950 O.2   100  MET100     -0.2864
     59  CB       195.6770  230.3360  164.8250 C.3   100  MET100      0.0413
     60  CG       196.9470  231.0630  164.4910 C.3   100  MET100      0.0598
     61  SD       197.8730  230.1750  163.2380 S.3   100  MET100     -0.1393
     62  CE       198.2480  228.6740  164.1280 C.3   100  MET100      0.0692
     63  N        190.7570  228.6330  163.4190 N.3   102  TRP102     -0.1227
     64  CA       190.0720  228.0020  162.3050 C.3   102  TRP102      0.1737
     65  C        190.8820  226.8320  161.7770 C.2   102  TRP102      0.2595
     66  O        190.3550  225.7350  161.5830 O.2   102  TRP102     -0.2718
     67  CB       189.8340  229.0040  161.1890 C.3   102  TRP102      0.0564
     68  CG       189.0720  228.4050  160.1050 C.ar  102  TRP102      0.0003
     69  CD1      189.5650  227.8220  158.9920 C.ar  102  TRP102      0.0946
     70  CD2      187.6530  228.3420  160.0020 C.ar  102  TRP102      0.0152
     71  NE1      188.5420  227.3740  158.2020 N.ar  102  TRP102     -0.2442
     72  CE2      187.3540  227.6890  158.8020 C.ar  102  TRP102      0.0810
     73  CE3      186.6020  228.7770  160.8120 C.ar  102  TRP102      0.0012
     74  CZ2      186.0560  227.4600  158.3900 C.ar  102  TRP102      0.0191
     75  CZ3      185.3160  228.5440  160.4040 C.ar  102  TRP102      0.0001
     76  CH2      185.0510  227.8960  159.2050 C.ar  102  TRP102      0.0015
     77  N        192.1720  227.0510  161.5390 N.am  103  ALA103     -0.1966
     78  CA       192.9890  226.0100  160.9330 C.3   103  ALA103      0.1728
     79  C        193.2480  224.8790  161.9040 C.2   103  ALA103      0.2616
     80  O        193.3220  223.7150  161.5050 O.2   103  ALA103     -0.2715
     81  CB       194.3100  226.5930  160.4510 C.3   103  ALA103      0.0334
     82  N        193.4250  225.1990  163.1740 N.am  104  GLU104     -0.1977
     83  CA       193.8430  224.1680  164.1010 C.3   104  GLU104      0.1602
     84  C        192.6880  223.3420  164.6530 C.2   104  GLU104      0.2287
     85  O        192.8880  222.1750  165.0010 O.2   104  GLU104     -0.2864
     86  CB       194.6610  224.7910  165.2180 C.3   104  GLU104      0.0415
     87  CG       195.4710  223.7640  165.9140 C.3   104  GLU104      0.1163
     88  CD       196.5660  224.3680  166.7070 C.2   104  GLU104      0.3649
     89  OE1      196.6240  225.6100  166.7700 O.co2 104  GLU104     -0.2457
     90  OE2      197.3860  223.6060  167.2440 O.co2 104  GLU104     -0.2457
     91  N        190.3220  222.5570  162.5780 N.3   106  ARG106     -0.1231
     92  CA       190.3550  221.6710  161.4200 C.3   106  ARG106      0.1694
     93  C        191.3670  220.5570  161.6110 C.2   106  ARG106      0.2591
     94  O        191.1480  219.4270  161.1690 O.2   106  ARG106     -0.2718
     95  CB       190.6940  222.4590  160.1590 C.3   106  ARG106      0.0321
     96  CG       189.6600  223.4510  159.7130 C.3   106  ARG106      0.0489
     97  CD       188.5590  222.8030  158.9400 C.3   106  ARG106      0.2205
     98  NE       189.0360  222.2960  157.6650 N.pl3 106  ARG106     -0.0865
     99  CZ       188.2660  221.6550  156.7960 C.cat 106  ARG106      0.5346
    100  NH1      186.9880  221.4660  157.0670 N.pl3 106  ARG106      0.1354
    101  NH2      188.7690  221.2100  155.6560 N.pl3 106  ARG106      0.1354
    102  N        192.4870  220.8550  162.2670 N.am  107  ARG107     -0.1980
    103  CA       193.4860  219.8190  162.4880 C.3   107  ARG107      0.1597
    104  C        193.0120  218.8080  163.5160 C.2   107  ARG107      0.2287
    105  O        193.2780  217.6110  163.3800 O.2   107  ARG107     -0.2864
    106  CB       194.8070  220.4380  162.9260 C.3   107  ARG107      0.0334
    107  CG       195.8730  219.4130  163.1950 C.3   107  ARG107      0.0492
    108  CD       197.1900  220.0650  163.5070 C.3   107  ARG107      0.2205
    109  NE       197.1240  220.8730  164.7120 N.pl3 107  ARG107     -0.0865
    110  CZ       197.2400  220.3830  165.9360 C.cat 107  ARG107      0.5346
    111  NH1      197.4190  219.0870  166.1200 N.pl3 107  ARG107      0.1354
    112  NH2      197.1690  221.1900  166.9790 N.pl3 107  ARG107      0.1354
    113  N        190.0890  216.4870  162.4100 N.3   110  ASP110     -0.1239
    114  CA       190.6370  215.4380  161.5630 C.3   110  ASP110      0.1674
    115  C        191.1510  214.2730  162.3870 C.2   110  ASP110      0.2266
    116  O        190.8950  213.1130  162.0630 O.2   110  ASP110     -0.2867
    117  CB       191.7740  215.9780  160.7210 C.3   110  ASP110      0.1410
    118  CG       192.4120  214.9100  159.8860 C.2   110  ASP110      0.3668
    119  OD1      191.7330  214.3770  158.9880 O.co2 110  ASP110     -0.2456
    120  OD2      193.5920  214.5940  160.1300 O.co2 110  ASP110     -0.2456
    121  N        188.7200  215.5180  156.9790 N.3   117  VAL117     -0.1245
    122  CA       188.3360  216.7290  157.6850 C.3   117  VAL117      0.1561
    123  C        187.0490  217.2510  157.0960 C.2   117  VAL117      0.2260
    124  O        186.0590  217.4720  157.7970 O.2   117  VAL117     -0.2867
    125  CB       189.4260  217.8000  157.5660 C.3   117  VAL117      0.0252
    126  CG1      189.1060  218.9600  158.4780 C.3   117  VAL117      0.0019
    127  CG2      190.7510  217.2200  157.8270 C.3   117  VAL117      0.0019
    128  N        182.2940  223.4170  153.3400 N.3   123  PHE123     -0.1241
    129  CA       183.4300  224.3440  153.3390 C.3   123  PHE123      0.1605
    130  C        183.8550  224.6650  151.9050 C.2   123  PHE123      0.2264
    131  O        184.8900  224.2240  151.4130 O.2   123  PHE123     -0.2867
    132  CB       184.5870  223.7700  154.1610 C.3   123  PHE123      0.0534
    133  CG       185.7930  224.6420  154.2270 C.ar  123  PHE123     -0.0203
    134  CD1      185.7790  225.7990  154.9730 C.ar  123  PHE123     -0.0042
    135  CD2      186.9700  224.2570  153.6330 C.ar  123  PHE123     -0.0042
    136  CE1      186.8910  226.5890  155.0680 C.ar  123  PHE123     -0.0003
    137  CE2      188.0910  225.0420  153.7340 C.ar  123  PHE123     -0.0003
    138  CZ       188.0500  226.2080  154.4520 C.ar  123  PHE123     -0.0000
    139  N        188.0770  224.6240  148.2110 N.3   126  LYS126     -0.1231
    140  CA       189.1290  224.1660  149.1190 C.3   126  LYS126      0.1693
    141  C        189.0370  222.6480  149.2390 C.2   126  LYS126      0.2591
    142  O        188.9150  221.9750  148.2040 O.2   126  LYS126     -0.2718
    143  CB       188.9810  224.9620  150.3970 C.3   126  LYS126      0.0285
    144  CG       189.4370  226.3800  150.1800 C.3   126  LYS126      0.0035
    145  CD       189.1500  227.3250  151.3120 C.3   126  LYS126      0.0206
    146  CE       187.6760  227.6530  151.3580 C.3   126  LYS126      0.1093
    147  NZ       187.2550  228.3190  150.1020 N.3   126  LYS126     -0.1314
    148  N        189.1060  222.0800  150.4330 N.am  127  LEU127     -0.1980
    149  CA       189.0280  220.6440  150.6990 C.3   127  LEU127      0.1596
    150  C        189.7910  219.7530  149.7170 C.2   127  LEU127      0.2287
    151  O        189.2560  218.7270  149.2840 O.2   127  LEU127     -0.2864
    152  CB       187.5530  220.2300  150.7550 C.3   127  LEU127      0.0297
    153  CG       186.6110  220.5650  149.5860 C.3   127  LEU127      0.0022
    154  CD1      186.6090  219.5840  148.4140 C.3   127  LEU127      0.0001
    155  CD2      185.2230  220.7980  150.0870 C.3   127  LEU127      0.0001
    156  N        192.5570  217.9470  150.5630 N.3   129  ASP129     -0.1239
    157  CA       192.9860  216.8130  151.3760 C.3   129  ASP129      0.1674
    158  C        194.0220  215.9500  150.6670 C.2   129  ASP129      0.2266
    159  O        195.1030  216.4320  150.3140 O.2   129  ASP129     -0.2867
    160  CB       191.7890  215.9630  151.7940 C.3   129  ASP129      0.1410
    161  CG       190.9610  216.6300  152.8540 C.2   129  ASP129      0.3668
    162  OD1      191.4790  217.5750  153.4810 O.co2 129  ASP129     -0.2456
    163  OD2      189.8020  216.2200  153.0620 O.co2 129  ASP129     -0.2456
    164  N        194.8060  212.9980  152.3960 N.3   131  ASN131     -0.1225
    165  CA       195.3410  213.0230  153.7480 C.3   131  ASN131      0.1785
    166  C        195.4700  211.6110  154.2930 C.2   131  ASN131      0.2597
    167  O        194.4900  210.8600  154.3230 O.2   131  ASN131     -0.2718
    168  CB       194.4320  213.8480  154.6520 C.3   131  ASN131      0.1169
    169  CG       194.3490  215.2800  154.2220 C.2   131  ASN131      0.2627
    170  OD1      195.2380  215.7860  153.5450 O.2   131  ASN131     -0.2716
    171  ND2      193.2710  215.9460  154.6020 N.am  131  ASN131     -0.0877
    172  N        196.6750  211.2560  154.7180 N.am  132  ILE132     -0.1980
    173  CA       196.9110  210.0630  155.5230 C.3   132  ILE132      0.1595
    174  C        196.8540  210.4790  156.9910 C.2   132  ILE132      0.2287
    175  O        196.9770  211.6740  157.2850 O.2   132  ILE132     -0.2864
    176  CB       198.2500  209.4170  155.1450 C.3   132  ILE132      0.0276
    177  CG1      199.4180  210.3230  155.5400 C.3   132  ILE132      0.0022
    178  CG2      198.2890  209.1810  153.6490 C.3   132  ILE132      0.0022
    179  CD1      200.1460  209.8850  156.8040 C.3   132  ILE132      0.0001
    180  N        198.0890  211.1960  160.8260 N.3   134  GLY134     -0.1210
    181  CA       199.3040  211.5640  161.5240 C.3   134  GLY134      0.1956
    182  C        200.1730  212.5790  160.8020 C.2   134  GLY134      0.2612
    183  O        200.9360  213.3030  161.4510 O.2   134  GLY134     -0.2717
    184  N        200.0650  212.6570  159.4760 N.am  135  TYR135     -0.1962
    185  CA       200.7630  213.6030  158.6240 C.3   135  TYR135      0.1756
    186  C        199.7640  214.0980  157.5920 C.2   135  TYR135      0.2461
    187  O        199.0100  213.2980  157.0280 O.2   135  TYR135     -0.2730
    188  CB       201.9400  212.9510  157.9010 C.3   135  TYR135      0.0574
    189  CG       203.0540  212.5220  158.7930 C.ar  135  TYR135     -0.0198
    190  CD1      203.6110  213.3940  159.6870 C.ar  135  TYR135     -0.0009
    191  CD2      203.5160  211.2260  158.7750 C.ar  135  TYR135     -0.0009
    192  CE1      204.6350  213.0060  160.5050 C.ar  135  TYR135      0.0417
    193  CE2      204.5230  210.8270  159.6010 C.ar  135  TYR135      0.0417
    194  CZ       205.0830  211.7200  160.4650 C.ar  135  TYR135      0.1957
    195  OH       206.0990  211.3340  161.2990 O.3   135  TYR135     -0.2866
    196  N        199.7530  215.3910  157.2970 N.am  136  PRO136     -0.2727
    197  CA       198.7670  215.8840  156.3350 C.3   136  PRO136      0.1402
    198  C        199.0250  215.4400  154.9100 C.2   136  PRO136      0.2269
    199  O        198.0830  215.0360  154.2170 O.2   136  PRO136     -0.2865
    200  CB       198.8720  217.3990  156.4930 C.3   136  PRO136      0.0296
    201  CG       200.2370  217.6280  156.9620 C.3   136  PRO136      0.0237
    202  CD       200.5980  216.4670  157.8270 C.3   136  PRO136      0.0939
    203  N        200.2590  220.1360  151.9750 N.3   140  PHE140     -0.1241
    204  CA       201.3500  220.4830  152.8620 C.3   140  PHE140      0.1605
    205  C        202.6570  219.8300  152.4670 C.2   140  PHE140      0.2264
    206  O        203.6800  220.1120  153.0930 O.2   140  PHE140     -0.2867
    207  CB       200.9470  220.1170  154.2840 C.3   140  PHE140      0.0534
    208  CG       199.6520  220.7470  154.7110 C.ar  140  PHE140     -0.0203
    209  CD1      199.6040  222.0570  155.1210 C.ar  140  PHE140     -0.0042
    210  CD2      198.4790  220.0300  154.6750 C.ar  140  PHE140     -0.0042
    211  CE1      198.4180  222.6250  155.4920 C.ar  140  PHE140     -0.0003
    212  CE2      197.2980  220.5910  155.0620 C.ar  140  PHE140     -0.0003
    213  CZ       197.2660  221.8870  155.4630 C.ar  140  PHE140     -0.0000
    214  N        204.1780  219.9400  149.0400 N.3   142  PRO142     -0.2116
    215  CA       204.0680  220.3100  147.6210 C.3   142  PRO142      0.1372
    216  C        205.0440  219.5860  146.7190 C.2   142  PRO142      0.2244
    217  O        204.6340  219.0070  145.7020 O.2   142  PRO142     -0.2868
    218  CB       204.3370  221.8180  147.6410 C.3   142  PRO142      0.0268
    219  CG       204.0010  222.2410  149.0090 C.3   142  PRO142      0.0207
    220  CD       204.4370  221.1150  149.8850 C.3   142  PRO142      0.0892
@<TRIPOS>BOND
     1   217   216    2
     2   216   215    1
     3   215   218    1
     4   215   214    1
     5   218   219    1
     6   142   141    2
     7   139   140    1
     8   154   153    1
     9   219   220    1
    10   214   220    1
    11   140   141    1
    12   140   143    1
    13   141   148   am
    14   151   150    2
    15   153   155    1
    16   153   152    1
    17   150   149    1
    18   147   146    1
    19   144   143    1
    20   144   145    1
    21   159   158    2
    22   148   149    1
    23   156   157    1
    24   158   157    1
    25   149   152    1
    26   145   146    1
    27   157   160    1
    28   131   130    2
    29   160   161    1
    30   130   129    1
    31   203   204    1
    32   164   165    1
    33   205   204    1
    34   205   206    2
    35   161   163   ar
    36   161   162   ar
    37   204   207    1
    38   129   128    1
    39   129   132    1
    40   170   169    2
    41   135   137   ar
    42   135   133   ar
    43   178   176    1
    44   137   138   ar
    45   165   166    1
    46   165   168    1
    47   132   133    1
    48   199   198    2
    49   169   171   am
    50   169   168    1
    51   133   134   ar
    52   207   208    1
    53   166   167    2
    54   166   172   am
    55   138   136   ar
    56   210   208   ar
    57   210   212   ar
    58   208   209   ar
    59   172   173    1
    60   198   197    1
    61   134   136   ar
    62   212   213   ar
    63   209   211   ar
    64   176   173    1
    65   176   177    1
    66   213   211   ar
    67   173   174    1
    68   177   179    1
    69   101    99    1
    70   197   200    1
    71   197   196    1
    72   200   201    1
    73    99   100    1
    74    99    98    2
    75   201   202    1
    76   121   122    1
    77   174   175    2
    78   187   186    2
    79   123   122    1
    80   123   124    2
    81   196   186   am
    82   196   202    1
    83   125   122    1
    84   125   127    1
    85   125   126    1
    86   186   185    1
    87    98    97    1
    88   188   185    1
    89   188   189    1
    90    71    72   ar
    91    71    69   ar
    92    74    72   ar
    93    74    76   ar
    94   185   184    1
    95   191   189   ar
    96   191   193   ar
    97   189   190   ar
    98    72    70   ar
    99    97    96    1
   100   119   118   ar
   101    69    68   ar
   102    46    45    1
   103    76    75   ar
   104    53    52    1
   105    45    44    1
   106   184   182   am
   107   193   194   ar
   108   190   192   ar
   109    96    95    1
   110   118   120   ar
   111   118   117    1
   112    54    52    1
   113    70    68   ar
   114    70    73   ar
   115    68    67    1
   116    95    92    1
   117    52    51    1
   118    75    73   ar
   119    81    78    1
   120   194   192   ar
   121   194   195    1
   122    27    25    1
   123   117   114    1
   124    44    43    1
   125    24    25    2
   126    24    23    1
   127   182   183    2
   128   182   181    1
   129   180   181    1
   130    78    77    1
   131    78    79    1
   132    94    93    2
   133    67    64    1
   134    25    26    1
   135    92    93    1
   136    92    91    1
   137    23    22    1
   138    80    79    2
   139    77    65   am
   140   114   115    1
   141   114   113    1
   142    66    65    2
   143    93   102   am
   144    50    49    2
   145    51    48    1
   146    65    64    1
   147    79    82   am
   148    43    40    1
   149   116   115    2
   150    48    49    1
   151    48    47    1
   152   102   103    1
   153    64    63    1
   154    49    55   am
   155    22    21    1
   156   103   106    1
   157   103   104    1
   158    40    39    1
   159    40    41    1
   160   106   107    1
   161    21    18    1
   162    82    83    1
   163   107   108    1
   164    42    41    2
   165    61    62    1
   166    61    60    1
   167   105   104    2
   168    55    56    1
   169    58    57    2
   170   108   109    1
   171    20    19    2
   172    56    57    1
   173    56    59    1
   174    18    19    1
   175    18    17    1
   176    83    84    1
   177    83    86    1
   178    19    28   am
   179    60    59    1
   180     9     7   am
   181    84    85    2
   182   109   110    2
   183    36    38   ar
   184    36    34   ar
   185    28    29    1
   186    86    87    1
   187    38    37   ar
   188     7     8    2
   189     7     6    1
   190    34    33   ar
   191    29    30    1
   192    29    32    1
   193    31    30    2
   194     6     5    1
   195    16    14    1
   196    87    88    1
   197   110   111    1
   198   110   112    1
   199    37    35   ar
   200    33    35   ar
   201    33    32    1
   202    11    10    1
   203    11    14    1
   204    11    12    1
   205    13    12    2
   206    88    89   ar
   207    88    90   ar
   208     5     2    1
   209    15    14    1
   210     2     1    1
   211     2     3    1
   212     4     3    2
