@<TRIPOS>MOLECULE
tmp/6igzS05.pdb
 145 138 0 0 0
SMALL
GASTEIGER

@<TRIPOS>ATOM
      1  N        278.5410  176.9310  218.6970 N.3   164  LEU164     -0.1245
      2  CA       279.3630  177.5930  219.6960 C.3   164  LEU164      0.1561
      3  C        279.6960  179.0090  219.2650 C.2   164  LEU164      0.2260
      4  O        279.5890  179.9500  220.0560 O.2   164  LEU164     -0.2867
      5  CB       280.6340  176.7840  219.9220 C.3   164  LEU164      0.0270
      6  CG       281.6280  177.3300  220.9250 C.3   164  LEU164      0.0019
      7  CD1      280.9760  177.3880  222.2790 C.3   164  LEU164      0.0001
      8  CD2      282.8260  176.4240  220.9570 C.3   164  LEU164      0.0001
      9  N        276.7610  181.6670  219.3630 N.3   167  VAL167     -0.1231
     10  CA       276.6150  182.1730  220.7200 C.3   167  VAL167      0.1692
     11  C        277.8270  183.0060  221.1040 C.2   167  VAL167      0.2591
     12  O        277.6990  184.1330  221.5920 O.2   167  VAL167     -0.2718
     13  CB       276.3930  181.0140  221.7030 C.3   167  VAL167      0.0266
     14  CG1      276.4160  181.5290  223.1110 C.3   167  VAL167      0.0020
     15  CG2      275.0730  180.3540  221.4220 C.3   167  VAL167      0.0020
     16  N        279.0240  182.4630  220.8900 N.am  168  ALA168     -0.1980
     17  CA       280.2290  183.1930  221.2510 C.3   168  ALA168      0.1597
     18  C        280.2710  184.5390  220.5510 C.2   168  ALA168      0.2287
     19  O        280.5090  185.5720  221.1840 O.2   168  ALA168     -0.2864
     20  CB       281.4630  182.3660  220.9100 C.3   168  ALA168      0.0319
     21  N        277.8170  186.2350  219.4170 N.3   170  THR170     -0.1203
     22  CA       276.8070  187.0790  220.0380 C.3   170  THR170      0.1994
     23  C        277.3340  187.6950  221.3210 C.2   170  THR170      0.2618
     24  O        277.0720  188.8680  221.6100 O.2   170  THR170     -0.2717
     25  CB       275.5450  186.2710  220.3160 C.3   170  THR170      0.1784
     26  OG1      275.0380  185.7590  219.0820 O.3   170  THR170     -0.2211
     27  CG2      274.4870  187.1330  220.9730 C.3   170  THR170      0.0376
     28  N        278.0840  186.9210  222.1030 N.am  171  GLY171     -0.1956
     29  CA       278.7220  187.4880  223.2750 C.3   171  GLY171      0.1869
     30  C        279.5760  188.6830  222.9250 C.2   171  GLY171      0.2309
     31  O        279.5010  189.7240  223.5740 O.2   171  GLY171     -0.2863
     32  N        277.4150  191.8920  222.2860 N.3   174  LEU174     -0.1231
     33  CA       276.8060  192.4940  223.4610 C.3   174  LEU174      0.1693
     34  C        277.8600  192.9220  224.4790 C.2   174  LEU174      0.2591
     35  O        277.6800  193.9300  225.1660 O.2   174  LEU174     -0.2718
     36  CB       275.7980  191.5290  224.0730 C.3   174  LEU174      0.0284
     37  CG       274.7570  192.1620  224.9860 C.3   174  LEU174      0.0019
     38  CD1      273.4690  191.3760  224.8930 C.3   174  LEU174      0.0001
     39  CD2      275.2240  192.2240  226.4070 C.3   174  LEU174      0.0001
     40  N        278.9550  192.1670  224.6060 N.am  175  GLN175     -0.1979
     41  CA       280.0390  192.5780  225.4940 C.3   175  GLN175      0.1601
     42  C        280.6370  193.8950  225.0420 C.2   175  GLN175      0.2287
     43  O        280.6960  194.8650  225.8040 O.2   175  GLN175     -0.2864
     44  CB       281.1410  191.5280  225.5320 C.3   175  GLN175      0.0394
     45  CG       280.8310  190.2560  226.2430 C.3   175  GLN175      0.0908
     46  CD       281.9880  189.2990  226.1560 C.2   175  GLN175      0.2608
     47  OE1      282.7760  189.3470  225.2190 O.2   175  GLN175     -0.2717
     48  NE2      282.1190  188.4450  227.1470 N.am  175  GLN175     -0.0878
     49  N        278.1690  196.8710  225.7370 N.3   178  ALA178     -0.1231
     50  CA       278.0250  197.4110  227.0820 C.3   178  ALA178      0.1694
     51  C        279.3610  197.8820  227.6400 C.2   178  ALA178      0.2592
     52  O        279.4580  198.9820  228.1890 O.2   178  ALA178     -0.2718
     53  CB       277.4040  196.3640  228.0030 C.3   178  ALA178      0.0304
     54  N        280.4010  197.0630  227.5060 N.am  179  THR179     -0.1953
     55  CA       281.6830  197.4000  228.1090 C.3   179  THR179      0.1897
     56  C        282.3740  198.5260  227.3600 C.2   179  THR179      0.2313
     57  O        282.9080  199.4530  227.9760 O.2   179  THR179     -0.2863
     58  CB       282.5890  196.1800  228.1280 C.3   179  THR179      0.1794
     59  OG1      282.8660  195.7910  226.7810 O.3   179  THR179     -0.2208
     60  CG2      281.8990  195.0400  228.8260 C.3   179  THR179      0.0378
     61  N        284.7330  197.3370  225.1940 N.3   181  LYS181     -0.1245
     62  CA       285.9960  196.6210  225.2190 C.3   181  LYS181      0.1561
     63  C        285.9570  195.4700  224.2240 C.2   181  LYS181      0.2260
     64  O        284.9260  194.8140  224.0660 O.2   181  LYS181     -0.2867
     65  CB       286.2840  196.0850  226.6250 C.3   181  LYS181      0.0271
     66  CG       286.4330  197.1520  227.6920 C.3   181  LYS181      0.0035
     67  CD       287.7440  197.8950  227.5130 C.3   181  LYS181      0.0206
     68  CE       287.9970  198.8870  228.6320 C.3   181  LYS181      0.1093
     69  NZ       287.0770  200.0450  228.5530 N.3   181  LYS181     -0.1314
     70  N        287.9450  192.6450  227.5080 N.3   186  CYS186     -0.1221
     71  CA       286.9700  192.4610  228.5770 C.3   186  CYS186      0.1808
     72  C        287.1960  191.1460  229.3100 C.2   186  CYS186      0.2601
     73  O        286.8600  191.0320  230.4940 O.2   186  CYS186     -0.2717
     74  CB       285.5450  192.5360  228.0270 C.3   186  CYS186      0.0970
     75  SG       285.1360  191.3450  226.7470 S.3   186  CYS186     -0.0800
     76  N        287.7680  190.1490  228.6340 N.am  187  TRP187     -0.1976
     77  CA       288.1690  188.9320  229.3280 C.3   187  TRP187      0.1640
     78  C        289.2970  189.2150  230.3040 C.2   187  TRP187      0.2290
     79  O        289.2840  188.7250  231.4390 O.2   187  TRP187     -0.2864
     80  CB       288.5920  187.8730  228.3170 C.3   187  TRP187      0.0576
     81  CG       289.0600  186.5950  228.9240 C.ar  187  TRP187      0.0006
     82  CD1      288.2900  185.5460  229.3200 C.ar  187  TRP187      0.0946
     83  CD2      290.4160  186.2100  229.1680 C.ar  187  TRP187      0.0152
     84  NE1      289.0770  184.5370  229.8110 N.ar  187  TRP187     -0.2442
     85  CE2      290.3880  184.9220  229.7280 C.ar  187  TRP187      0.0810
     86  CE3      291.6500  186.8330  228.9760 C.ar  187  TRP187      0.0012
     87  CZ2      291.5450  184.2480  230.1000 C.ar  187  TRP187      0.0191
     88  CZ3      292.7960  186.1620  229.3450 C.ar  187  TRP187      0.0001
     89  CH2      292.7370  184.8840  229.8980 C.ar  187  TRP187      0.0015
     90  N        289.9730  191.9930  231.8150 N.3   189  ASP189     -0.1225
     91  CA       289.4020  192.6840  232.9640 C.3   189  ASP189      0.1805
     92  C        288.8060  191.6910  233.9510 C.2   189  ASP189      0.2597
     93  O        289.0170  191.8010  235.1630 O.2   189  ASP189     -0.2718
     94  CB       288.3470  193.6830  232.4890 C.3   189  ASP189      0.1424
     95  CG       287.7440  194.4950  233.6230 C.2   189  ASP189      0.3668
     96  OD1      288.1870  194.3670  234.7820 O.co2 189  ASP189     -0.2456
     97  OD2      286.8060  195.2720  233.3520 O.co2 189  ASP189     -0.2456
     98  N        288.0610  190.7080  233.4500 N.am  190  HIS190     -0.1975
     99  CA       287.3930  189.7700  234.3420 C.3   190  HIS190      0.1656
    100  C        288.4020  189.0020  235.1720 C.2   190  HIS190      0.2291
    101  O        288.2960  188.9410  236.4010 O.2   190  HIS190     -0.2864
    102  CB       286.5310  188.7980  233.5500 C.3   190  HIS190      0.0771
    103  CG       285.6810  187.9190  234.4070 C.ar  190  HIS190      0.0820
    104  ND1      284.6600  188.4140  235.1860 N.ar  190  HIS190     -0.2267
    105  CD2      285.6970  186.5820  234.6110 C.ar  190  HIS190      0.1154
    106  CE1      284.0770  187.4190  235.8270 C.ar  190  HIS190      0.1986
    107  NE2      284.6890  186.2970  235.4980 N.ar  190  HIS190     -0.2212
    108  N        284.3520  192.9900  238.1820 N.3   197  SER197     -0.1202
    109  CA       284.3840  193.0360  236.7270 C.3   197  SER197      0.2020
    110  C        283.1870  192.3410  236.1020 C.2   197  SER197      0.2619
    111  O        283.1050  192.2490  234.8730 O.2   197  SER197     -0.2717
    112  CB       285.6760  192.4090  236.2050 C.3   197  SER197      0.2103
    113  OG       285.7070  192.4190  234.7920 O.3   197  SER197     -0.2182
    114  N        282.2650  191.8590  236.9220 N.am  198  ASN198     -0.1960
    115  CA       281.1810  191.0050  236.4790 C.3   198  ASN198      0.1819
    116  C        280.1220  191.8100  235.7290 C.2   198  ASN198      0.2621
    117  O        280.0700  193.0400  235.7920 O.2   198  ASN198     -0.2715
    118  CB       280.5710  190.2930  237.6850 C.3   198  ASN198      0.1195
    119  CG       279.6540  189.1610  237.2980 C.2   198  ASN198      0.2630
    120  OD1      279.1750  189.0950  236.1710 O.2   198  ASN198     -0.2716
    121  ND2      279.4030  188.2580  238.2360 N.am  198  ASN198     -0.0877
    122  N        279.2810  191.0820  234.9920 N.am  199  ILE199     -0.1977
    123  CA       278.1090  191.6430  234.3300 C.3   199  ILE199      0.1596
    124  C        277.1840  192.3450  235.3090 C.2   199  ILE199      0.2287
    125  O        276.3320  193.1380  234.8980 O.2   199  ILE199     -0.2864
    126  CB       277.3670  190.5210  233.5820 C.3   199  ILE199      0.0276
    127  CG1      278.2630  189.9420  232.5080 C.3   199  ILE199      0.0022
    128  CG2      276.1350  191.0400  232.8910 C.3   199  ILE199      0.0022
    129  CD1      279.0160  188.7470  232.9210 C.3   199  ILE199      0.0001
    130  N        278.1050  197.6180  234.8630 N.3   202  ASN202     -0.1225
    131  CA       278.1200  198.0380  233.4610 C.3   202  ASN202      0.1785
    132  C        276.9770  197.4380  232.6490 C.2   202  ASN202      0.2597
    133  O        277.1490  197.0700  231.4850 O.2   202  ASN202     -0.2718
    134  CB       279.4950  197.7720  232.8150 C.3   202  ASN202      0.1169
    135  CG       279.8120  196.3040  232.5930 C.2   202  ASN202      0.2627
    136  OD1      279.1020  195.4070  233.0150 O.2   202  ASN202     -0.2716
    137  ND2      280.9310  196.0640  231.9320 N.am  202  ASN202     -0.0877
    138  N        275.8070  197.3480  233.2650 N.am  203  ILE203     -0.1980
    139  CA       274.5480  197.0940  232.5830 C.3   203  ILE203      0.1595
    140  C        273.6150  198.2410  232.9260 C.2   203  ILE203      0.2287
    141  O        273.6760  198.7940  234.0280 O.2   203  ILE203     -0.2864
    142  CB       273.9390  195.7330  232.9710 C.3   203  ILE203      0.0276
    143  CG1      274.8570  194.6120  232.5210 C.3   203  ILE203      0.0022
    144  CG2      272.6120  195.5250  232.2920 C.3   203  ILE203      0.0022
    145  CD1      275.0370  194.5880  231.0240 C.3   203  ILE203      0.0001
@<TRIPOS>BOND
     1     1     2    1
     2    26    25    1
     3     3     2    1
     4     3     4    2
     5     9    10    1
     6    21    22    1
     7     2     5    1
     8     5     6    1
     9    22    25    1
    10    22    23    1
    11    25    27    1
    12    18    19    2
    13    18    17    1
    14    10    11    1
    15    10    13    1
    16    16    11   am
    17    16    17    1
    18    20    17    1
    19     6     8    1
    20     6     7    1
    21    11    12    2
    22    23    24    2
    23    23    28   am
    24    15    13    1
    25    13    14    1
    26    28    29    1
    27    32    33    1
    28    30    29    1
    29    30    31    2
    30    33    36    1
    31    33    34    1
    32    64    63    2
    33    36    37    1
    34    63    62    1
    35    34    40   am
    36    34    35    2
    37    40    41    1
    38    38    37    1
    39    37    39    1
    40    42    41    1
    41    42    43    2
    42    61    62    1
    43    62    65    1
    44    47    46    2
    45    41    44    1
    46    44    45    1
    47    49    50    1
    48    46    45    1
    49    46    48   am
    50    65    66    1
    51    75    74    1
    52    59    58    1
    53    50    51    1
    54    50    53    1
    55    56    57    2
    56    56    55    1
    57    54    51   am
    58    54    55    1
    59    70    71    1
    60    67    66    1
    61    67    68    1
    62    51    52    2
    63    74    71    1
    64    55    58    1
    65    58    60    1
    66    80    81    1
    67    80    77    1
    68    69    68    1
    69    71    72    1
    70    76    72   am
    71    76    77    1
    72    81    83   ar
    73    81    82   ar
    74    86    83   ar
    75    86    88   ar
    76    83    85   ar
    77    72    73    2
    78    82    84   ar
    79    77    78    1
    80    88    89   ar
    81    85    84   ar
    82    85    87   ar
    83    89    87   ar
    84    78    79    2
    85   145   143    1
    86   133   132    2
    87    90    91    1
    88   137   135   am
    89   144   142    1
    90    94    91    1
    91    94    95    1
    92   127   129    1
    93   127   126    1
    94   143   142    1
    95   139   140    1
    96   139   142    1
    97   139   138    1
    98   135   134    1
    99   135   136    2
   100   132   138   am
   101   132   131    1
   102   134   131    1
   103   128   126    1
   104   140   141    2
   105    91    92    1
   106    97    95   ar
   107    98    92   am
   108    98    99    1
   109   131   130    1
   110   102    99    1
   111   102   103    1
   112   126   123    1
   113    95    96   ar
   114    92    93    2
   115   123   122    1
   116   123   124    1
   117    99   100    1
   118   103   105   ar
   119   103   104   ar
   120   105   107   ar
   121   113   112    1
   122   111   110    2
   123   125   124    2
   124   122   116   am
   125   100   101    2
   126   104   106   ar
   127   107   106   ar
   128   116   117    2
   129   116   115    1
   130   110   109    1
   131   110   114   am
   132   120   119    2
   133   112   109    1
   134   115   114    1
   135   115   118    1
   136   109   108    1
   137   119   118    1
   138   119   121   am
