@<TRIPOS>MOLECULE
tmp/6igzR09.pdb
 203 195 0 0 0
SMALL
GASTEIGER

@<TRIPOS>ATOM
      1  N        203.1180  219.2010  130.9860 N.3     5  TRP5       -0.1241
      2  CA       203.7540  220.4240  131.4540 C.3     5  TRP5        0.1605
      3  C        205.2460  220.2120  131.6640 C.2     5  TRP5        0.2264
      4  O        206.0440  220.6890  130.8570 O.2     5  TRP5       -0.2867
      5  CB       203.0550  220.9210  132.7170 C.3     5  TRP5        0.0550
      6  CG       203.0370  219.9590  133.8400 C.ar    5  TRP5        0.0003
      7  CD1      202.3180  218.8140  133.9160 C.ar    5  TRP5        0.0946
      8  CD2      203.6860  220.1090  135.1030 C.ar    5  TRP5        0.0152
      9  NE1      202.5240  218.2030  135.1250 N.ar    5  TRP5       -0.2442
     10  CE2      203.3550  218.9880  135.8760 C.ar    5  TRP5        0.0810
     11  CE3      204.5270  221.0740  135.6470 C.ar    5  TRP5        0.0012
     12  CZ2      203.8420  218.8050  137.1590 C.ar    5  TRP5        0.0191
     13  CZ3      205.0060  220.8890  136.9170 C.ar    5  TRP5        0.0001
     14  CH2      204.6620  219.7680  137.6610 C.ar    5  TRP5        0.0015
     15  N        191.7450  212.0030  135.2290 N.3    15  LEU15      -0.1245
     16  CA       191.5330  213.0980  134.2920 C.3    15  LEU15       0.1561
     17  C        190.5850  212.6740  133.1790 C.2    15  LEU15       0.2260
     18  O        190.6300  211.5270  132.7170 O.2    15  LEU15      -0.2867
     19  CB       192.8470  213.6100  133.6910 C.3    15  LEU15       0.0270
     20  CG       193.8500  212.6670  133.0210 C.3    15  LEU15       0.0019
     21  CD1      193.4360  212.2200  131.6480 C.3    15  LEU15       0.0001
     22  CD2      195.1920  213.3630  132.9300 C.3    15  LEU15       0.0001
     23  N        189.4370  216.5600  128.2680 N.3    19  LEU19      -0.1231
     24  CA       189.2270  217.8340  128.9430 C.3    19  LEU19       0.1678
     25  C        190.0000  218.8970  128.1760 C.2    19  LEU19       0.2434
     26  O        191.0160  218.5890  127.5450 O.2    19  LEU19      -0.2733
     27  CB       189.6790  217.7320  130.4020 C.3    19  LEU19       0.0284
     28  CG       189.4170  218.7780  131.4810 C.3    19  LEU19       0.0019
     29  CD1      187.9390  218.8730  131.7450 C.3    19  LEU19       0.0001
     30  CD2      190.1190  218.3920  132.7500 C.3    19  LEU19       0.0001
     31  N        189.5620  220.1320  128.1920 N.am   20  PRO20      -0.2729
     32  CA       190.1740  221.1270  127.3100 C.3    20  PRO20       0.1401
     33  C        191.5900  221.5000  127.7030 C.2    20  PRO20       0.2269
     34  O        191.8270  222.4840  128.4090 O.2    20  PRO20      -0.2865
     35  CB       189.2260  222.3220  127.4290 C.3    20  PRO20       0.0296
     36  CG       188.5110  222.1140  128.7170 C.3    20  PRO20       0.0237
     37  CD       188.3140  220.6400  128.7750 C.3    20  PRO20       0.0939
     38  N        194.3100  219.4310  129.1950 N.3    22  ASN22      -0.1225
     39  CA       195.0400  218.9440  130.3500 C.3    22  ASN22       0.1785
     40  C        196.4370  218.5340  129.9160 C.2    22  ASN22       0.2597
     41  O        196.6110  217.6380  129.0850 O.2    22  ASN22      -0.2718
     42  CB       194.3150  217.7790  131.0130 C.3    22  ASN22       0.1169
     43  CG       194.1120  216.6110  130.0870 C.2    22  ASN22       0.2627
     44  OD1      194.1930  216.7440  128.8690 O.2    22  ASN22      -0.2716
     45  ND2      193.8490  215.4460  130.6620 N.am   22  ASN22      -0.0877
     46  N        197.4310  219.2020  130.4730 N.am   23  TYR23      -0.1962
     47  CA       198.8180  218.8280  130.2960 C.3    23  TYR23       0.1771
     48  C        199.2640  217.8490  131.3620 C.2    23  TYR23       0.2620
     49  O        200.4530  217.5440  131.4570 O.2    23  TYR23      -0.2715
     50  CB       199.6880  220.0780  130.2980 C.3    23  TYR23       0.0574
     51  CG       199.3930  220.9840  129.1350 C.ar   23  TYR23      -0.0198
     52  CD1      199.3340  220.4900  127.8520 C.ar   23  TYR23      -0.0009
     53  CD2      199.1150  222.3210  129.3270 C.ar   23  TYR23      -0.0009
     54  CE1      199.0590  221.3070  126.7890 C.ar   23  TYR23       0.0417
     55  CE2      198.8240  223.1450  128.2690 C.ar   23  TYR23       0.0417
     56  CZ       198.7990  222.6320  127.0010 C.ar   23  TYR23       0.1957
     57  OH       198.5130  223.4450  125.9330 O.3    23  TYR23      -0.2866
     58  N        198.3390  217.3640  132.1760 N.am   24  GLY24      -0.1940
     59  CA       198.7080  216.4700  133.2450 C.3    24  GLY24       0.2014
     60  C        199.3680  217.2070  134.3840 C.2    24  GLY24       0.2639
     61  O        200.4520  216.8290  134.8350 O.2    24  GLY24      -0.2714
     62  N        198.7220  218.2670  134.8540 N.am   25  TYR25      -0.1959
     63  CA       199.2900  219.1450  135.8660 C.3    25  TYR25       0.1771
     64  C        198.5090  218.9940  137.1710 C.2    25  TYR25       0.2619
     65  O        197.3980  219.5130  137.2980 O.2    25  TYR25      -0.2715
     66  CB       199.2330  220.5750  135.3500 C.3    25  TYR25       0.0574
     67  CG       199.8250  221.6050  136.2560 C.ar   25  TYR25      -0.0198
     68  CD1      201.1680  221.8880  136.2110 C.ar   25  TYR25      -0.0009
     69  CD2      199.0450  222.2830  137.1660 C.ar   25  TYR25      -0.0009
     70  CE1      201.7100  222.8270  137.0300 C.ar   25  TYR25       0.0417
     71  CE2      199.5840  223.2210  137.9940 C.ar   25  TYR25       0.0417
     72  CZ       200.9140  223.4890  137.9220 C.ar   25  TYR25       0.1957
     73  OH       201.4600  224.4290  138.7520 O.3    25  TYR25      -0.2866
     74  N        199.0880  218.2770  138.1340 N.am   26  ASP26      -0.1971
     75  CA       198.6590  218.3360  139.5350 C.3    26  ASP26       0.1709
     76  C        199.8410  218.1030  140.4570 C.2    26  ASP26       0.2293
     77  O        200.0460  216.9960  140.9650 O.2    26  ASP26      -0.2864
     78  CB       197.5410  217.3430  139.8430 C.3    26  ASP26       0.1436
     79  CG       196.1750  217.9290  139.6340 C.2    26  ASP26       0.3671
     80  OD1      196.0700  219.1650  139.6080 O.co2  26  ASP26      -0.2456
     81  OD2      195.2030  217.1610  139.5220 O.co2  26  ASP26      -0.2456
     82  N        194.9650  218.0380  143.7240 N.3    30  ILE30      -0.1231
     83  CA       193.7390  218.5150  144.3520 C.3    30  ILE30       0.1692
     84  C        192.5210  217.7650  143.8260 C.2    30  ILE30       0.2592
     85  O        191.6320  217.3890  144.5940 O.2    30  ILE30      -0.2718
     86  CB       193.5950  220.0320  144.1540 C.3    30  ILE30       0.0266
     87  CG1      194.7120  220.7680  144.8830 C.3    30  ILE30       0.0019
     88  CG2      192.2550  220.5090  144.6710 C.3    30  ILE30       0.0020
     89  CD1      194.7410  222.2440  144.6080 C.3    30  ILE30       0.0001
     90  N        192.4700  217.5140  142.5250 N.am   31  SER31      -0.1952
     91  CA       191.2650  217.0270  141.8710 C.3    31  SER31       0.1924
     92  C        191.1510  215.5180  141.8970 C.2    31  SER31       0.2314
     93  O        190.2900  214.9680  141.2060 O.2    31  SER31      -0.2863
     94  CB       191.2070  217.5190  140.4280 C.3    31  SER31       0.2116
     95  OG       192.2670  216.9730  139.6710 O.3    31  SER31      -0.2180
     96  N        186.6420  217.2140  141.2430 N.3    37  MET37      -0.1245
     97  CA       187.0810  217.7070  139.9430 C.3    37  MET37       0.1570
     98  C        185.9030  218.2000  139.1230 C.2    37  MET37       0.2261
     99  O        186.0300  219.1670  138.3660 O.2    37  MET37      -0.2867
    100  CB       187.8290  216.6120  139.1870 C.3    37  MET37       0.0387
    101  CG       188.2540  217.0190  137.7900 C.3    37  MET37       0.0595
    102  SD       189.1710  215.7340  136.9300 S.3    37  MET37      -0.1393
    103  CE       187.8690  214.5520  136.6070 C.3    37  MET37       0.0692
    104  N        185.8230  221.7880  139.9870 N.3    40  MET40      -0.1230
    105  CA       186.9410  222.6310  139.5950 C.3    40  MET40       0.1702
    106  C        187.0970  222.7630  138.0910 C.2    40  MET40       0.2592
    107  O        187.8640  223.6190  137.6470 O.2    40  MET40      -0.2718
    108  CB       188.2220  222.0970  140.2100 C.3    40  MET40       0.0401
    109  CG       188.2450  222.2810  141.7000 C.3    40  MET40       0.0596
    110  SD       189.6840  221.5380  142.4530 S.3    40  MET40      -0.1393
    111  CE       189.1910  219.8260  142.3470 C.3    40  MET40       0.0692
    112  N        186.3900  221.9620  137.2960 N.am   41  ILE41      -0.1980
    113  CA       186.4210  222.1860  135.8580 C.3    41  ILE41       0.1595
    114  C        185.7320  223.4950  135.5110 C.2    41  ILE41       0.2287
    115  O        186.1840  224.2340  134.6310 O.2    41  ILE41      -0.2864
    116  CB       185.7870  221.0100  135.1060 C.3    41  ILE41       0.0276
    117  CG1      186.6280  219.7570  135.2790 C.3    41  ILE41       0.0022
    118  CG2      185.6900  221.3300  133.6370 C.3    41  ILE41       0.0022
    119  CD1      185.9640  218.5240  134.7250 C.3    41  ILE41       0.0001
    120  N        185.0420  226.0540  137.8380 N.3    43  CYS43      -0.1221
    121  CA       185.6390  227.1650  138.5670 C.3    43  CYS43       0.1808
    122  C        186.7590  227.7990  137.7660 C.2    43  CYS43       0.2601
    123  O        186.9320  229.0220  137.7900 O.2    43  CYS43      -0.2717
    124  CB       186.1520  226.6980  139.9240 C.3    43  CYS43       0.0970
    125  SG       184.8610  226.1650  141.0610 S.3    43  CYS43      -0.0800
    126  N        187.5170  226.9850  137.0320 N.am   44  GLU44      -0.1979
    127  CA       188.5680  227.5240  136.1790 C.3    44  GLU44       0.1602
    128  C        187.9890  228.4100  135.0920 C.2    44  GLU44       0.2287
    129  O        188.2490  229.6160  135.0430 O.2    44  GLU44      -0.2864
    130  CB       189.3660  226.3890  135.5490 C.3    44  GLU44       0.0415
    131  CG       190.4760  226.8760  134.6590 C.3    44  GLU44       0.1163
    132  CD       191.2860  225.7460  134.0870 C.2    44  GLU44       0.3649
    133  OE1      190.9110  224.5820  134.3170 O.co2  44  GLU44      -0.2457
    134  OE2      192.3090  226.0130  133.4260 O.co2  44  GLU44      -0.2457
    135  N        186.5260  231.6220  136.0700 N.3    47  ASN47      -0.1240
    136  CA       187.5190  232.5900  136.5170 C.3    47  ASN47       0.1653
    137  C        188.2050  233.2460  135.3300 C.2    47  ASN47       0.2266
    138  O        188.3030  234.4760  135.2560 O.2    47  ASN47      -0.2867
    139  CB       188.5460  231.9230  137.4280 C.3    47  ASN47       0.1155
    140  CG       188.0190  231.6870  138.8180 C.2    47  ASN47       0.2627
    141  OD1      187.0940  232.3570  139.2600 O.2    47  ASN47      -0.2716
    142  ND2      188.6180  230.7440  139.5250 N.am   47  ASN47      -0.0877
    143  N        190.5610  227.5720  126.5840 N.3   146  ILE146     -0.1245
    144  CA       191.2640  227.4430  127.8550 C.3   146  ILE146      0.1561
    145  C        192.6650  228.0310  127.7690 C.2   146  ILE146      0.2260
    146  O        193.0770  228.8120  128.6340 O.2   146  ILE146     -0.2867
    147  CB       191.2920  225.9740  128.2950 C.3   146  ILE146      0.0252
    148  CG1      189.9140  225.5490  128.7710 C.3   146  ILE146      0.0019
    149  CG2      192.2680  225.7910  129.3760 C.3   146  ILE146      0.0019
    150  CD1      189.4480  226.3280  129.9710 C.3   146  ILE146      0.0001
    151  N        193.7810  230.3880  130.7420 N.3   150  ARG150     -0.1231
    152  CA       194.8600  230.2100  131.7030 C.3   150  ARG150      0.1694
    153  C        195.8940  231.3180  131.5880 C.2   150  ARG150      0.2591
    154  O        196.3380  231.8810  132.5920 O.2   150  ARG150     -0.2718
    155  CB       195.5210  228.8630  131.4580 C.3   150  ARG150      0.0321
    156  CG       194.6310  227.6820  131.6700 C.3   150  ARG150      0.0489
    157  CD       195.3550  226.4690  131.1870 C.3   150  ARG150      0.2205
    158  NE       194.5500  225.2740  131.3020 N.pl3 150  ARG150     -0.0865
    159  CZ       194.8620  224.1330  130.7140 C.cat 150  ARG150      0.5346
    160  NH1      195.9500  224.0600  129.9670 N.pl3 150  ARG150      0.1354
    161  NH2      194.0770  223.0780  130.8460 N.pl3 150  ARG150      0.1354
    162  N        196.2860  231.6470  130.3590 N.am  151  LEU151     -0.1980
    163  CA       197.2360  232.7310  130.1660 C.3   151  LEU151      0.1596
    164  C        196.6530  234.0540  130.6320 C.2   151  LEU151      0.2287
    165  O        197.3400  234.8460  131.2850 O.2   151  LEU151     -0.2864
    166  CB       197.6470  232.8100  128.7000 C.3   151  LEU151      0.0297
    167  CG       198.5690  233.9730  128.3620 C.3   151  LEU151      0.0022
    168  CD1      199.8480  233.8510  129.1440 C.3   151  LEU151      0.0001
    169  CD2      198.8560  233.9890  126.8830 C.3   151  LEU151      0.0001
    170  N        194.3570  234.6790  132.9930 N.3   153  MET153     -0.1230
    171  CA       194.4710  234.6750  134.4450 C.3   153  MET153      0.1702
    172  C        195.9050  234.9400  134.8630 C.2   153  MET153      0.2592
    173  O        196.1940  235.8720  135.6180 O.2   153  MET153     -0.2718
    174  CB       194.0560  233.3220  135.0040 C.3   153  MET153      0.0401
    175  CG       192.6910  232.8220  134.6950 C.3   153  MET153      0.0596
    176  SD       192.7090  231.1860  135.4270 S.3   153  MET153     -0.1393
    177  CE       191.1420  230.5170  134.9450 C.3   153  MET153      0.0692
    178  N        196.8200  234.1070  134.3680 N.am  154  PHE154     -0.1976
    179  CA       198.2210  234.2410  134.7250 C.3   154  PHE154      0.1639
    180  C        198.7610  235.6010  134.3280 C.2   154  PHE154      0.2290
    181  O        199.6930  236.1060  134.9590 O.2   154  PHE154     -0.2864
    182  CB       199.0230  233.1180  134.0780 C.3   154  PHE154      0.0560
    183  CG       200.4940  233.2320  134.2820 C.ar  154  PHE154     -0.0200
    184  CD1      201.0650  232.8990  135.4860 C.ar  154  PHE154     -0.0042
    185  CD2      201.3110  233.6550  133.2600 C.ar  154  PHE154     -0.0042
    186  CE1      202.4210  233.0040  135.6720 C.ar  154  PHE154     -0.0003
    187  CE2      202.6650  233.7570  133.4390 C.ar  154  PHE154     -0.0003
    188  CZ       203.2200  233.4320  134.6480 C.ar  154  PHE154     -0.0000
    189  N        197.8220  238.2400  137.2200 N.3   157  VAL157     -0.1245
    190  CA       198.7320  238.2950  138.3590 C.3   157  VAL157      0.1561
    191  C        199.8890  239.2250  138.0510 C.2   157  VAL157      0.2260
    192  O        200.3570  239.9730  138.9170 O.2   157  VAL157     -0.2867
    193  CB       199.2340  236.8860  138.7160 C.3   157  VAL157      0.0252
    194  CG1      200.1050  236.9430  139.9520 C.3   157  VAL157      0.0019
    195  CG2      198.0800  235.9430  138.8940 C.3   157  VAL157      0.0019
    196  N        200.9630  241.8220  141.0980 N.3   161  LEU161     -0.1245
    197  CA       202.2170  241.7720  141.8420 C.3   161  LEU161      0.1561
    198  C        203.1970  242.8430  141.3910 C.2   161  LEU161      0.2260
    199  O        204.0730  243.2360  142.1680 O.2   161  LEU161     -0.2867
    200  CB       202.8540  240.3890  141.7530 C.3   161  LEU161      0.0270
    201  CG       202.1360  239.3690  142.6300 C.3   161  LEU161      0.0019
    202  CD1      202.7030  237.9920  142.4480 C.3   161  LEU161      0.0001
    203  CD2      202.2490  239.7690  144.0830 C.3   161  LEU161      0.0001
@<TRIPOS>BOND
     1    57    56    1
     2   143   144    1
     3    54    56   ar
     4    54    52   ar
     5   169   167    1
     6    56    55   ar
     7    32    35    1
     8    32    33    1
     9    32    31    1
    10    35    36    1
    11    26    25    2
    12    33    34    2
    13   145   144    1
    14   145   146    2
    15    52    51   ar
    16   144   147    1
    17    25    31   am
    18    25    24    1
    19    31    37    1
    20    23    24    1
    21    55    53   ar
    22   147   148    1
    23   147   149    1
    24   167   166    1
    25   167   168    1
    26   166   163    1
    27    36    37    1
    28   148   150    1
    29    44    43    2
    30    24    27    1
    31    41    40    2
    32    51    53   ar
    33    51    50    1
    34    38    39    1
    35    40    39    1
    36    40    46   am
    37   160   159    1
    38    43    45   am
    39    43    42    1
    40   163   162    1
    41   163   164    1
    42    47    50    1
    43    47    46    1
    44    47    48    1
    45    39    42    1
    46   162   153   am
    47    27    28    1
    48   164   165    2
    49   159   161    1
    50   159   158    2
    51   151   152    1
    52     4     3    2
    53     1     2    1
    54   157   158    1
    55   157   156    1
    56    48    49    2
    57    48    58   am
    58     2     3    1
    59     2     5    1
    60   155   156    1
    61   155   152    1
    62    28    29    1
    63    28    30    1
    64   153   152    1
    65   153   154    2
    66    21    20    1
    67    58    59    1
    68    18    17    2
    69     5     6    1
    70    22    20    1
    71   170   171    1
    72    20    19    1
    73    17    16    1
    74    59    60    1
    75   185   187   ar
    76   185   183   ar
    77   134   132   ar
    78   187   188   ar
    79   118   116    1
    80    19    16    1
    81     6     7   ar
    82     6     8   ar
    83     7     9   ar
    84   182   183    1
    85   182   179    1
    86   132   133   ar
    87   132   131    1
    88   183   184   ar
    89    16    15    1
    90   180   179    1
    91   180   181    2
    92   178   179    1
    93   178   172   am
    94    60    61    2
    95    60    62   am
    96   171   172    1
    97   171   174    1
    98   115   114    2
    99   188   186   ar
   100   131   130    1
   101   175   174    1
   102   175   176    1
   103   119   117    1
   104    62    63    1
   105   172   173    2
   106   177   176    1
   107   129   128    2
   108   128   127    1
   109     8    11   ar
   110     8    10   ar
   111   116   117    1
   112   116   113    1
   113     9    10   ar
   114   138   137    2
   115   137   136    1
   116    66    63    1
   117    66    67    1
   118   184   186   ar
   119   114   113    1
   120   130   127    1
   121    11    13   ar
   122   113   112    1
   123    63    64    1
   124    10    12   ar
   125   135   136    1
   126   127   126    1
   127    68    67   ar
   128    68    70   ar
   129    67    69   ar
   130   136   139    1
   131   103   102    1
   132    13    14   ar
   133   102   101    1
   134    70    72   ar
   135   126   122   am
   136    12    14   ar
   137    69    71   ar
   138    64    65    2
   139    64    74   am
   140   189   190    1
   141   112   106   am
   142   139   140    1
   143   107   106    2
   144   122   123    2
   145   122   121    1
   146   101   100    1
   147   120   121    1
   148    72    71   ar
   149    72    73    1
   150   191   190    1
   151   191   192    2
   152   106   105    1
   153    74    75    1
   154   190   193    1
   155    99    98    2
   156   121   124    1
   157   193   195    1
   158   193   194    1
   159   140   141    2
   160   140   142   am
   161    98    97    1
   162   100    97    1
   163    81    79   ar
   164    75    78    1
   165    75    76    1
   166   105   104    1
   167   105   108    1
   168    80    79   ar
   169    79    78    1
   170    95    94    1
   171   124   125    1
   172    97    96    1
   173   108   109    1
   174    94    91    1
   175    76    77    2
   176   196   197    1
   177    93    92    2
   178   198   197    1
   179   198   199    2
   180   109   110    1
   181   200   197    1
   182   200   201    1
   183    91    92    1
   184    91    90    1
   185   111   110    1
   186   202   201    1
   187    90    84   am
   188   201   203    1
   189    82    83    1
   190    84    83    1
   191    84    85    2
   192    86    83    1
   193    86    88    1
   194    86    87    1
   195    89    87    1
