@<TRIPOS>MOLECULE
tmp/6igzU05.pdb
 184 184 0 0 0
SMALL
GASTEIGER

@<TRIPOS>ATOM
      1  N        118.7210  229.4580  199.2710 N.3    23  TYR23      -0.1227
      2  CA       119.9790  230.1850  199.3770 C.3    23  TYR23       0.1736
      3  C        120.8450  229.5540  200.4510 C.2    23  TYR23       0.2595
      4  O        120.5630  229.6880  201.6450 O.2    23  TYR23      -0.2718
      5  CB       119.6920  231.6480  199.6950 C.3    23  TYR23       0.0548
      6  CG       120.8900  232.4690  200.0930 C.ar   23  TYR23      -0.0200
      7  CD1      121.8250  232.8710  199.1600 C.ar   23  TYR23      -0.0009
      8  CD2      121.0620  232.8820  201.3970 C.ar   23  TYR23      -0.0009
      9  CE1      122.9090  233.6380  199.5220 C.ar   23  TYR23       0.0417
     10  CE2      122.1370  233.6460  201.7580 C.ar   23  TYR23       0.0417
     11  CZ       123.0570  234.0160  200.8270 C.ar   23  TYR23       0.1957
     12  OH       124.1290  234.7800  201.2120 O.3    23  TYR23      -0.2866
     13  N        121.8880  228.8490  200.0250 N.am   24  ASP24      -0.1960
     14  CA       122.9680  228.4330  200.9190 C.3    24  ASP24       0.1825
     15  C        124.2670  228.3360  200.1340 C.2    24  ASP24       0.2464
     16  O        124.7090  227.2440  199.7620 O.2    24  ASP24      -0.2730
     17  CB       122.6340  227.1170  201.6040 C.3    24  ASP24       0.1450
     18  CG       123.7250  226.6540  202.5140 C.2    24  ASP24       0.3671
     19  OD1      124.0950  227.4150  203.4290 O.co2  24  ASP24      -0.2456
     20  OD2      124.1850  225.5120  202.3310 O.co2  24  ASP24      -0.2456
     21  N        124.9050  229.4700  199.8490 N.am   25  PRO25      -0.2715
     22  CA       126.0980  229.4270  198.9950 C.3    25  PRO25       0.1536
     23  C        127.2550  228.6390  199.5780 C.2    25  PRO25       0.2598
     24  O        127.8610  227.8330  198.8660 O.2    25  PRO25      -0.2715
     25  CB       126.4470  230.9100  198.8220 C.3    25  PRO25       0.0310
     26  CG       125.8740  231.5670  199.9940 C.3    25  PRO25       0.0237
     27  CD       124.6130  230.8300  200.3170 C.3    25  PRO25       0.0939
     28  N        127.5850  228.8310  200.8490 N.am   26  LEU26      -0.1964
     29  CA       128.7950  228.2070  201.3690 C.3    26  LEU26       0.1728
     30  C        128.5970  226.7380  201.6980 C.2    26  LEU26       0.2617
     31  O        129.5610  225.9690  201.6580 O.2    26  LEU26      -0.2715
     32  CB       129.2910  228.9690  202.5890 C.3    26  LEU26       0.0311
     33  CG       129.7840  230.3260  202.1080 C.3    26  LEU26       0.0022
     34  CD1      130.1210  231.2460  203.2420 C.3    26  LEU26       0.0001
     35  CD2      130.9880  230.1070  201.2280 C.3    26  LEU26       0.0001
     36  N        127.3770  226.3230  201.9970 N.am   27  GLY27      -0.1940
     37  CA       127.1240  224.9370  202.3080 C.3    27  GLY27       0.2014
     38  C        126.9700  224.6190  203.7720 C.2    27  GLY27       0.2638
     39  O        127.0030  223.4410  204.1340 O.2    27  GLY27      -0.2714
     40  N        126.7960  225.6240  204.6250 N.am   28  LEU28      -0.1977
     41  CA       126.6420  225.3520  206.0450 C.3    28  LEU28       0.1596
     42  C        125.4130  224.5160  206.3510 C.2    28  LEU28       0.2287
     43  O        125.2670  224.0500  207.4850 O.2    28  LEU28      -0.2864
     44  CB       126.5740  226.6600  206.8230 C.3    28  LEU28       0.0297
     45  CG       127.8540  227.4840  206.8740 C.3    28  LEU28       0.0022
     46  CD1      127.5970  228.8140  207.5510 C.3    28  LEU28       0.0001
     47  CD2      128.9050  226.7010  207.6240 C.3    28  LEU28       0.0001
     48  N        118.5760  231.7330  213.6550 N.3    42  GLU42      -0.1245
     49  CA       118.0430  232.7050  212.7100 C.3    42  GLU42       0.1567
     50  C        116.7260  233.2640  213.2120 C.2    42  GLU42       0.2260
     51  O        116.5080  234.4810  213.2020 O.2    42  GLU42      -0.2867
     52  CB       117.8510  232.0690  211.3380 C.3    42  GLU42       0.0388
     53  CG       117.3470  233.0410  210.3020 C.3    42  GLU42       0.1160
     54  CD       117.1850  232.4060  208.9490 C.2    42  GLU42       0.3649
     55  OE1      117.4060  231.1890  208.8380 O.co2  42  GLU42      -0.2457
     56  OE2      116.8460  233.1220  207.9890 O.co2  42  GLU42      -0.2457
     57  N        117.6760  235.6310  216.2970 N.3    45  ASN45      -0.1240
     58  CA       118.3120  236.8560  215.8260 C.3    45  ASN45       0.1653
     59  C        117.3390  237.7150  215.0320 C.2    45  ASN45       0.2266
     60  O        117.3500  238.9450  215.1430 O.2    45  ASN45      -0.2867
     61  CB       119.5520  236.5280  214.9960 C.3    45  ASN45       0.1155
     62  CG       120.7210  236.0950  215.8450 C.2    45  ASN45       0.2627
     63  OD1      120.7880  236.4110  217.0260 O.2    45  ASN45      -0.2716
     64  ND2      121.6610  235.3860  215.2440 N.am   45  ASN45      -0.0877
     65  N        114.6840  238.6970  217.6120 N.3    48  TRP48      -0.1227
     66  CA       115.2960  239.5710  218.6030 C.3    48  TRP48       0.1737
     67  C        115.5940  240.9600  218.0530 C.2    48  TRP48       0.2595
     68  O        115.0430  241.9530  218.5340 O.2    48  TRP48      -0.2718
     69  CB       116.5980  238.9530  219.1150 C.3    48  TRP48       0.0564
     70  CG       117.2130  239.7390  220.1730 C.ar   48  TRP48       0.0003
     71  CD1      118.1110  240.7360  220.0210 C.ar   48  TRP48       0.0946
     72  CD2      117.0430  239.5570  221.5750 C.ar   48  TRP48       0.0152
     73  NE1      118.4810  241.2280  221.2420 N.ar   48  TRP48      -0.2442
     74  CE2      117.8420  240.5110  222.2150 C.ar   48  TRP48       0.0810
     75  CE3      116.2810  238.6870  222.3520 C.ar   48  TRP48       0.0012
     76  CZ2      117.8940  240.6290  223.5910 C.ar   48  TRP48       0.0191
     77  CZ3      116.3430  238.7990  223.7160 C.ar   48  TRP48       0.0001
     78  CH2      117.1450  239.7600  224.3250 C.ar   48  TRP48       0.0015
     79  N        116.4870  241.0410  217.0650 N.am   49  ALA49      -0.1980
     80  CA       116.9130  242.3270  216.5250 C.3    49  ALA49       0.1597
     81  C        115.7460  243.1330  216.0000 C.2    49  ALA49       0.2287
     82  O        115.7510  244.3640  216.0980 O.2    49  ALA49      -0.2864
     83  CB       117.9140  242.1150  215.4020 C.3    49  ALA49       0.0319
     84  N        115.0110  245.6650  218.1730 N.3    52  ALA52      -0.1245
     85  CA       116.0620  246.6440  218.4160 C.3    52  ALA52       0.1562
     86  C        116.0410  247.7560  217.3860 C.2    52  ALA52       0.2260
     87  O        116.4720  248.8770  217.6740 O.2    52  ALA52      -0.2867
     88  CB       117.4200  245.9560  218.4220 C.3    52  ALA52       0.0290
     89  N        113.1240  249.6630  218.5950 N.3    55  GLY55      -0.1210
     90  CA       113.6430  250.3040  219.7870 C.3    55  GLY55       0.1956
     91  C        114.4200  251.5630  219.4660 C.2    55  GLY55       0.2611
     92  O        114.2290  252.6000  220.1000 O.2    55  GLY55      -0.2717
     93  N        115.3060  251.4920  218.4730 N.am   56  ILE56      -0.1979
     94  CA       116.0490  252.6840  218.0810 C.3    56  ILE56       0.1595
     95  C        115.1540  253.6360  217.3140 C.2    56  ILE56       0.2287
     96  O        115.1360  254.8410  217.5810 O.2    56  ILE56      -0.2864
     97  CB       117.2940  252.3250  217.2570 C.3    56  ILE56       0.0276
     98  CG1      118.3630  251.6930  218.1340 C.3    56  ILE56       0.0022
     99  CG2      117.8430  253.5590  216.5810 C.3    56  ILE56       0.0022
    100  CD1      119.5630  251.2720  217.3550 C.3    56  ILE56       0.0001
    101  N        116.1690  259.7740  223.2780 N.3    65  GLN65      -0.1245
    102  CA       117.1560  258.8740  222.6850 C.3    65  GLN65       0.1566
    103  C        117.3480  259.1730  221.2080 C.2    65  GLN65       0.2260
    104  O        116.9150  258.3960  220.3530 O.2    65  GLN65      -0.2867
    105  CB       116.7680  257.4010  222.8580 C.3    65  GLN65       0.0367
    106  CG       116.9430  256.8260  224.2540 C.3    65  GLN65       0.0905
    107  CD       116.5140  255.3620  224.3500 C.2    65  GLN65       0.2608
    108  OE1      115.6510  254.9050  223.6060 O.2    65  GLN65      -0.2717
    109  NE2      117.1410  254.6200  225.2520 N.am   65  GLN65      -0.0878
    110  N        121.2610  257.1980  220.1090 N.3    68  TRP68      -0.1227
    111  CA       121.0780  255.7730  220.4010 C.3    68  TRP68       0.1737
    112  C        122.3550  254.9660  220.6000 C.2    68  TRP68       0.2595
    113  O        122.3090  253.9220  221.2560 O.2    68  TRP68      -0.2718
    114  CB       120.2630  255.0310  219.3310 C.3    68  TRP68       0.0564
    115  CG       120.8940  254.9010  217.9810 C.ar   68  TRP68       0.0003
    116  CD1      120.6340  255.6660  216.8920 C.ar   68  TRP68       0.0946
    117  CD2      121.9120  253.9720  217.5820 C.ar   68  TRP68       0.0152
    118  NE1      121.4090  255.2680  215.8350 N.ar   68  TRP68      -0.2442
    119  CE2      122.2030  254.2290  216.2330 C.ar   68  TRP68       0.0810
    120  CE3      122.5960  252.9430  218.2310 C.ar   68  TRP68       0.0012
    121  CZ2      123.1510  253.5010  215.5200 C.ar   68  TRP68       0.0191
    122  CZ3      123.5400  252.2200  217.5220 C.ar   68  TRP68       0.0001
    123  CH2      123.8070  252.5010  216.1820 C.ar   68  TRP68       0.0015
    124  N        123.4950  255.3970  220.0620 N.am   69  TRP69      -0.1976
    125  CA       124.7290  254.7120  220.4340 C.3    69  TRP69       0.1640
    126  C        125.3090  255.3070  221.7040 C.2    69  TRP69       0.2290
    127  O        125.7910  254.5810  222.5800 O.2    69  TRP69      -0.2864
    128  CB       125.7530  254.7190  219.2970 C.3    69  TRP69       0.0576
    129  CG       126.2230  256.0460  218.8090 C.ar   69  TRP69       0.0006
    130  CD1      127.2160  256.8050  219.3430 C.ar   69  TRP69       0.0946
    131  CD2      125.7920  256.7250  217.6280 C.ar   69  TRP69       0.0152
    132  NE1      127.3970  257.9410  218.5980 N.ar   69  TRP69      -0.2442
    133  CE2      126.5360  257.9130  217.5350 C.ar   69  TRP69       0.0810
    134  CE3      124.8340  256.4540  216.6500 C.ar   69  TRP69       0.0012
    135  CZ2      126.3530  258.8260  216.5080 C.ar   69  TRP69       0.0191
    136  CZ3      124.6480  257.3650  215.6350 C.ar   69  TRP69       0.0001
    137  CH2      125.4050  258.5360  215.5680 C.ar   69  TRP69       0.0015
    138  N        123.5600  256.4870  223.8850 N.3    71  VAL71      -0.1245
    139  CA       122.6270  256.1910  224.9590 C.3    71  VAL71       0.1561
    140  C        123.2240  255.1250  225.8590 C.2    71  VAL71       0.2260
    141  O        123.7630  254.1150  225.3930 O.2    71  VAL71      -0.2867
    142  CB       121.2660  255.7680  224.3960 C.3    71  VAL71       0.0252
    143  CG1      120.3750  255.2730  225.5170 C.3    71  VAL71       0.0019
    144  CG2      120.6090  256.9430  223.6920 C.3    71  VAL71       0.0019
    145  N        117.2910  241.8580  210.7570 N.3   141  MET141     -0.1230
    146  CA       118.7260  241.7120  210.9540 C.3   141  MET141      0.1702
    147  C        119.4980  242.4630  209.8800 C.2   141  MET141      0.2592
    148  O        120.4100  243.2380  210.1790 O.2   141  MET141     -0.2718
    149  CB       119.0790  240.2320  210.9390 C.3   141  MET141      0.0401
    150  CG       118.4330  239.4690  212.0560 C.3   141  MET141      0.0596
    151  SD       118.7650  237.7160  211.9220 S.3   141  MET141     -0.1393
    152  CE       117.6520  237.2830  210.5950 C.3   141  MET141      0.0692
    153  N        119.1340  242.2460  208.6170 N.am  142  PHE142     -0.1976
    154  CA       119.7390  243.0060  207.5330 C.3   142  PHE142      0.1639
    155  C        119.5610  244.4980  207.7580 C.2   142  PHE142      0.2290
    156  O        120.4860  245.2850  207.5310 O.2   142  PHE142     -0.2864
    157  CB       119.1260  242.5820  206.2000 C.3   142  PHE142      0.0560
    158  CG       119.6730  243.3170  205.0090 C.ar  142  PHE142     -0.0200
    159  CD1      120.8550  242.9200  204.4190 C.ar  142  PHE142     -0.0042
    160  CD2      118.9960  244.3950  204.4690 C.ar  142  PHE142     -0.0042
    161  CE1      121.3550  243.5890  203.3200 C.ar  142  PHE142     -0.0003
    162  CE2      119.4940  245.0670  203.3730 C.ar  142  PHE142     -0.0003
    163  CZ       120.6730  244.6610  202.7980 C.ar  142  PHE142     -0.0000
    164  N        119.4540  245.9790  210.5100 N.3   144  TRP144     -0.1227
    165  CA       120.2770  246.4180  211.6310 C.3   144  TRP144      0.1737
    166  C        121.6420  246.8990  211.1660 C.2   144  TRP144      0.2596
    167  O        122.0820  247.9950  211.5310 O.2   144  TRP144     -0.2718
    168  CB       120.4350  245.2880  212.6400 C.3   144  TRP144      0.0564
    169  CG       121.4510  245.5980  213.6660 C.ar  144  TRP144      0.0003
    170  CD1      122.6940  245.0590  213.7720 C.ar  144  TRP144      0.0946
    171  CD2      121.3360  246.5550  214.7150 C.ar  144  TRP144      0.0152
    172  NE1      123.3560  245.6060  214.8390 N.ar  144  TRP144     -0.2442
    173  CE2      122.5420  246.5310  215.4350 C.ar  144  TRP144      0.0810
    174  CE3      120.3250  247.4250  215.1240 C.ar  144  TRP144      0.0012
    175  CZ2      122.7660  247.3440  216.5400 C.ar  144  TRP144      0.0191
    176  CZ3      120.5480  248.2270  216.2180 C.ar  144  TRP144      0.0001
    177  CH2      121.7580  248.1840  216.9150 C.ar  144  TRP144      0.0015
    178  N        122.3310  246.0810  210.3670 N.am  145  THR145     -0.1953
    179  CA       123.6990  246.3880  209.9690 C.3   145  THR145      0.1897
    180  C        123.8120  247.7790  209.3720 C.2   145  THR145      0.2313
    181  O        124.8360  248.4500  209.5400 O.2   145  THR145     -0.2863
    182  CB       124.1920  245.3520  208.9660 C.3   145  THR145      0.1794
    183  OG1      124.0920  244.0480  209.5450 O.3   145  THR145     -0.2208
    184  CG2      125.6410  245.6200  208.6010 C.3   145  THR145      0.0378
@<TRIPOS>BOND
     1    25    22    1
     2    25    26    1
     3    24    23    2
     4    22    23    1
     5    22    21    1
     6     7     9   ar
     7     7     6   ar
     8     1     2    1
     9     2     5    1
    10     2     3    1
    11     9    11   ar
    12    23    28   am
    13     5     6    1
    14    16    15    2
    15    21    15   am
    16    21    27    1
    17    26    27    1
    18    13     3   am
    19    13    14    1
    20     6     8   ar
    21    15    14    1
    22     3     4    2
    23    11    12    1
    24    11    10   ar
    25    28    29    1
    26    14    17    1
    27    35    33    1
    28    29    30    1
    29    29    32    1
    30     8    10   ar
    31    17    18    1
    32    31    30    2
    33    30    36   am
    34    36    37    1
    35    33    32    1
    36    33    34    1
    37    37    38    1
    38    20    18   ar
    39    18    19   ar
    40   163   161   ar
    41   163   162   ar
    42   161   159   ar
    43   162   160   ar
    44    38    39    2
    45    38    40   am
    46   159   158   ar
    47   160   158   ar
    48    40    41    1
    49   158   157    1
    50    41    42    1
    51    41    44    1
    52   157   154    1
    53    42    43    2
    54    44    45    1
    55    45    46    1
    56    45    47    1
    57   156   155    2
    58   154   155    1
    59   154   153    1
    60    56    54   ar
    61   184   182    1
    62   153   147   am
    63    55    54   ar
    64    54    53    1
    65   182   183    1
    66   182   179    1
    67   180   181    2
    68   180   179    1
    69   147   148    2
    70   147   146    1
    71   179   178    1
    72    53    52    1
    73   178   166   am
    74   164   165    1
    75   152   151    1
    76   145   146    1
    77   149   146    1
    78   149   150    1
    79   166   167    2
    80   166   165    1
    81    52    49    1
    82   165   168    1
    83   151   150    1
    84   168   169    1
    85    49    50    1
    86    49    48    1
    87    51    50    2
    88   169   170   ar
    89   169   171   ar
    90   170   172   ar
    91   171   174   ar
    92   171   173   ar
    93   172   173   ar
    94    61    58    1
    95    61    62    1
    96    59    60    2
    97    59    58    1
    98   174   176   ar
    99    64    62   am
   100    83    80    1
   101   173   175   ar
   102   121   123   ar
   103   121   119   ar
   104   137   136   ar
   105   137   135   ar
   106   136   134   ar
   107    58    57    1
   108   118   119   ar
   109   118   116   ar
   110    62    63    2
   111    81    82    2
   112    81    80    1
   113   123   122   ar
   114   176   177   ar
   115   119   117   ar
   116   135   133   ar
   117    80    79    1
   118   175   177   ar
   119    99    97    1
   120   134   131   ar
   121   116   115   ar
   122    79    67   am
   123    97    94    1
   124    97    98    1
   125    95    96    2
   126    95    94    1
   127   100    98    1
   128    86    87    2
   129    86    85    1
   130   122   120   ar
   131   133   131   ar
   132   133   132   ar
   133   117   115   ar
   134   117   120   ar
   135    65    66    1
   136   131   129   ar
   137   115   114    1
   138    67    68    2
   139    67    66    1
   140    94    93    1
   141    84    85    1
   142    85    88    1
   143    93    91   am
   144    89    90    1
   145   132   130   ar
   146    66    69    1
   147   129   128    1
   148   129   130   ar
   149    69    70    1
   150   128   125    1
   151   114   111    1
   152    91    90    1
   153    91    92    2
   154    71    70   ar
   155    71    73   ar
   156   124   125    1
   157   124   112   am
   158   110   111    1
   159    70    72   ar
   160   104   103    2
   161   111   112    1
   162   125   126    1
   163   112   113    2
   164   103   102    1
   165    73    74   ar
   166    72    74   ar
   167    72    75   ar
   168   126   127    2
   169    74    76   ar
   170    75    77   ar
   171   102   105    1
   172   102   101    1
   173   105   106    1
   174    76    78   ar
   175   108   107    2
   176   144   142    1
   177    77    78   ar
   178   138   139    1
   179   106   107    1
   180   107   109   am
   181   142   139    1
   182   142   143    1
   183   139   140    1
   184   141   140    2
