@<TRIPOS>MOLECULE
tmp/6igzO08.pdb
 96 93 0 0 0
SMALL
GASTEIGER

@<TRIPOS>ATOM
      1  N        248.3660  183.4970  236.8780 N.3    56  PHE56      -0.1241
      2  CA       248.6720  184.9210  236.9690 C.3    56  PHE56       0.1605
      3  C        249.0540  185.3180  238.3840 C.2    56  PHE56       0.2264
      4  O        250.0120  186.0690  238.5920 O.2    56  PHE56      -0.2867
      5  CB       247.4940  185.7640  236.4940 C.3    56  PHE56       0.0534
      6  CG       247.3080  185.7700  235.0140 C.ar   56  PHE56      -0.0203
      7  CD1      248.0600  186.6110  234.2260 C.ar   56  PHE56      -0.0042
      8  CD2      246.3730  184.9670  234.4110 C.ar   56  PHE56      -0.0042
      9  CE1      247.8920  186.6350  232.8660 C.ar   56  PHE56      -0.0003
     10  CE2      246.2060  184.9960  233.0540 C.ar   56  PHE56      -0.0003
     11  CZ       246.9640  185.8280  232.2840 C.ar   56  PHE56      -0.0000
     12  N        252.4730  184.4890  238.9360 N.3    59  LEU59      -0.1245
     13  CA       253.3060  185.4600  238.2500 C.3    59  LEU59       0.1561
     14  C        253.1190  186.8470  238.8290 C.2    59  LEU59       0.2260
     15  O        254.0370  187.6690  238.7780 O.2    59  LEU59      -0.2867
     16  CB       252.9950  185.4620  236.7630 C.3    59  LEU59       0.0270
     17  CG       253.2590  184.1190  236.1010 C.3    59  LEU59       0.0019
     18  CD1      252.9010  184.1810  234.6390 C.3    59  LEU59       0.0001
     19  CD2      254.6970  183.7300  236.2920 C.3    59  LEU59       0.0001
     20  N        251.2440  195.9670  224.2930 N.3   110  GLU110     -0.1245
     21  CA       250.5880  194.9770  225.1310 C.3   110  GLU110      0.1567
     22  C        249.2670  194.5460  224.5220 C.2   110  GLU110      0.2260
     23  O        249.1160  193.4040  224.0830 O.2   110  GLU110     -0.2867
     24  CB       250.3710  195.5530  226.5200 C.3   110  GLU110      0.0388
     25  CG       249.6360  194.6520  227.4550 C.3   110  GLU110      0.1160
     26  CD       249.4440  195.3030  228.7970 C.2   110  GLU110      0.3649
     27  OE1      249.8770  196.4580  228.9570 O.co2 110  GLU110     -0.2457
     28  OE2      248.8540  194.6730  229.6920 O.co2 110  GLU110     -0.2457
     29  N        249.6200  192.6140  221.2890 N.3   113  ALA113     -0.1231
     30  CA       250.2880  191.3270  221.3870 C.3   113  ALA113      0.1694
     31  C        249.6430  190.4410  222.4350 C.2   113  ALA113      0.2591
     32  O        249.5720  189.2230  222.2580 O.2   113  ALA113     -0.2718
     33  CB       251.7630  191.5360  221.6930 C.3   113  ALA113      0.0304
     34  N        249.1730  191.0210  223.5350 N.am  114  MET114     -0.1979
     35  CA       248.5300  190.1960  224.5480 C.3   114  MET114      0.1605
     36  C        247.2080  189.6480  224.0550 C.2   114  MET114      0.2287
     37  O        246.7480  188.6180  224.5500 O.2   114  MET114     -0.2864
     38  CB       248.3290  190.9860  225.8380 C.3   114  MET114      0.0413
     39  CG       247.7210  190.1790  226.9390 C.3   114  MET114      0.0598
     40  SD       248.8070  188.8140  227.3430 S.3   114  MET114     -0.1393
     41  CE       247.8490  187.9770  228.5920 C.3   114  MET114      0.0692
     42  N        246.6230  188.6460  220.7920 N.3   116  PHE116     -0.1227
     43  CA       246.9940  187.4330  220.0750 C.3   116  PHE116      0.1736
     44  C        247.1770  186.2620  221.0160 C.2   116  PHE116      0.2595
     45  O        246.9600  185.1190  220.6200 O.2   116  PHE116     -0.2718
     46  CB       248.2770  187.6160  219.2710 C.3   116  PHE116      0.0547
     47  CG       248.0800  188.2750  217.9540 C.ar  116  PHE116     -0.0202
     48  CD1      247.6880  187.5330  216.8620 C.ar  116  PHE116     -0.0042
     49  CD2      248.3200  189.6190  217.7920 C.ar  116  PHE116     -0.0042
     50  CE1      247.5170  188.1220  215.6400 C.ar  116  PHE116     -0.0003
     51  CE2      248.1510  190.2150  216.5680 C.ar  116  PHE116     -0.0003
     52  CZ       247.7500  189.4640  215.4910 C.ar  116  PHE116     -0.0000
     53  N        247.6090  186.5090  222.2470 N.am  117  ALA117     -0.1980
     54  CA       247.7430  185.4090  223.1880 C.3   117  ALA117      0.1597
     55  C        246.3840  184.8410  223.5660 C.2   117  ALA117      0.2287
     56  O        246.1100  183.6590  223.3490 O.2   117  ALA117     -0.2864
     57  CB       248.4900  185.8770  224.4320 C.3   117  ALA117      0.0319
     58  N        247.2880  178.0860  209.2730 N.3   135  TYR135     -0.1227
     59  CA       248.7110  178.3920  209.3230 C.3   135  TYR135      0.1736
     60  C        248.9660  179.6080  210.1910 C.2   135  TYR135      0.2595
     61  O        248.4260  180.6840  209.9330 O.2   135  TYR135     -0.2718
     62  CB       249.2460  178.6470  207.9210 C.3   135  TYR135      0.0548
     63  CG       250.6900  179.0800  207.9030 C.ar  135  TYR135     -0.0200
     64  CD1      251.7040  178.1610  208.0730 C.ar  135  TYR135     -0.0009
     65  CD2      251.0380  180.4030  207.7180 C.ar  135  TYR135     -0.0009
     66  CE1      253.0160  178.5460  208.0590 C.ar  135  TYR135      0.0417
     67  CE2      252.3500  180.7930  207.7040 C.ar  135  TYR135      0.0417
     68  CZ       253.3340  179.8590  207.8740 C.ar  135  TYR135      0.1957
     69  OH       254.6530  180.2300  207.8620 O.3   135  TYR135     -0.2866
     70  N        249.7910  179.4430  211.2160 N.am  136  PHE136     -0.1962
     71  CA       250.3360  180.5700  211.9620 C.3   136  PHE136      0.1771
     72  C        251.8340  180.3520  212.1040 C.2   136  PHE136      0.2619
     73  O        252.2700  179.6350  213.0080 O.2   136  PHE136     -0.2715
     74  CB       249.6400  180.6410  213.3080 C.3   136  PHE136      0.0574
     75  CG       250.2110  181.6320  214.2460 C.ar  136  PHE136     -0.0200
     76  CD1      249.9640  182.9670  214.0800 C.ar  136  PHE136     -0.0042
     77  CD2      250.9250  181.2220  215.3420 C.ar  136  PHE136     -0.0042
     78  CE1      250.4600  183.8750  214.9520 C.ar  136  PHE136     -0.0003
     79  CE2      251.4230  182.1340  216.2250 C.ar  136  PHE136     -0.0003
     80  CZ       251.1880  183.4650  216.0290 C.ar  136  PHE136     -0.0000
     81  N        252.6160  181.0090  211.2470 N.am  137  LEU137     -0.1977
     82  CA       254.0760  180.9950  211.2970 C.3   137  LEU137      0.1596
     83  C        254.6750  179.6270  211.6020 C.2   137  LEU137      0.2287
     84  O        255.7320  179.5400  212.2250 O.2   137  LEU137     -0.2864
     85  CB       254.5800  182.0120  212.3130 C.3   137  LEU137      0.0297
     86  CG       254.8620  183.3890  211.7300 C.3   137  LEU137      0.0022
     87  CD1      253.6100  184.0050  211.1700 C.3   137  LEU137      0.0001
     88  CD2      255.4490  184.2750  212.8000 C.3   137  LEU137      0.0001
     89  N        253.9520  177.6850  213.8130 N.3   139  LEU139     -0.1245
     90  CA       253.9380  177.3590  215.2310 C.3   139  LEU139      0.1561
     91  C        252.8100  176.4220  215.6270 C.2   139  LEU139      0.2260
     92  O        252.8940  175.8090  216.6940 O.2   139  LEU139     -0.2867
     93  CB       253.8340  178.6330  216.0690 C.3   139  LEU139      0.0270
     94  CG       255.1150  179.3320  216.5240 C.3   139  LEU139      0.0019
     95  CD1      255.9390  179.7890  215.3580 C.3   139  LEU139      0.0001
     96  CD2      254.7590  180.5210  217.3820 C.3   139  LEU139      0.0001
@<TRIPOS>BOND
     1    67    65   ar
     2    67    68   ar
     3    65    63   ar
     4    69    68    1
     5    68    66   ar
     6    63    62    1
     7    63    64   ar
     8    62    59    1
     9    66    64   ar
    10    58    59    1
    11    59    60    1
    12    61    60    2
    13    60    70   am
    14    87    86    1
    15    70    71    1
    16    81    82    1
    17    81    72   am
    18    82    83    1
    19    82    85    1
    20    83    84    2
    21    86    85    1
    22    86    88    1
    23    71    72    1
    24    71    74    1
    25    72    73    2
    26    74    75    1
    27    89    90    1
    28    76    75   ar
    29    76    78   ar
    30    75    77   ar
    31    78    80   ar
    32    90    91    1
    33    90    93    1
    34    77    79   ar
    35    95    94    1
    36    52    50   ar
    37    52    51   ar
    38    91    92    2
    39    50    48   ar
    40    80    79   ar
    41    93    94    1
    42    94    96    1
    43    51    49   ar
    44    48    47   ar
    45    49    47   ar
    46    47    46    1
    47    46    43    1
    48    43    42    1
    49    43    44    1
    50    45    44    2
    51    44    53   am
    52    29    30    1
    53    30    33    1
    54    30    31    1
    55    53    54    1
    56    32    31    2
    57    31    34   am
    58    54    55    1
    59    54    57    1
    60    56    55    2
    61    34    35    1
    62    36    35    1
    63    36    37    2
    64    23    22    2
    65    20    21    1
    66    22    21    1
    67    35    38    1
    68    21    24    1
    69    38    39    1
    70    24    25    1
    71    39    40    1
    72    40    41    1
    73    25    26    1
    74    26    27   ar
    75    26    28   ar
    76    11     9   ar
    77    11    10   ar
    78     9     7   ar
    79    10     8   ar
    80     7     6   ar
    81     8     6   ar
    82    18    17    1
    83     6     5    1
    84    17    19    1
    85    17    16    1
    86     5     2    1
    87    16    13    1
    88     1     2    1
    89     2     3    1
    90    13    14    1
    91    13    12    1
    92     3     4    2
    93    15    14    2
