@<TRIPOS>MOLECULE
tmp/6igzR05.pdb
 173 173 0 0 0
SMALL
GASTEIGER

@<TRIPOS>ATOM
      1  N        198.7220  218.2670  134.8540 N.3    25  TYR25      -0.1227
      2  CA       199.2900  219.1450  135.8660 C.3    25  TYR25       0.1736
      3  C        198.5090  218.9940  137.1710 C.2    25  TYR25       0.2595
      4  O        197.3980  219.5130  137.2980 O.2    25  TYR25      -0.2718
      5  CB       199.2330  220.5750  135.3500 C.3    25  TYR25       0.0548
      6  CG       199.8250  221.6050  136.2560 C.ar   25  TYR25      -0.0200
      7  CD1      201.1680  221.8880  136.2110 C.ar   25  TYR25      -0.0009
      8  CD2      199.0450  222.2830  137.1660 C.ar   25  TYR25      -0.0009
      9  CE1      201.7100  222.8270  137.0300 C.ar   25  TYR25       0.0417
     10  CE2      199.5840  223.2210  137.9940 C.ar   25  TYR25       0.0417
     11  CZ       200.9140  223.4890  137.9220 C.ar   25  TYR25       0.1957
     12  OH       201.4600  224.4290  138.7520 O.3    25  TYR25      -0.2866
     13  N        199.0880  218.2770  138.1340 N.am   26  ASP26      -0.1960
     14  CA       198.6590  218.3360  139.5350 C.3    26  ASP26       0.1825
     15  C        199.8410  218.1030  140.4570 C.2    26  ASP26       0.2464
     16  O        200.0460  216.9960  140.9650 O.2    26  ASP26      -0.2730
     17  CB       197.5410  217.3430  139.8430 C.3    26  ASP26       0.1450
     18  CG       196.1750  217.9290  139.6340 C.2    26  ASP26       0.3671
     19  OD1      196.0700  219.1650  139.6080 O.co2  26  ASP26      -0.2456
     20  OD2      195.2030  217.1610  139.5220 O.co2  26  ASP26      -0.2456
     21  N        200.6580  219.1240  140.6870 N.am   27  PRO27      -0.2715
     22  CA       201.6830  218.9830  141.7240 C.3    27  PRO27       0.1536
     23  C        201.0980  218.6450  143.0840 C.2    27  PRO27       0.2598
     24  O        201.6440  217.7940  143.7930 O.2    27  PRO27      -0.2715
     25  CB       202.3680  220.3540  141.7160 C.3    27  PRO27       0.0310
     26  CG       202.1460  220.8600  140.3480 C.3    27  PRO27       0.0237
     27  CD       200.7680  220.4070  139.9830 C.3    27  PRO27       0.0939
     28  N        199.9970  219.2800  143.4660 N.am   28  LEU28      -0.1964
     29  CA       199.3940  219.0460  144.7700 C.3    28  LEU28       0.1728
     30  C        198.3120  217.9770  144.7580 C.2    28  LEU28       0.2617
     31  O        197.8710  217.5550  145.8310 O.2    28  LEU28      -0.2715
     32  CB       198.8140  220.3510  145.3030 C.3    28  LEU28       0.0311
     33  CG       199.8730  221.4060  145.5890 C.3    28  LEU28       0.0022
     34  CD1      199.2360  222.7310  145.9220 C.3    28  LEU28       0.0001
     35  CD2      200.7100  220.9290  146.7390 C.3    28  LEU28       0.0001
     36  N        197.8770  217.5260  143.5870 N.am   29  GLY29      -0.1940
     37  CA       196.8480  216.5100  143.5110 C.3    29  GLY29       0.2014
     38  C        195.5380  216.9150  144.1510 C.2    29  GLY29       0.2638
     39  O        195.0410  216.2160  145.0360 O.2    29  GLY29      -0.2714
     40  N        194.9650  218.0380  143.7240 N.am   30  ILE30      -0.1977
     41  CA       193.7390  218.5150  144.3520 C.3    30  ILE30       0.1596
     42  C        192.5210  217.7650  143.8260 C.2    30  ILE30       0.2287
     43  O        191.6320  217.3890  144.5940 O.2    30  ILE30      -0.2864
     44  CB       193.5950  220.0320  144.1540 C.3    30  ILE30       0.0276
     45  CG1      194.7120  220.7680  144.8830 C.3    30  ILE30       0.0022
     46  CG2      192.2550  220.5090  144.6710 C.3    30  ILE30       0.0022
     47  CD1      194.7410  222.2440  144.6080 C.3    30  ILE30       0.0001
     48  N        186.5260  231.6220  136.0700 N.3    47  ASN47      -0.1240
     49  CA       187.5190  232.5900  136.5170 C.3    47  ASN47       0.1653
     50  C        188.2050  233.2460  135.3300 C.2    47  ASN47       0.2266
     51  O        188.3030  234.4760  135.2560 O.2    47  ASN47      -0.2867
     52  CB       188.5460  231.9230  137.4280 C.3    47  ASN47       0.1155
     53  CG       188.0190  231.6870  138.8180 C.2    47  ASN47       0.2627
     54  OD1      187.0940  232.3570  139.2600 O.2    47  ASN47      -0.2716
     55  ND2      188.6180  230.7440  139.5250 N.am   47  ASN47      -0.0877
     56  N        186.4890  236.1260  133.2360 N.3    50  TRP50      -0.1227
     57  CA       186.5660  237.4150  133.9030 C.3    50  TRP50       0.1737
     58  C        187.9900  237.8900  134.0930 C.2    50  TRP50       0.2595
     59  O        188.1950  239.0540  134.4400 O.2    50  TRP50      -0.2718
     60  CB       185.8060  237.3250  135.2100 C.3    50  TRP50       0.0564
     61  CG       184.3930  237.5140  134.9330 C.ar   50  TRP50       0.0003
     62  CD1      183.8600  238.3510  134.0100 C.ar   50  TRP50       0.0946
     63  CD2      183.3240  236.7070  135.3980 C.ar   50  TRP50       0.0152
     64  NE1      182.5030  238.2080  133.9640 N.ar   50  TRP50      -0.2442
     65  CE2      182.1540  237.1890  134.8040 C.ar   50  TRP50       0.0810
     66  CE3      183.2330  235.6570  136.2970 C.ar   50  TRP50       0.0012
     67  CZ2      180.9170  236.6520  135.0710 C.ar   50  TRP50       0.0191
     68  CZ3      181.9990  235.1290  136.5670 C.ar   50  TRP50       0.0001
     69  CH2      180.8590  235.6230  135.9560 C.ar   50  TRP50       0.0015
     70  N        188.9810  237.0300  133.8790 N.am   51  ALA51      -0.1980
     71  CA       190.2890  237.5640  133.5330 C.3    51  ALA51       0.1597
     72  C        190.3140  237.9420  132.0600 C.2    51  ALA51       0.2287
     73  O        190.7430  239.0430  131.6990 O.2    51  ALA51      -0.2864
     74  CB       191.3900  236.5550  133.8560 C.3    51  ALA51       0.0319
     75  N        188.6720  241.0700  131.8050 N.3    54  ALA54      -0.1245
     76  CA       189.2800  242.1690  132.5480 C.3    54  ALA54       0.1562
     77  C        190.6400  242.5560  131.9960 C.2    54  ALA54       0.2260
     78  O        190.9770  243.7440  131.9620 O.2    54  ALA54      -0.2867
     79  CB       189.4100  241.8050  134.0210 C.3    54  ALA54       0.0290
     80  N        190.4140  244.9680  129.5970 N.3    57  GLY57      -0.1210
     81  CA       189.8620  246.1180  130.2730 C.3    57  GLY57       0.1956
     82  C        190.9500  246.8890  130.9810 C.2    57  GLY57       0.2611
     83  O        191.1710  248.0640  130.6840 O.2    57  GLY57      -0.2717
     84  N        191.6790  246.2230  131.8760 N.am   58  MET58      -0.1979
     85  CA       192.7980  246.8710  132.5450 C.3    58  MET58       0.1605
     86  C        193.8440  247.3430  131.5540 C.2    58  MET58       0.2287
     87  O        194.7230  248.1280  131.9190 O.2    58  MET58      -0.2864
     88  CB       193.4440  245.9120  133.5430 C.3    58  MET58       0.0413
     89  CG       192.5620  245.5470  134.7130 C.3    58  MET58       0.0598
     90  SD       193.2290  244.2490  135.7760 S.3    58  MET58      -0.1393
     91  CE       194.5410  245.1120  136.6190 C.3    58  MET58       0.0692
     92  N        192.3110  250.9720  129.9680 N.3    61  GLN61      -0.1245
     93  CA       192.2440  252.0120  130.9880 C.3    61  GLN61       0.1566
     94  C        193.5210  252.8330  131.0010 C.2    61  GLN61       0.2260
     95  O        193.5040  254.0640  130.9010 O.2    61  GLN61      -0.2867
     96  CB       192.0450  251.3740  132.3640 C.3    61  GLN61       0.0367
     97  CG       190.8330  250.4960  132.4840 C.3    61  GLN61       0.0905
     98  CD       189.5530  251.2590  132.3330 C.2    61  GLN61       0.2608
     99  OE1      189.0010  251.3470  131.2390 O.2    61  GLN61      -0.2717
    100  NE2      189.0490  251.7920  133.4360 N.am   61  GLN61      -0.0878
    101  N        194.4740  250.9760  137.2140 N.3    69  TRP69      -0.1227
    102  CA       193.2340  250.4660  137.7870 C.3    69  TRP69       0.1737
    103  C        192.9550  251.1050  139.1380 C.2    69  TRP69       0.2595
    104  O        191.9670  251.8270  139.2690 O.2    69  TRP69      -0.2718
    105  CB       193.2220  248.9440  137.8590 C.3    69  TRP69       0.0564
    106  CG       194.2800  248.3040  138.6400 C.ar   69  TRP69       0.0003
    107  CD1      194.2130  247.8960  139.9370 C.ar   69  TRP69       0.0946
    108  CD2      195.5660  247.9380  138.1680 C.ar   69  TRP69       0.0152
    109  NE1      195.3920  247.3060  140.3070 N.ar   69  TRP69      -0.2442
    110  CE2      196.2410  247.3220  139.2330 C.ar   69  TRP69       0.0810
    111  CE3      196.2180  248.0770  136.9450 C.ar   69  TRP69       0.0012
    112  CZ2      197.5280  246.8450  139.1130 C.ar   69  TRP69       0.0191
    113  CZ3      197.4970  247.6080  136.8290 C.ar   69  TRP69       0.0001
    114  CH2      198.1450  247.0010  137.9070 C.ar   69  TRP69       0.0015
    115  N        193.8110  250.8730  140.1400 N.am   70  HIS70      -0.1975
    116  CA       193.6040  251.5180  141.4340 C.3    70  HIS70       0.1656
    117  C        193.4830  253.0230  141.3200 C.2    70  HIS70       0.2291
    118  O        192.9880  253.6670  142.2510 O.2    70  HIS70      -0.2864
    119  CB       194.7270  251.2030  142.4210 C.3    70  HIS70       0.0771
    120  CG       194.6280  249.8460  143.0370 C.ar   70  HIS70       0.0820
    121  ND1      195.6380  249.2980  143.7960 N.ar   70  HIS70      -0.2267
    122  CD2      193.6260  248.9370  143.0300 C.ar   70  HIS70       0.1154
    123  CE1      195.2730  248.0990  144.2130 C.ar   70  HIS70       0.1986
    124  NE2      194.0540  247.8570  143.7640 N.ar   70  HIS70      -0.2212
    125  N        191.5660  254.2770  138.9830 N.3    72  ALA72      -0.1231
    126  CA       190.2100  254.5030  138.4810 C.3    72  ALA72       0.1679
    127  C        189.2060  254.8050  139.5860 C.2    72  ALA72       0.2434
    128  O        188.5710  255.8710  139.5360 O.2    72  ALA72      -0.2733
    129  CB       189.7780  253.3180  137.6110 C.3    72  ALA72       0.0304
    130  N        189.0090  253.9510  140.5980 N.am   73  PRO73      -0.2729
    131  CA       187.9900  254.2810  141.6090 C.3    73  PRO73       0.1401
    132  C        188.2990  255.5440  142.3930 C.2    73  PRO73       0.2269
    133  O        187.3940  256.3490  142.6440 O.2    73  PRO73      -0.2865
    134  CB       187.9860  253.0400  142.5130 C.3    73  PRO73       0.0296
    135  CG       188.5140  251.9610  141.6740 C.3    73  PRO73       0.0237
    136  CD       189.5800  252.6220  140.8630 C.3    73  PRO73       0.0939
    137  N        194.3570  234.6790  132.9930 N.3   153  MET153     -0.1230
    138  CA       194.4710  234.6750  134.4450 C.3   153  MET153      0.1702
    139  C        195.9050  234.9400  134.8630 C.2   153  MET153      0.2592
    140  O        196.1940  235.8720  135.6180 O.2   153  MET153     -0.2718
    141  CB       194.0560  233.3220  135.0040 C.3   153  MET153      0.0401
    142  CG       192.6910  232.8220  134.6950 C.3   153  MET153      0.0596
    143  SD       192.7090  231.1860  135.4270 S.3   153  MET153     -0.1393
    144  CE       191.1420  230.5170  134.9450 C.3   153  MET153      0.0692
    145  N        196.8200  234.1070  134.3680 N.am  154  PHE154     -0.1976
    146  CA       198.2210  234.2410  134.7250 C.3   154  PHE154      0.1639
    147  C        198.7610  235.6010  134.3280 C.2   154  PHE154      0.2290
    148  O        199.6930  236.1060  134.9590 O.2   154  PHE154     -0.2864
    149  CB       199.0230  233.1180  134.0780 C.3   154  PHE154      0.0560
    150  CG       200.4940  233.2320  134.2820 C.ar  154  PHE154     -0.0200
    151  CD1      201.0650  232.8990  135.4860 C.ar  154  PHE154     -0.0042
    152  CD2      201.3110  233.6550  133.2600 C.ar  154  PHE154     -0.0042
    153  CE1      202.4210  233.0040  135.6720 C.ar  154  PHE154     -0.0003
    154  CE2      202.6650  233.7570  133.4390 C.ar  154  PHE154     -0.0003
    155  CZ       203.2200  233.4320  134.6480 C.ar  154  PHE154     -0.0000
    156  N        196.8570  238.3330  134.5830 N.3   156  PHE156     -0.1227
    157  CA       196.2910  239.2170  135.5950 C.3   156  PHE156      0.1736
    158  C        197.2060  239.3450  136.8000 C.2   156  PHE156      0.2595
    159  O        197.3550  240.4350  137.3600 O.2   156  PHE156     -0.2718
    160  CB       194.9240  238.6980  136.0290 C.3   156  PHE156      0.0547
    161  CG       194.2800  239.5130  137.1030 C.ar  156  PHE156     -0.0202
    162  CD1      193.5480  240.6400  136.7870 C.ar  156  PHE156     -0.0042
    163  CD2      194.4080  239.1590  138.4290 C.ar  156  PHE156     -0.0042
    164  CE1      192.9510  241.3920  137.7750 C.ar  156  PHE156     -0.0003
    165  CE2      193.8150  239.9090  139.4210 C.ar  156  PHE156     -0.0003
    166  CZ       193.0870  241.0260  139.0930 C.ar  156  PHE156     -0.0000
    167  N        197.8220  238.2400  137.2200 N.am  157  VAL157     -0.1980
    168  CA       198.7320  238.2950  138.3590 C.3   157  VAL157      0.1595
    169  C        199.8890  239.2250  138.0510 C.2   157  VAL157      0.2287
    170  O        200.3570  239.9730  138.9170 O.2   157  VAL157     -0.2864
    171  CB       199.2340  236.8860  138.7160 C.3   157  VAL157      0.0276
    172  CG1      200.1050  236.9430  139.9520 C.3   157  VAL157      0.0022
    173  CG2      198.0800  235.9430  138.8940 C.3   157  VAL157      0.0022
@<TRIPOS>BOND
     1    80    81    1
     2    92    93    1
     3    81    82    1
     4    83    82    2
     5    95    94    2
     6    82    84   am
     7    93    94    1
     8    93    96    1
     9    99    98    2
    10    86    87    2
    11    86    85    1
    12    73    72    2
    13    75    76    1
    14    84    85    1
    15    78    77    2
    16    77    76    1
    17    72    71    1
    18    98    97    1
    19    98   100   am
    20    96    97    1
    21    85    88    1
    22    76    79    1
    23   137   138    1
    24    56    57    1
    25   152   154   ar
    26   152   150   ar
    27   154   155   ar
    28    71    74    1
    29    71    70    1
    30    88    89    1
    31    70    58   am
    32    57    58    1
    33    57    60    1
    34    64    62   ar
    35    64    65   ar
    36    62    61   ar
    37   149   150    1
    38   149   146    1
    39    58    59    2
    40   150   151   ar
    41   147   146    1
    42   147   148    2
    43   145   146    1
    44   145   139   am
    45   138   139    1
    46   138   141    1
    47   156   157    1
    48   155   153   ar
    49   142   141    1
    50   142   143    1
    51    89    90    1
    52    65    67   ar
    53    65    63   ar
    54     1     2    1
    55   139   140    2
    56    61    60    1
    57    61    63   ar
    58   144   143    1
    59    67    69   ar
    60    51    50    2
    61    50    49    1
    62     5     2    1
    63     5     6    1
    64    63    66   ar
    65   151   153   ar
    66   157   160    1
    67   157   158    1
    68    90    91    1
    69     2     3    1
    70    69    68   ar
    71   160   161    1
    72    48    49    1
    73     7     6   ar
    74     7     9   ar
    75     6     8   ar
    76    66    68   ar
    77    49    52    1
    78   162   161   ar
    79   162   164   ar
    80   158   167   am
    81   158   159    2
    82   113   111   ar
    83   113   114   ar
    84   111   108   ar
    85     9    11   ar
    86   161   163   ar
    87     8    10   ar
    88     3     4    2
    89     3    13   am
    90   101   102    1
    91   167   168    1
    92    52    53    1
    93   129   126    1
    94   164   166   ar
    95   102   105    1
    96   102   103    1
    97   105   106    1
    98   114   112   ar
    99    11    10   ar
   100    11    12    1
   101   169   168    1
   102   169   170    2
   103    13    14    1
   104   108   106   ar
   105   108   110   ar
   106   168   171    1
   107   163   165   ar
   108   126   125    1
   109   126   127    1
   110   106   107   ar
   111   171   173    1
   112   171   172    1
   113    53    54    2
   114    53    55   am
   115   166   165   ar
   116   112   110   ar
   117   103   104    2
   118   103   115   am
   119   110   109   ar
   120    20    18   ar
   121    14    17    1
   122    14    15    1
   123   128   127    2
   124   127   130   am
   125    19    18   ar
   126    18    17    1
   127   107   109   ar
   128    27    26    1
   129    27    21    1
   130   115   116    1
   131    26    25    1
   132    15    21   am
   133    15    16    2
   134   130   136    1
   135   130   131    1
   136    21    22    1
   137   136   135    1
   138   117   116    1
   139   117   118    2
   140   116   119    1
   141   131   132    1
   142   131   134    1
   143   135   134    1
   144    25    22    1
   145    22    23    1
   146   132   133    2
   147   119   120    1
   148   122   120   ar
   149   122   124   ar
   150   120   121   ar
   151    23    28   am
   152    23    24    2
   153    28    29    1
   154    37    36    1
   155    37    38    1
   156    36    30   am
   157    40    38   am
   158    40    41    1
   159   124   123   ar
   160   121   123   ar
   161    42    41    1
   162    42    43    2
   163    38    39    2
   164    44    41    1
   165    44    46    1
   166    44    45    1
   167    47    45    1
   168    30    29    1
   169    30    31    2
   170    29    32    1
   171    32    33    1
   172    33    34    1
   173    33    35    1
