@<TRIPOS>MOLECULE
tmp/6igzR04.pdb
 169 166 0 0 0
SMALL
GASTEIGER

@<TRIPOS>ATOM
      1  N        189.8100  237.0500  131.2020 N.3    52  MET52      -0.1230
      2  CA       189.8020  237.3150  129.7700 C.3    52  MET52       0.1702
      3  C        189.0190  238.5700  129.4390 C.2    52  MET52       0.2592
      4  O        189.3290  239.2520  128.4590 O.2    52  MET52      -0.2718
      5  CB       189.2220  236.1250  129.0130 C.3    52  MET52       0.0401
      6  CG       190.0880  234.8930  129.0410 C.3    52  MET52       0.0596
      7  SD       189.3040  233.5290  128.1850 S.3    52  MET52      -0.1393
      8  CE       189.4110  234.1270  126.5130 C.3    52  MET52       0.0692
      9  N        187.9950  238.8830  130.2210 N.am   53  LEU53      -0.1980
     10  CA       187.3030  240.1420  130.0040 C.3    53  LEU53       0.1596
     11  C        188.0410  241.3040  130.6540 C.2    53  LEU53       0.2287
     12  O        188.0420  242.4160  130.1180 O.2    53  LEU53      -0.2864
     13  CB       185.8730  240.0500  130.5240 C.3    53  LEU53       0.0297
     14  CG       184.9880  239.0320  129.8100 C.3    53  LEU53       0.0022
     15  CD1      183.6250  238.9820  130.4540 C.3    53  LEU53       0.0001
     16  CD2      184.8710  239.3510  128.3360 C.3    53  LEU53       0.0001
     17  N        191.4460  241.5740  131.5920 N.3    55  VAL55      -0.1231
     18  CA       192.8000  241.8740  131.1290 C.3    55  VAL55       0.1678
     19  C        192.8030  242.9070  130.0090 C.2    55  VAL55       0.2434
     20  O        193.5500  243.8880  130.1100 O.2    55  VAL55      -0.2733
     21  CB       193.5350  240.5780  130.7540 C.3    55  VAL55       0.0265
     22  CG1      194.8510  240.9040  130.0840 C.3    55  VAL55       0.0020
     23  CG2      193.7790  239.7450  131.9880 C.3    55  VAL55       0.0020
     24  N        192.0090  242.7710  128.9470 N.am   56  PRO56      -0.2729
     25  CA       191.9040  243.8870  128.0050 C.3    56  PRO56       0.1401
     26  C        191.3300  245.1260  128.6480 C.2    56  PRO56       0.2269
     27  O        191.7240  246.2420  128.2900 O.2    56  PRO56      -0.2865
     28  CB       190.9810  243.3370  126.9140 C.3    56  PRO56       0.0296
     29  CG       191.1420  241.8720  126.9980 C.3    56  PRO56       0.0237
     30  CD       191.2760  241.5940  128.4580 C.3    56  PRO56       0.0939
     31  N        193.7770  246.8660  130.3150 N.3    59  LEU59      -0.1245
     32  CA       194.7530  247.2480  129.3090 C.3    59  LEU59       0.1561
     33  C        194.4130  248.5930  128.6760 C.2    59  LEU59       0.2260
     34  O        195.3030  249.4190  128.4520 O.2    59  LEU59      -0.2867
     35  CB       194.8370  246.1560  128.2490 C.3    59  LEU59       0.0270
     36  CG       195.8630  246.3590  127.1490 C.3    59  LEU59       0.0019
     37  CD1      197.2520  246.3370  127.7640 C.3    59  LEU59       0.0001
     38  CD2      195.7090  245.2850  126.0870 C.3    59  LEU59       0.0001
     39  N        173.4570  231.8560  124.1900 N.3   128  PHE128     -0.1227
     40  CA       174.8260  232.2810  124.4360 C.3   128  PHE128      0.1736
     41  C        175.7760  231.8360  123.3350 C.2   128  PHE128      0.2595
     42  O        176.9600  232.1760  123.3780 O.2   128  PHE128     -0.2718
     43  CB       175.3090  231.7560  125.7890 C.3   128  PHE128      0.0547
     44  CG       174.5160  232.2740  126.9500 C.ar  128  PHE128     -0.0202
     45  CD1      174.7900  233.5150  127.4960 C.ar  128  PHE128     -0.0042
     46  CD2      173.4900  231.5220  127.4940 C.ar  128  PHE128     -0.0042
     47  CE1      174.0550  233.9910  128.5630 C.ar  128  PHE128     -0.0003
     48  CE2      172.7550  231.9940  128.5620 C.ar  128  PHE128     -0.0003
     49  CZ       173.0350  233.2300  129.0940 C.ar  128  PHE128     -0.0000
     50  N        175.2840  231.0890  122.3510 N.am  129  ASP129     -0.1960
     51  CA       176.0430  230.7290  121.1600 C.3   129  ASP129      0.1825
     52  C        175.3060  231.3210  119.9650 C.2   129  ASP129      0.2464
     53  O        174.6560  230.5980  119.2000 O.2   129  ASP129     -0.2730
     54  CB       176.1850  229.2140  121.0280 C.3   129  ASP129      0.1450
     55  CG       177.0450  228.8040  119.8450 C.2   129  ASP129      0.3671
     56  OD1      177.5820  229.6920  119.1490 O.co2 129  ASP129     -0.2456
     57  OD2      177.1910  227.5870  119.6120 O.co2 129  ASP129     -0.2456
     58  N        175.3670  232.6430  119.7920 N.am  130  PRO130     -0.2715
     59  CA       174.6400  233.2510  118.6700 C.3   130  PRO130      0.1536
     60  C        175.2120  232.8620  117.3270 C.2   130  PRO130      0.2598
     61  O        174.4570  232.5780  116.3880 O.2   130  PRO130     -0.2715
     62  CB       174.7900  234.7520  118.9370 C.3   130  PRO130      0.0310
     63  CG       176.0790  234.8620  119.6540 C.3   130  PRO130      0.0237
     64  CD       176.1960  233.6280  120.5050 C.3   130  PRO130      0.0939
     65  N        176.5380  232.8260  117.2150 N.am  131  ALA131     -0.1978
     66  CA       177.1660  232.5690  115.9280 C.3   131  ALA131      0.1597
     67  C        176.9150  231.1410  115.4710 C.2   131  ALA131      0.2287
     68  O        176.5040  230.9050  114.3300 O.2   131  ALA131     -0.2864
     69  CB       178.6640  232.8510  116.0210 C.3   131  ALA131      0.0319
     70  N        179.5340  228.8990  115.9470 N.3   133  PHE133     -0.1241
     71  CA       180.8680  228.4230  115.6060 C.3   133  PHE133      0.1605
     72  C        181.1990  227.1100  116.2900 C.2   133  PHE133      0.2264
     73  O        182.2400  226.5220  115.9870 O.2   133  PHE133     -0.2867
     74  CB       181.9120  229.4790  115.9610 C.3   133  PHE133      0.0534
     75  CG       181.7290  230.7780  115.2300 C.ar  133  PHE133     -0.0203
     76  CD1      180.9880  230.8350  114.0610 C.ar  133  PHE133     -0.0042
     77  CD2      182.2850  231.9460  115.7190 C.ar  133  PHE133     -0.0042
     78  CE1      180.8100  232.0260  113.3930 C.ar  133  PHE133     -0.0003
     79  CE2      182.1100  233.1430  115.0540 C.ar  133  PHE133     -0.0003
     80  CZ       181.3720  233.1830  113.8890 C.ar  133  PHE133     -0.0000
     81  N        193.8950  230.3090  125.9610 N.3   148  ASN148     -0.1240
     82  CA       193.7470  231.7530  126.1090 C.3   148  ASN148      0.1653
     83  C        193.3920  232.1210  127.5380 C.2   148  ASN148      0.2266
     84  O        193.8330  233.1560  128.0500 O.2   148  ASN148     -0.2867
     85  CB       192.6730  232.2750  125.1650 C.3   148  ASN148      0.1155
     86  CG       193.1240  232.3140  123.7440 C.2   148  ASN148      0.2627
     87  OD1      194.3140  232.4080  123.4640 O.2   148  ASN148     -0.2716
     88  ND2      192.1750  232.2500  122.8240 N.am  148  ASN148     -0.0877
     89  N        196.2860  231.6470  130.3590 N.3   151  LEU151     -0.1231
     90  CA       197.2360  232.7310  130.1660 C.3   151  LEU151      0.1693
     91  C        196.6530  234.0540  130.6320 C.2   151  LEU151      0.2591
     92  O        197.3400  234.8460  131.2850 O.2   151  LEU151     -0.2718
     93  CB       197.6470  232.8100  128.7000 C.3   151  LEU151      0.0284
     94  CG       198.5690  233.9730  128.3620 C.3   151  LEU151      0.0019
     95  CD1      199.8480  233.8510  129.1440 C.3   151  LEU151      0.0001
     96  CD2      198.8560  233.9890  126.8830 C.3   151  LEU151      0.0001
     97  N        195.3870  234.3090  130.3120 N.am  152  ALA152     -0.1980
     98  CA       194.7580  235.5470  130.7520 C.3   152  ALA152      0.1597
     99  C        194.8370  235.6880  132.2640 C.2   152  ALA152      0.2287
    100  O        195.3380  236.6940  132.7780 O.2   152  ALA152     -0.2864
    101  CB       193.3100  235.5950  130.2790 C.3   152  ALA152      0.0319
    102  N        196.8200  234.1070  134.3680 N.3   154  PHE154     -0.1227
    103  CA       198.2210  234.2410  134.7250 C.3   154  PHE154      0.1736
    104  C        198.7610  235.6010  134.3280 C.2   154  PHE154      0.2595
    105  O        199.6930  236.1060  134.9590 O.2   154  PHE154     -0.2718
    106  CB       199.0230  233.1180  134.0780 C.3   154  PHE154      0.0547
    107  CG       200.4940  233.2320  134.2820 C.ar  154  PHE154     -0.0202
    108  CD1      201.0650  232.8990  135.4860 C.ar  154  PHE154     -0.0042
    109  CD2      201.3110  233.6550  133.2600 C.ar  154  PHE154     -0.0042
    110  CE1      202.4210  233.0040  135.6720 C.ar  154  PHE154     -0.0003
    111  CE2      202.6650  233.7570  133.4390 C.ar  154  PHE154     -0.0003
    112  CZ       203.2200  233.4320  134.6480 C.ar  154  PHE154     -0.0000
    113  N        198.1810  236.2210  133.3050 N.am  155  ALA155     -0.1980
    114  CA       198.5500  237.5930  133.0000 C.3   155  ALA155      0.1597
    115  C        198.0830  238.5330  134.0970 C.2   155  ALA155      0.2287
    116  O        198.8260  239.4270  134.5130 O.2   155  ALA155     -0.2864
    117  CB       197.9670  238.0100  131.6540 C.3   155  ALA155      0.0319
    118  N        200.3620  239.1970  136.8060 N.3   158  GLY158     -0.1210
    119  CA       201.3990  240.1110  136.3790 C.3   158  GLY158      0.1956
    120  C        201.0110  241.5670  136.4850 C.2   158  GLY158      0.2611
    121  O        201.8820  242.4330  136.4310 O.2   158  GLY158     -0.2717
    122  N        199.7210  241.8660  136.5980 N.am  159  PHE159     -0.1976
    123  CA       199.3360  243.2370  136.9000 C.3   159  PHE159      0.1639
    124  C        199.4180  243.5160  138.3910 C.2   159  PHE159      0.2290
    125  O        199.8750  244.5860  138.8020 O.2   159  PHE159     -0.2864
    126  CB       197.9290  243.5200  136.3890 C.3   159  PHE159      0.0560
    127  CG       197.7960  243.4300  134.9040 C.ar  159  PHE159     -0.0200
    128  CD1      198.9080  243.4230  134.0930 C.ar  159  PHE159     -0.0042
    129  CD2      196.5520  243.3810  134.3170 C.ar  159  PHE159     -0.0042
    130  CE1      198.7800  243.3460  132.7300 C.ar  159  PHE159     -0.0003
    131  CE2      196.4210  243.3100  132.9550 C.ar  159  PHE159     -0.0003
    132  CZ       197.5350  243.2930  132.1620 C.ar  159  PHE159     -0.0000
    133  N        203.0870  243.3280  140.1560 N.3   162  GLN162     -0.1245
    134  CA       203.8930  244.4780  139.7730 C.3   162  GLN162      0.1566
    135  C        203.4640  245.7110  140.5480 C.2   162  GLN162      0.2260
    136  O        204.2650  246.3390  141.2460 O.2   162  GLN162     -0.2867
    137  CB       203.7750  244.7380  138.2800 C.3   162  GLN162      0.0367
    138  CG       204.4050  243.7090  137.4110 C.3   162  GLN162      0.0905
    139  CD       204.1600  244.0210  135.9630 C.2   162  GLN162      0.2608
    140  OE1      203.2320  244.7530  135.6300 O.2   162  GLN162     -0.2717
    141  NE2      204.9650  243.4560  135.0920 N.am  162  GLN162     -0.0878
    142  N        201.1760  248.2990  134.3620 N.3   170  PRO170     -0.2102
    143  CA       202.0660  247.6360  133.3950 C.3   170  PRO170      0.1504
    144  C        202.3670  248.4530  132.1560 C.2   170  PRO170      0.2575
    145  O        203.4950  248.3970  131.6530 O.2   170  PRO170     -0.2718
    146  CB       201.2950  246.3590  133.0470 C.3   170  PRO170      0.0282
    147  CG       199.8730  246.7470  133.2240 C.3   170  PRO170      0.0208
    148  CD       199.8440  247.6780  134.3980 C.3   170  PRO170      0.0893
    149  N        201.3920  249.2090  131.6500 N.am  171  VAL171     -0.1980
    150  CA       201.5110  249.8030  130.3200 C.3   171  VAL171      0.1595
    151  C        202.7800  250.6340  130.2100 C.2   171  VAL171      0.2287
    152  O        203.5750  250.4610  129.2790 O.2   171  VAL171     -0.2864
    153  CB       200.2610  250.6340  129.9960 C.3   171  VAL171      0.0276
    154  CG1      200.4430  251.3600  128.6780 C.3   171  VAL171      0.0022
    155  CG2      199.0400  249.7320  129.9550 C.3   171  VAL171      0.0022
    156  N        205.7110  248.2210  130.8060 N.3   174  TRP174     -0.1241
    157  CA       206.0070  247.6290  129.5070 C.3   174  TRP174      0.1605
    158  C        206.9350  248.5290  128.7110 C.2   174  TRP174      0.2264
    159  O        207.9560  248.0820  128.1790 O.2   174  TRP174     -0.2867
    160  CB       204.7100  247.4000  128.7330 C.3   174  TRP174      0.0550
    161  CG       204.9140  246.8030  127.3830 C.ar  174  TRP174      0.0003
    162  CD1      204.8640  245.4850  127.0550 C.ar  174  TRP174      0.0946
    163  CD2      205.2370  247.5030  126.1800 C.ar  174  TRP174      0.0152
    164  NE1      205.1110  245.3190  125.7180 N.ar  174  TRP174     -0.2442
    165  CE2      205.3500  246.5460  125.1590 C.ar  174  TRP174      0.0810
    166  CE3      205.4350  248.8490  125.8660 C.ar  174  TRP174      0.0012
    167  CZ2      205.6540  246.8910  123.8470 C.ar  174  TRP174      0.0191
    168  CZ3      205.7400  249.1900  124.5700 C.ar  174  TRP174      0.0001
    169  CH2      205.8440  248.2170  123.5730 C.ar  174  TRP174      0.0015
@<TRIPOS>BOND
     1    78    80   ar
     2    78    76   ar
     3    80    79   ar
     4    76    75   ar
     5    68    67    2
     6    79    77   ar
     7    75    77   ar
     8    75    74    1
     9    67    66    1
    10    71    70    1
    11    71    74    1
    12    71    72    1
    13    66    69    1
    14    66    65    1
    15    73    72    2
    16    61    60    2
    17    65    60   am
    18    60    59    1
    19    59    62    1
    20    59    58    1
    21    62    63    1
    22    56    55   ar
    23    53    52    2
    24    57    55   ar
    25    63    64    1
    26    58    52   am
    27    58    64    1
    28    55    54    1
    29    52    51    1
    30    54    51    1
    31    51    50    1
    32    50    41   am
    33    88    86   am
    34    41    42    2
    35    41    40    1
    36    87    86    2
    37   169   167   ar
    38   169   168   ar
    39    86    85    1
    40   167   165   ar
    41    39    40    1
    42    40    43    1
    43   168   166   ar
    44   165   164   ar
    45   165   163   ar
    46    85    82    1
    47   164   162   ar
    48    43    44    1
    49   166   163   ar
    50    81    82    1
    51    38    36    1
    52    82    83    1
    53   163   161   ar
    54     8     7    1
    55    96    94    1
    56    28    29    1
    57    28    25    1
    58    44    46   ar
    59    44    45   ar
    60    29    30    1
    61   162   161   ar
    62    36    37    1
    63    36    35    1
    64   161   160    1
    65    46    48   ar
    66    45    47   ar
    67    83    84    2
    68    25    26    1
    69    25    24    1
    70   159   158    2
    71     7     6    1
    72    35    32    1
    73    27    26    2
    74    16    14    1
    75    94    93    1
    76    94    95    1
    77    34    33    2
    78    30    24    1
    79     4     3    2
    80    48    49   ar
    81    47    49   ar
    82    33    32    1
    83   154   153    1
    84    93    90    1
    85   158   157    1
    86   160   157    1
    87    24    19   am
    88     5     6    1
    89     5     2    1
    90   152   151    2
    91    32    31    1
    92     3     2    1
    93     3     9   am
    94   157   156    1
    95     2     1    1
    96    14    15    1
    97    14    13    1
    98   155   153    1
    99   153   150    1
   100    10     9    1
   101    10    13    1
   102    10    11    1
   103    19    20    2
   104    19    18    1
   105    22    21    1
   106    12    11    2
   107    90    89    1
   108    90    91    1
   109   151   150    1
   110   101    98    1
   111    97    91   am
   112    97    98    1
   113   150   149    1
   114    91    92    2
   115    98    99    1
   116    21    18    1
   117    21    23    1
   118    18    17    1
   119   149   144   am
   120   145   144    2
   121   117   114    1
   122   144   143    1
   123   132   130   ar
   124   132   131   ar
   125    99   100    2
   126   130   128   ar
   127   131   129   ar
   128   114   113    1
   129   114   115    1
   130   146   147    1
   131   146   143    1
   132   147   148    1
   133   109   111   ar
   134   109   107   ar
   135   113   104   am
   136   143   142    1
   137   111   112   ar
   138   106   107    1
   139   106   103    1
   140   128   127   ar
   141   115   116    2
   142   107   108   ar
   143   129   127   ar
   144   104   103    1
   145   104   105    2
   146   142   148    1
   147   102   103    1
   148   112   110   ar
   149   127   126    1
   150   141   139   am
   151   108   110   ar
   152   140   139    2
   153   139   138    1
   154   119   120    1
   155   119   118    1
   156   126   123    1
   157   121   120    2
   158   120   122   am
   159   122   123    1
   160   123   124    1
   161   138   137    1
   162   137   134    1
   163   124   125    2
   164   134   133    1
   165   134   135    1
   166   135   136    2
