@<TRIPOS>MOLECULE
tmp/6igzF00.pdb
 77 72 0 0 0
SMALL
GASTEIGER

@<TRIPOS>ATOM
      1  N        200.6170  212.6110  195.3220 N.3   101  THR101     -0.1203
      2  CA       200.4740  211.5520  196.3120 C.3   101  THR101      0.1994
      3  C        199.1020  210.9080  196.2530 C.2   101  THR101      0.2618
      4  O        198.9500  209.7420  196.6270 O.2   101  THR101     -0.2717
      5  CB       200.7330  212.0720  197.7170 C.3   101  THR101      0.1784
      6  OG1      200.5490  210.9960  198.6390 O.3   101  THR101     -0.2211
      7  CG2      199.7910  213.1750  198.0740 C.3   101  THR101      0.0376
      8  N        198.0920  211.6400  195.7910 N.am  102  GLY102     -0.1956
      9  CA       196.7800  211.0390  195.6450 C.3   102  GLY102      0.1869
     10  C        196.7710  209.9580  194.5860 C.2   102  GLY102      0.2309
     11  O        196.3630  208.8250  194.8390 O.2   102  GLY102     -0.2863
     12  N        199.3720  208.5570  193.1550 N.3   104  ALA104     -0.1231
     13  CA       200.3650  207.5330  193.4410 C.3   104  ALA104      0.1694
     14  C        199.8520  206.5160  194.4410 C.2   104  ALA104      0.2593
     15  O        200.4770  205.4700  194.6210 O.2   104  ALA104     -0.2718
     16  CB       201.6500  208.1640  193.9680 C.3   104  ALA104      0.0304
     17  N        198.7430  206.8040  195.1050 N.am  105  GLY105     -0.1942
     18  CA       198.1680  205.8520  196.0260 C.3   105  GLY105      0.2014
     19  C        197.2050  204.9320  195.3190 C.2   105  GLY105      0.2638
     20  O        196.9310  203.8290  195.7900 O.2   105  GLY105     -0.2714
     21  N        196.6860  205.3760  194.1770 N.am  106  ARG106     -0.1977
     22  CA       195.7310  204.5590  193.4450 C.3   106  ARG106      0.1597
     23  C        196.4320  203.4810  192.6350 C.2   106  ARG106      0.2287
     24  O        195.9820  202.3330  192.6080 O.2   106  ARG106     -0.2864
     25  CB       194.8840  205.4390  192.5350 C.3   106  ARG106      0.0334
     26  CG       193.7950  204.7050  191.7980 C.3   106  ARG106      0.0492
     27  CD       193.0230  205.6630  190.9250 C.3   106  ARG106      0.2205
     28  NE       191.8960  205.0260  190.2550 N.pl3 106  ARG106     -0.0865
     29  CZ       191.9840  204.3620  189.1110 C.cat 106  ARG106      0.5346
     30  NH1      190.9050  203.8290  188.5700 N.pl3 106  ARG106      0.1354
     31  NH2      193.1510  204.2320  188.5110 N.pl3 106  ARG106      0.1354
     32  N        199.3880  202.0580  193.1930 N.3   108  TYR108     -0.1227
     33  CA       199.9210  201.0330  194.0800 C.3   108  TYR108      0.1736
     34  C        198.8490  200.0310  194.4540 C.2   108  TYR108      0.2595
     35  O        199.0940  198.8230  194.4660 O.2   108  TYR108     -0.2718
     36  CB       200.4970  201.6580  195.3420 C.3   108  TYR108      0.0548
     37  CG       201.0030  200.6280  196.3200 C.ar  108  TYR108     -0.0200
     38  CD1      202.2580  200.0730  196.1790 C.ar  108  TYR108     -0.0009
     39  CD2      200.2170  200.1890  197.3670 C.ar  108  TYR108     -0.0009
     40  CE1      202.7200  199.1340  197.0630 C.ar  108  TYR108      0.0417
     41  CE2      200.6720  199.2450  198.2490 C.ar  108  TYR108      0.0417
     42  CZ       201.9210  198.7250  198.0930 C.ar  108  TYR108      0.1957
     43  OH       202.3790  197.7810  198.9720 O.3   108  TYR108     -0.2866
     44  N        197.6500  200.5120  194.7620 N.am  109  LEU109     -0.1980
     45  CA       196.5740  199.5860  195.0770 C.3   109  LEU109      0.1596
     46  C        196.1740  198.7670  193.8660 C.2   109  LEU109      0.2287
     47  O        195.7110  197.6350  194.0150 O.2   109  LEU109     -0.2864
     48  CB       195.3760  200.3390  195.6340 C.3   109  LEU109      0.0297
     49  CG       195.6340  200.9270  197.0110 C.3   109  LEU109      0.0022
     50  CD1      194.4740  201.7740  197.4150 C.3   109  LEU109      0.0001
     51  CD2      195.8410  199.8120  198.0020 C.3   109  LEU109      0.0001
     52  N        204.9790  196.9350  202.4440 N.3   125  ILE125     -0.1245
     53  CA       205.1500  197.4790  201.1090 C.3   125  ILE125      0.1561
     54  C        206.4000  196.8710  200.5030 C.2   125  ILE125      0.2260
     55  O        207.4090  196.6980  201.1900 O.2   125  ILE125     -0.2867
     56  CB       205.2730  199.0080  201.1820 C.3   125  ILE125      0.0252
     57  CG1      204.0110  199.6190  201.7660 C.3   125  ILE125      0.0019
     58  CG2      205.5770  199.5800  199.8220 C.3   125  ILE125      0.0019
     59  CD1      204.1340  199.9170  203.2170 C.3   125  ILE125      0.0001
     60  N        206.5000  200.2770  195.0040 N.3   130  ALA130     -0.1245
     61  CA       206.0250  201.5980  195.3710 C.3   130  ALA130      0.1562
     62  C        206.8530  202.6850  194.7060 C.2   130  ALA130      0.2260
     63  O        206.3220  203.7500  194.3840 O.2   130  ALA130     -0.2867
     64  CB       206.0380  201.7550  196.8840 C.3   130  ALA130      0.0290
     65  N        205.6820  203.2690  191.1890 N.3   133  CYS133     -0.1221
     66  CA       204.4730  204.0750  191.1750 C.3   133  CYS133      0.1808
     67  C        204.7640  205.5390  191.4730 C.2   133  CYS133      0.2601
     68  O        204.2080  206.4260  190.8190 O.2   133  CYS133     -0.2717
     69  CB       203.4720  203.5220  192.1740 C.3   133  CYS133      0.0970
     70  SG       201.9840  204.4920  192.2440 S.3   133  CYS133     -0.0800
     71  N        205.6210  205.8150  192.4570 N.am  134  VAL134     -0.1979
     72  CA       205.9850  207.1980  192.7540 C.3   134  VAL134      0.1595
     73  C        206.5890  207.8590  191.5290 C.2   134  VAL134      0.2287
     74  O        206.3550  209.0410  191.2590 O.2   134  VAL134     -0.2864
     75  CB       206.9440  207.2520  193.9520 C.3   134  VAL134      0.0276
     76  CG1      207.4660  208.6480  194.1430 C.3   134  VAL134      0.0022
     77  CG2      206.2340  206.8000  195.1920 C.3   134  VAL134      0.0022
@<TRIPOS>BOND
     1    31    29    1
     2    30    29    1
     3    29    28    2
     4    28    27    1
     5    68    67    2
     6    27    26    1
     7    66    65    1
     8    66    67    1
     9    66    69    1
    10    74    73    2
    11    67    71   am
    12    73    72    1
    13    26    25    1
    14    69    70    1
    15    71    72    1
    16    25    22    1
    17    24    23    2
    18    23    22    1
    19    72    75    1
    20    12    13    1
    21    32    33    1
    22    13    16    1
    23    13    14    1
    24    22    21    1
    25    46    47    2
    26    46    45    1
    27    75    76    1
    28    75    77    1
    29    33    34    1
    30    33    36    1
    31    21    19   am
    32    63    62    2
    33    14    15    2
    34    14    17   am
    35    34    35    2
    36    34    44   am
    37    10    11    2
    38    10     9    1
    39    62    61    1
    40    44    45    1
    41    60    61    1
    42    45    48    1
    43    17    18    1
    44    19    20    2
    45    19    18    1
    46     1     2    1
    47    36    37    1
    48    61    64    1
    49    48    49    1
    50     9     8    1
    51     8     3   am
    52    38    37   ar
    53    38    40   ar
    54     3     2    1
    55     3     4    2
    56     2     5    1
    57    37    39   ar
    58    49    50    1
    59    49    51    1
    60    40    42   ar
    61    39    41   ar
    62     5     7    1
    63     5     6    1
    64    42    41   ar
    65    42    43    1
    66    58    56    1
    67    54    53    1
    68    54    55    2
    69    53    56    1
    70    53    52    1
    71    56    57    1
    72    57    59    1
