@<TRIPOS>MOLECULE
tmp/6igzP19.pdb
 103 99 0 0 0
SMALL
GASTEIGER

@<TRIPOS>ATOM
      1  N        206.7520  223.5390  165.1990 N.3    49  PHE49      -0.1241
      2  CA       206.8760  224.9280  165.6310 C.3    49  PHE49       0.1605
      3  C        208.2760  225.2210  166.1280 C.2    49  PHE49       0.2264
      4  O        208.8630  226.2510  165.7870 O.2    49  PHE49      -0.2867
      5  CB       205.8630  225.2780  166.7190 C.3    49  PHE49       0.0534
      6  CG       204.4940  225.5490  166.2070 C.ar   49  PHE49      -0.0203
      7  CD1      204.2330  226.7170  165.5300 C.ar   49  PHE49      -0.0042
      8  CD2      203.4560  224.6900  166.4640 C.ar   49  PHE49      -0.0042
      9  CE1      202.9850  226.9890  165.0580 C.ar   49  PHE49      -0.0003
     10  CE2      202.1950  224.9640  166.0050 C.ar   49  PHE49      -0.0003
     11  CZ       201.9590  226.1140  165.3020 C.ar   49  PHE49      -0.0000
     12  N        212.1620  241.6770  170.2640 N.3    80  ALA80      -0.1231
     13  CA       211.1640  241.8410  169.2200 C.3    80  ALA80       0.1694
     14  C        209.7510  241.8000  169.7660 C.2    80  ALA80       0.2592
     15  O        208.7980  241.8780  168.9880 O.2    80  ALA80      -0.2718
     16  CB       211.3320  240.7690  168.1440 C.3    80  ALA80       0.0304
     17  N        209.5920  241.6480  171.0780 N.am   81  GLY81      -0.1957
     18  CA       208.2940  241.9000  171.6740 C.3    81  GLY81       0.1869
     19  C        207.8370  243.3160  171.4030 C.2    81  GLY81       0.2309
     20  O        206.7040  243.5540  170.9890 O.2    81  GLY81      -0.2863
     21  N        208.4790  246.7640  168.9800 N.3    83  ALA83      -0.1231
     22  CA       208.3260  246.9400  167.5430 C.3    83  ALA83       0.1679
     23  C        207.1060  246.2390  166.9420 C.2    83  ALA83       0.2434
     24  O        207.2480  245.5360  165.9340 O.2    83  ALA83      -0.2733
     25  CB       209.5890  246.4630  166.8230 C.3    83  ALA83       0.0304
     26  N        205.9100  246.3640  167.5190 N.am   84  PRO84      -0.2729
     27  CA       204.7220  246.4950  166.6780 C.3    84  PRO84       0.1401
     28  C        204.5720  247.9360  166.2260 C.2    84  PRO84       0.2269
     29  O        204.8670  248.8740  166.9670 O.2    84  PRO84      -0.2865
     30  CB       203.5760  246.0760  167.6060 C.3    84  PRO84       0.0296
     31  CG       204.0400  246.4220  168.9290 C.3    84  PRO84       0.0237
     32  CD       205.5220  246.1840  168.9300 C.3    84  PRO84       0.0939
     33  N        201.9820  248.8930  162.9850 N.3    86  PHE86      -0.1241
     34  CA       200.7670  249.2670  162.2660 C.3    86  PHE86       0.1605
     35  C        199.5180  249.1110  163.1290 C.2    86  PHE86       0.2264
     36  O        198.7390  250.0580  163.2870 O.2    86  PHE86      -0.2867
     37  CB       200.6510  248.4250  160.9980 C.3    86  PHE86       0.0534
     38  CG       199.4490  248.7410  160.1680 C.ar   86  PHE86      -0.0203
     39  CD1      199.4860  249.7590  159.2350 C.ar   86  PHE86      -0.0042
     40  CD2      198.2770  248.0250  160.3250 C.ar   86  PHE86      -0.0042
     41  CE1      198.3810  250.0550  158.4640 C.ar   86  PHE86      -0.0003
     42  CE2      197.1670  248.3180  159.5610 C.ar   86  PHE86      -0.0003
     43  CZ       197.2200  249.3360  158.6260 C.ar   86  PHE86      -0.0000
     44  N        195.4540  242.8430  166.7410 N.3    92  LEU92      -0.1245
     45  CA       196.3020  241.9110  166.0060 C.3    92  LEU92       0.1561
     46  C        196.3620  240.5620  166.6920 C.2    92  LEU92       0.2260
     47  O        196.5630  239.5360  166.0370 O.2    92  LEU92      -0.2867
     48  CB       197.7010  242.4920  165.8550 C.3    92  LEU92       0.0270
     49  CG       198.6970  241.7030  165.0170 C.3    92  LEU92       0.0019
     50  CD1      199.6070  242.6620  164.2950 C.3    92  LEU92       0.0001
     51  CD2      199.5160  240.7890  165.8970 C.3    92  LEU92       0.0001
     52  N        192.9780  238.8430  166.0390 N.3    95  MET95      -0.1230
     53  CA       192.9560  238.4390  164.6410 C.3    95  MET95       0.1702
     54  C        193.6560  237.1020  164.4600 C.2    95  MET95       0.2592
     55  O        193.1350  236.2090  163.7860 O.2    95  MET95      -0.2718
     56  CB       193.6090  239.5090  163.7730 C.3    95  MET95       0.0401
     57  CG       192.7990  240.7870  163.6690 C.3    95  MET95       0.0596
     58  SD       193.6500  242.0930  162.7590 S.3    95  MET95      -0.1393
     59  CE       193.6460  241.4160  161.1050 C.3    95  MET95       0.0692
     60  N        194.8390  236.9530  165.0550 N.am   96  GLN96      -0.1979
     61  CA       195.5030  235.6570  165.1210 C.3    96  GLN96       0.1601
     62  C        194.5640  234.5800  165.6330 C.2    96  GLN96       0.2287
     63  O        194.2270  233.6360  164.9150 O.2    96  GLN96      -0.2864
     64  CB       196.7180  235.7530  166.0340 C.3    96  GLN96       0.0394
     65  CG       197.4030  234.4390  166.2510 C.3    96  GLN96       0.0908
     66  CD       198.5700  234.5580  167.1900 C.2    96  GLN96       0.2608
     67  OE1      198.9510  235.6540  167.5830 O.2    96  GLN96      -0.2717
     68  NE2      199.1310  233.4260  167.5810 N.am   96  GLN96      -0.0878
     69  N        192.0390  233.5260  163.5190 N.3    99  LEU99      -0.1231
     70  CA       192.5470  233.0360  162.2480 C.3    99  LEU99       0.1693
     71  C        193.1840  231.6640  162.4080 C.2    99  LEU99       0.2591
     72  O        192.8680  230.7360  161.6600 O.2    99  LEU99      -0.2718
     73  CB       193.5410  234.0430  161.6850 C.3    99  LEU99       0.0284
     74  CG       194.0500  233.8380  160.2760 C.3    99  LEU99       0.0019
     75  CD1      192.8910  233.9940  159.3310 C.3    99  LEU99       0.0001
     76  CD2      195.1010  234.8690  159.9850 C.3    99  LEU99       0.0001
     77  N        194.0790  231.5170  163.3880 N.am  100  MET100     -0.1979
     78  CA       194.6800  230.2180  163.6770 C.3   100  MET100      0.1605
     79  C        193.6200  229.1950  164.0300 C.2   100  MET100      0.2287
     80  O        193.5150  228.1430  163.3950 O.2   100  MET100     -0.2864
     81  CB       195.6770  230.3360  164.8250 C.3   100  MET100      0.0413
     82  CG       196.9470  231.0630  164.4910 C.3   100  MET100      0.0598
     83  SD       197.8730  230.1750  163.2380 S.3   100  MET100     -0.1393
     84  CE       198.2480  228.6740  164.1280 C.3   100  MET100      0.0692
     85  N        198.2500  219.2040  150.2480 N.3   139  ILE139     -0.1231
     86  CA       198.8260  220.5370  150.0830 C.3   139  ILE139      0.1692
     87  C        200.1880  220.6020  150.7370 C.2   139  ILE139      0.2592
     88  O        201.1730  221.0490  150.1420 O.2   139  ILE139     -0.2718
     89  CB       197.9110  221.6080  150.6950 C.3   139  ILE139      0.0266
     90  CG1      196.6480  221.8140  149.8790 C.3   139  ILE139      0.0019
     91  CG2      198.6710  222.9020  150.8580 C.3   139  ILE139      0.0020
     92  CD1      195.6980  222.7840  150.5500 C.3   139  ILE139      0.0001
     93  N        200.2590  220.1360  151.9750 N.am  140  PHE140     -0.1976
     94  CA       201.3500  220.4830  152.8620 C.3   140  PHE140      0.1639
     95  C        202.6570  219.8300  152.4670 C.2   140  PHE140      0.2290
     96  O        203.6800  220.1120  153.0930 O.2   140  PHE140     -0.2864
     97  CB       200.9470  220.1170  154.2840 C.3   140  PHE140      0.0560
     98  CG       199.6520  220.7470  154.7110 C.ar  140  PHE140     -0.0200
     99  CD1      199.6040  222.0570  155.1210 C.ar  140  PHE140     -0.0042
    100  CD2      198.4790  220.0300  154.6750 C.ar  140  PHE140     -0.0042
    101  CE1      198.4180  222.6250  155.4920 C.ar  140  PHE140     -0.0003
    102  CE2      197.2980  220.5910  155.0620 C.ar  140  PHE140     -0.0003
    103  CZ       197.2660  221.8870  155.4630 C.ar  140  PHE140     -0.0000
@<TRIPOS>BOND
     1    90    92    1
     2    90    89    1
     3    86    85    1
     4    86    89    1
     5    86    87    1
     6    88    87    2
     7    89    91    1
     8    87    93   am
     9    93    94    1
    10    95    94    1
    11    95    96    2
    12    94    97    1
    13    97    98    1
    14   100    98   ar
    15   100   102   ar
    16    98    99   ar
    17   102   103   ar
    18    99   101   ar
    19   103   101   ar
    20    41    43   ar
    21    41    39   ar
    22    43    42   ar
    23    39    38   ar
    24    75    74    1
    25    42    40   ar
    26    76    74    1
    27    38    40   ar
    28    38    37    1
    29    74    73    1
    30    37    34    1
    31    59    58    1
    32    72    71    2
    33    73    70    1
    34    70    71    1
    35    70    69    1
    36    34    33    1
    37    34    35    1
    38    71    77   am
    39    58    57    1
    40    35    36    2
    41    83    84    1
    42    83    82    1
    43    77    78    1
    44    80    79    2
    45    57    56    1
    46    78    79    1
    47    78    81    1
    48    56    53    1
    49    55    54    2
    50    50    49    1
    51    54    53    1
    52    54    60   am
    53    82    81    1
    54    53    52    1
    55    63    62    2
    56    49    48    1
    57    49    51    1
    58    60    61    1
    59     9    11   ar
    60     9     7   ar
    61    61    62    1
    62    61    64    1
    63     1     2    1
    64    11    10   ar
    65     7     6   ar
    66     2     3    1
    67     2     5    1
    68     4     3    2
    69    48    45    1
    70    24    23    2
    71    10     8   ar
    72    45    46    1
    73    45    44    1
    74    64    65    1
    75    47    46    2
    76     6     8   ar
    77     6     5    1
    78    28    27    1
    79    28    29    2
    80    65    66    1
    81    27    26    1
    82    27    30    1
    83    25    22    1
    84    23    26   am
    85    23    22    1
    86    66    68   am
    87    66    67    2
    88    26    32    1
    89    22    21    1
    90    30    31    1
    91    16    13    1
    92    31    32    1
    93    15    14    2
    94    13    14    1
    95    13    12    1
    96    14    17   am
    97    20    19    2
    98    17    18    1
    99    19    18    1
