@<TRIPOS>MOLECULE
tmp/6igzN01.pdb
 138 132 0 0 0
SMALL
GASTEIGER

@<TRIPOS>ATOM
      1  N        244.5410  196.8900  201.6440 N.3   168  LEU168     -0.1245
      2  CA       245.5870  197.5780  202.3850 C.3   168  LEU168      0.1561
      3  C        245.6380  199.0540  202.0370 C.2   168  LEU168      0.2260
      4  O        245.9410  199.8880  202.8950 O.2   168  LEU168     -0.2867
      5  CB       246.9290  196.9260  202.1020 C.3   168  LEU168      0.0270
      6  CG       248.1420  197.6010  202.6940 C.3   168  LEU168      0.0019
      7  CD1      248.0160  197.6600  204.1820 C.3   168  LEU168      0.0001
      8  CD2      249.3210  196.7760  202.3180 C.3   168  LEU168      0.0001
      9  N        242.8210  200.6430  204.0730 N.3   171  PHE171     -0.1227
     10  CA       243.1600  200.7010  205.4860 C.3   171  PHE171      0.1736
     11  C        244.3350  201.6160  205.7690 C.2   171  PHE171      0.2596
     12  O        244.4630  202.1070  206.8910 O.2   171  PHE171     -0.2718
     13  CB       243.4550  199.3020  206.0020 C.3   171  PHE171      0.0547
     14  CG       243.8970  199.2680  207.4240 C.ar  171  PHE171     -0.0202
     15  CD1      242.9880  199.4450  208.4430 C.ar  171  PHE171     -0.0042
     16  CD2      245.2130  199.0340  207.7460 C.ar  171  PHE171     -0.0042
     17  CE1      243.3840  199.4080  209.7480 C.ar  171  PHE171     -0.0003
     18  CE2      245.6120  198.9920  209.0530 C.ar  171  PHE171     -0.0003
     19  CZ       244.6960  199.1770  210.0560 C.ar  171  PHE171     -0.0000
     20  N        245.2090  201.8400  204.7960 N.am  172  SER172     -0.1952
     21  CA       246.2090  202.8830  204.9560 C.3   172  SER172      0.1924
     22  C        245.6000  204.2510  204.7320 C.2   172  SER172      0.2314
     23  O        245.8630  205.1870  205.4910 O.2   172  SER172     -0.2863
     24  CB       247.3570  202.6660  203.9860 C.3   172  SER172      0.2116
     25  OG       248.0120  201.4560  204.2700 O.3   172  SER172     -0.2180
     26  N        242.8070  205.1470  205.3870 N.3   174  LEU174     -0.1231
     27  CA       242.1760  205.5750  206.6220 C.3   174  LEU174      0.1693
     28  C        243.1970  206.1640  207.5770 C.2   174  LEU174      0.2592
     29  O        242.8560  207.0200  208.3950 O.2   174  LEU174     -0.2718
     30  CB       241.4420  204.4060  207.2710 C.3   174  LEU174      0.0284
     31  CG       240.7850  204.6490  208.6210 C.3   174  LEU174      0.0019
     32  CD1      239.7670  205.7440  208.5120 C.3   174  LEU174      0.0001
     33  CD2      240.1250  203.3760  209.0800 C.3   174  LEU174      0.0001
     34  N        244.4540  205.7420  207.4740 N.am  175  GLY175     -0.1957
     35  CA       245.4770  206.3120  208.3290 C.3   175  GLY175      0.1869
     36  C        245.8470  207.7190  207.9150 C.2   175  GLY175      0.2309
     37  O        246.0140  208.5970  208.7630 O.2   175  GLY175     -0.2863
     38  N        243.2050  209.9480  209.4330 N.3   178  ALA178     -0.1231
     39  CA       243.1970  210.0220  210.8840 C.3   178  ALA178      0.1694
     40  C        244.4820  210.6230  211.4190 C.2   178  ALA178      0.2591
     41  O        244.4490  211.4190  212.3600 O.2   178  ALA178     -0.2718
     42  CB       242.9660  208.6390  211.4710 C.3   178  ALA178      0.0304
     43  N        245.6240  210.2720  210.8450 N.am  179  GLN179     -0.1979
     44  CA       246.8400  210.8470  211.3910 C.3   179  GLN179      0.1601
     45  C        247.1150  212.2350  210.8500 C.2   179  GLN179      0.2287
     46  O        248.0720  212.8710  211.2930 O.2   179  GLN179     -0.2864
     47  CB       248.0350  209.9360  211.1410 C.3   179  GLN179      0.0394
     48  CG       248.5780  209.9100  209.7530 C.3   179  GLN179      0.0908
     49  CD       249.6810  208.8920  209.6320 C.2   179  GLN179      0.2608
     50  OE1      249.7090  207.9090  210.3710 O.2   179  GLN179     -0.2717
     51  NE2      250.6230  209.1410  208.7380 N.am  179  GLN179     -0.0878
     52  N        245.1450  214.5030  213.5920 N.3   182  ALA182     -0.1231
     53  CA       245.8120  214.5690  214.8950 C.3   182  ALA182      0.1694
     54  C        247.1010  215.3800  214.8030 C.2   182  ALA182      0.2592
     55  O        247.2140  216.4480  215.4080 O.2   182  ALA182     -0.2718
     56  CB       246.0750  213.1590  215.4210 C.3   182  ALA182      0.0304
     57  N        248.0800  214.8810  214.0530 N.am  183  THR183     -0.1953
     58  CA       249.3780  215.5370  214.0160 C.3   183  THR183      0.1897
     59  C        249.3970  216.7460  213.1020 C.2   183  THR183      0.2313
     60  O        250.2990  217.5800  213.2190 O.2   183  THR183     -0.2863
     61  CB       250.4540  214.5610  213.5630 C.3   183  THR183      0.1794
     62  OG1      250.2250  214.2040  212.1960 O.3   183  THR183     -0.2208
     63  CG2      250.3900  213.3110  214.4050 C.3   183  THR183      0.0378
     64  N        255.2750  212.3320  208.6900 N.3   190  ASN190     -0.1225
     65  CA       255.1290  211.4110  209.8070 C.3   190  ASN190      0.1785
     66  C        256.0160  210.1900  209.6280 C.2   190  ASN190      0.2597
     67  O        256.5500  209.6500  210.6010 O.2   190  ASN190     -0.2718
     68  CB       253.6700  210.9960  209.9430 C.3   190  ASN190      0.1169
     69  CG       252.7910  212.1270  210.3950 C.2   190  ASN190      0.2627
     70  OD1      253.2600  213.0870  210.9950 O.2   190  ASN190     -0.2716
     71  ND2      251.5010  212.0140  210.1240 N.am  190  ASN190     -0.0877
     72  N        256.1850  209.7380  208.3910 N.am  191  TRP191     -0.1976
     73  CA       257.0270  208.5790  208.1470 C.3   191  TRP191      0.1640
     74  C        258.4900  208.8890  208.4040 C.2   191  TRP191      0.2290
     75  O        259.2700  207.9650  208.6460 O.2   191  TRP191     -0.2864
     76  CB       256.7820  208.0780  206.7210 C.3   191  TRP191      0.0576
     77  CG       257.4840  206.8160  206.3400 C.ar  191  TRP191      0.0006
     78  CD1      257.1970  205.5680  206.7810 C.ar  191  TRP191      0.0946
     79  CD2      258.4810  206.6580  205.3330 C.ar  191  TRP191      0.0152
     80  NE1      258.0060  204.6480  206.1750 N.ar  191  TRP191     -0.2442
     81  CE2      258.8000  205.2920  205.2720 C.ar  191  TRP191      0.0810
     82  CE3      259.1670  207.5450  204.5030 C.ar  191  TRP191      0.0012
     83  CZ2      259.7720  204.7890  204.4200 C.ar  191  TRP191      0.0191
     84  CZ3      260.1360  207.0460  203.6570 C.ar  191  TRP191      0.0001
     85  CH2      260.4300  205.6790  203.6220 C.ar  191  TRP191      0.0015
     86  N        259.1230  211.5290  210.7970 N.3   193  ASP193     -0.1225
     87  CA       259.0980  211.9200  212.2000 C.3   193  ASP193      0.1805
     88  C        259.2000  210.7070  213.1100 C.2   193  ASP193      0.2597
     89  O        259.9000  210.7410  214.1280 O.2   193  ASP193     -0.2718
     90  CB       257.8340  212.7210  212.5080 C.3   193  ASP193      0.1424
     91  CG       257.8690  214.1140  211.9130 C.2   193  ASP193      0.3668
     92  OD1      258.9550  214.5500  211.4830 O.co2 193  ASP193     -0.2456
     93  OD2      256.8170  214.7830  211.8930 O.co2 193  ASP193     -0.2456
     94  N        258.5220  209.6230  212.7630 N.am  194  HIS194     -0.1975
     95  CA       258.6320  208.4390  213.5910 C.3   194  HIS194      0.1656
     96  C        259.9020  207.6590  213.3180 C.2   194  HIS194      0.2291
     97  O        260.3370  206.8960  214.1810 O.2   194  HIS194     -0.2864
     98  CB       257.4420  207.5170  213.3950 C.3   194  HIS194      0.0771
     99  CG       257.4180  206.3880  214.3640 C.ar  194  HIS194      0.0820
    100  ND1      257.3180  206.5920  215.7200 N.ar  194  HIS194     -0.2267
    101  CD2      257.5040  205.0510  214.1870 C.ar  194  HIS194      0.1154
    102  CE1      257.3290  205.4270  216.3390 C.ar  194  HIS194      0.1986
    103  NE2      257.4380  204.4760  215.4310 N.ar  194  HIS194     -0.2212
    104  N        257.6310  210.6350  219.0830 N.3   201  ASN201     -0.1225
    105  CA       256.7460  210.8800  217.9570 C.3   201  ASN201      0.1785
    106  C        255.6140  209.8730  217.8580 C.2   201  ASN201      0.2598
    107  O        254.8510  209.9180  216.8930 O.2   201  ASN201     -0.2718
    108  CB       257.5360  210.8750  216.6520 C.3   201  ASN201      0.1169
    109  CG       258.4600  212.0530  216.5320 C.2   201  ASN201      0.2627
    110  OD1      258.0270  213.1710  216.2730 O.2   201  ASN201     -0.2716
    111  ND2      259.7460  211.8090  216.7070 N.am  201  ASN201     -0.0877
    112  N        255.4900  208.9590  218.8110 N.am  202  THR202     -0.1939
    113  CA       254.5380  207.8750  218.6560 C.3   202  THR202      0.2028
    114  C        253.1130  208.4020  218.7650 C.2   202  THR202      0.2642
    115  O        252.8670  209.5980  218.9230 O.2   202  THR202     -0.2714
    116  CB       254.7940  206.7940  219.6950 C.3   202  THR202      0.1808
    117  OG1      253.9450  205.6740  219.4290 O.3   202  THR202     -0.2208
    118  CG2      254.5000  207.3210  221.0740 C.3   202  THR202      0.0379
    119  N        252.1550  207.4820  218.6740 N.am  203  CYS203     -0.1967
    120  CA       250.7530  207.8770  218.6210 C.3   203  CYS203      0.1712
    121  C        250.3000  208.5270  219.9170 C.2   203  CYS203      0.2296
    122  O        249.5610  209.5150  219.8940 O.2   203  CYS203     -0.2864
    123  CB       249.8750  206.6730  218.3110 C.3   203  CYS203      0.0983
    124  SG       248.1480  207.1090  218.2160 S.3   203  CYS203     -0.0798
    125  N        250.7180  212.4830  220.2660 N.3   206  ASN206     -0.1240
    126  CA       250.1160  213.5240  219.4420 C.3   206  ASN206      0.1653
    127  C        249.1620  214.4100  220.2280 C.2   206  ASN206      0.2266
    128  O        248.7240  215.4370  219.7010 O.2   206  ASN206     -0.2867
    129  CB       249.4010  212.9090  218.2360 C.3   206  ASN206      0.1155
    130  CG       248.2230  212.0410  218.6190 C.2   206  ASN206      0.2627
    131  OD1      247.4760  212.3410  219.5440 O.2   206  ASN206     -0.2716
    132  ND2      248.0600  210.9430  217.9070 N.am  206  ASN206     -0.0877
    133  N        244.8870  211.7420  219.9650 N.3   209  SER209     -0.1217
    134  CA       244.4900  210.3460  220.0940 C.3   209  SER209      0.1889
    135  C        244.3670  209.9220  221.5480 C.2   209  SER209      0.2288
    136  O        243.4720  209.1520  221.9000 O.2   209  SER209     -0.2866
    137  CB       245.4910  209.4540  219.3730 C.3   209  SER209      0.2089
    138  OG       246.7650  209.5710  219.9700 O.3   209  SER209     -0.2183
@<TRIPOS>BOND
     1     1     2    1
     2     3     2    1
     3     3     4    2
     4     5     2    1
     5     5     6    1
     6     8     6    1
     7     6     7    1
     8    85    84   ar
     9    85    83   ar
    10    84    82   ar
    11    24    25    1
    12    24    21    1
    13     9    10    1
    14    83    81   ar
    15    82    79   ar
    16    22    21    1
    17    22    23    2
    18    20    21    1
    19    20    11   am
    20    81    79   ar
    21    81    80   ar
    22    79    77   ar
    23    26    27    1
    24    10    11    1
    25    10    13    1
    26    11    12    2
    27    13    14    1
    28    80    78   ar
    29    77    76    1
    30    77    78   ar
    31    27    30    1
    32    27    28    1
    33    76    73    1
    34    30    31    1
    35    14    16   ar
    36    14    15   ar
    37    34    28   am
    38    34    35    1
    39    28    29    2
    40    16    18   ar
    41    36    35    1
    42    36    37    2
    43    73    72    1
    44    73    74    1
    45    72    66   am
    46    74    75    2
    47    15    17   ar
    48    32    31    1
    49    31    33    1
    50    64    65    1
    51    51    49   am
    52    18    19   ar
    53    38    39    1
    54    66    65    1
    55    66    67    2
    56    49    48    1
    57    49    50    2
    58    17    19   ar
    59    48    47    1
    60    65    68    1
    61    68    69    1
    62    71    69   am
    63    69    70    2
    64    86    87    1
    65    43    44    1
    66    43    40   am
    67    45    46    2
    68    45    44    1
    69    39    40    1
    70    39    42    1
    71    47    44    1
    72    40    41    2
    73    92    91   ar
    74    93    91   ar
    75    91    90    1
    76    62    61    1
    77    87    90    1
    78    87    88    1
    79    94    88   am
    80    94    95    1
    81    59    60    2
    82    59    58    1
    83    88    89    2
    84    96    95    1
    85    96    97    2
    86    98    95    1
    87    98    99    1
    88    61    58    1
    89    61    63    1
    90    52    53    1
    91    58    57    1
    92    57    54   am
    93   101    99   ar
    94   101   103   ar
    95    99   100   ar
    96    54    53    1
    97    54    55    2
    98    53    56    1
    99   103   102   ar
   100   100   102   ar
   101   110   109    2
   102   109   108    1
   103   109   111   am
   104   108   105    1
   105   107   106    2
   106   106   105    1
   107   106   112   am
   108   132   130   am
   109   105   104    1
   110   124   123    1
   111   129   130    1
   112   129   126    1
   113   123   120    1
   114   130   131    2
   115   120   119    1
   116   120   121    1
   117   113   114    1
   118   113   112    1
   119   113   116    1
   120   119   114   am
   121   114   115    2
   122   137   138    1
   123   137   134    1
   124   117   116    1
   125   126   127    1
   126   126   125    1
   127   116   118    1
   128   128   127    2
   129   122   121    2
   130   133   134    1
   131   134   135    1
   132   135   136    2
