@<TRIPOS>MOLECULE
tmp/6igzO11.pdb
 90 90 0 0 0
SMALL
GASTEIGER

@<TRIPOS>ATOM
      1  N        265.1740  192.7260  245.6190 N.3    70  LEU70      -0.1245
      2  CA       266.5010  192.8060  245.0220 C.3    70  LEU70       0.1561
      3  C        267.1370  194.1720  245.2220 C.2    70  LEU70       0.2260
      4  O        268.3660  194.2770  245.3060 O.2    70  LEU70      -0.2867
      5  CB       266.4400  192.4590  243.5380 C.3    70  LEU70       0.0270
      6  CG       266.1050  190.9990  243.2580 C.3    70  LEU70       0.0019
      7  CD1      266.0270  190.7610  241.7740 C.3    70  LEU70       0.0001
      8  CD2      267.1450  190.1090  243.8810 C.3    70  LEU70       0.0001
      9  N        271.1850  194.9830  245.2820 N.3    75  VAL75      -0.1231
     10  CA       271.6690  194.2330  244.1320 C.3    75  VAL75       0.1692
     11  C        271.3980  195.0340  242.8690 C.2    75  VAL75       0.2592
     12  O        272.3290  195.4810  242.1920 O.2    75  VAL75      -0.2718
     13  CB       271.0170  192.8450  244.0670 C.3    75  VAL75       0.0266
     14  CG1      271.5200  192.0930  242.8710 C.3    75  VAL75       0.0020
     15  CG2      271.3130  192.0790  245.3330 C.3    75  VAL75       0.0020
     16  N        270.1240  195.2230  242.5470 N.am   76  ILE76      -0.1966
     17  CA       269.7340  196.0620  241.4200 C.3    76  ILE76       0.1712
     18  C        269.6050  197.4900  241.9340 C.2    76  ILE76       0.2458
     19  O        269.4320  197.6890  243.1430 O.2    76  ILE76      -0.2730
     20  CB       268.4320  195.5610  240.7850 C.3    76  ILE76       0.0289
     21  CG1      267.2680  195.7060  241.7540 C.3    76  ILE76       0.0022
     22  CG2      268.5690  194.1110  240.4340 C.3    76  ILE76       0.0023
     23  CD1      265.9420  195.4230  241.1150 C.3    76  ILE76       0.0001
     24  N        269.6940  198.5040  241.0830 N.am   77  PRO77      -0.2727
     25  CA       269.6570  199.8830  241.5760 C.3    77  PRO77       0.1402
     26  C        268.3180  200.2410  242.1990 C.2    77  PRO77       0.2269
     27  O        267.2880  199.6200  241.9420 O.2    77  PRO77      -0.2865
     28  CB       269.9190  200.7110  240.3180 C.3    77  PRO77       0.0296
     29  CG       269.4820  199.8380  239.2200 C.3    77  PRO77       0.0237
     30  CD       269.8670  198.4590  239.6270 C.3    77  PRO77       0.0939
     31  N        266.4730  203.0450  241.9490 N.3    79  SER79      -0.1202
     32  CA       265.4770  203.6900  241.1020 C.3    79  SER79       0.2020
     33  C        264.4970  202.6860  240.5230 C.2    79  SER79       0.2619
     34  O        263.3490  203.0350  240.2310 O.2    79  SER79      -0.2717
     35  CB       266.1660  204.4540  239.9750 C.3    79  SER79       0.2103
     36  OG       265.2160  205.0310  239.1040 O.3    79  SER79      -0.2182
     37  N        264.9260  201.4420  240.3510 N.am   80  THR80      -0.1952
     38  CA       264.0730  200.3820  239.8470 C.3    80  THR80       0.1897
     39  C        263.4670  199.5320  240.9540 C.2    80  THR80       0.2313
     40  O        262.7530  198.5720  240.6590 O.2    80  THR80      -0.2863
     41  CB       264.8620  199.5000  238.8900 C.3    80  THR80       0.1794
     42  OG1      265.9260  198.8660  239.6010 O.3    80  THR80      -0.2208
     43  CG2      265.4610  200.3550  237.8090 C.3    80  THR80       0.0378
     44  N        256.6360  206.0390  237.9480 N.3    96  SER96      -0.1202
     45  CA       258.0730  205.8320  238.0860 C.3    96  SER96       0.2020
     46  C        258.8730  206.4740  236.9600 C.2    96  SER96       0.2619
     47  O        259.9790  206.9720  237.1960 O.2    96  SER96      -0.2717
     48  CB       258.3600  204.3420  238.1710 C.3    96  SER96       0.2103
     49  OG       257.7530  203.8120  239.3370 O.3    96  SER96      -0.2182
     50  N        258.3620  206.4280  235.7320 N.am   97  ASP97      -0.1959
     51  CA       258.9830  207.0550  234.5640 C.3    97  ASP97       0.1840
     52  C        260.3930  206.5240  234.3060 C.2    97  ASP97       0.2622
     53  O        261.2100  207.1840  233.6630 O.2    97  ASP97      -0.2715
     54  CB       259.0030  208.5830  234.7050 C.3    97  ASP97       0.1450
     55  CG       259.4160  209.2890  233.4250 C.2    97  ASP97       0.3671
     56  OD1      258.6220  209.2920  232.4580 O.co2  97  ASP97      -0.2456
     57  OD2      260.5450  209.8190  233.3800 O.co2  97  ASP97      -0.2456
     58  N        260.6900  205.3200  234.7900 N.am   98  VAL98      -0.1963
     59  CA       261.9950  204.7180  234.5570 C.3    98  VAL98       0.1727
     60  C        262.1350  204.2470  233.1190 C.2    98  VAL98       0.2616
     61  O        263.2500  204.1460  232.6010 O.2    98  VAL98      -0.2715
     62  CB       262.1860  203.5410  235.5270 C.3    98  VAL98       0.0290
     63  CG1      263.5750  202.9510  235.4120 C.3    98  VAL98       0.0023
     64  CG2      261.8750  203.9650  236.9450 C.3    98  VAL98       0.0023
     65  N        261.0190  204.0000  232.4540 N.am   99  TYR99      -0.1960
     66  CA       260.9740  203.1520  231.2820 C.3    99  TYR99       0.1771
     67  C        261.5080  203.8720  230.0520 C.2    99  TYR99       0.2619
     68  O        261.5710  205.1000  229.9890 O.2    99  TYR99      -0.2715
     69  CB       259.5420  202.6910  231.0790 C.3    99  TYR99       0.0574
     70  CG       259.0290  202.0710  232.3440 C.ar   99  TYR99      -0.0198
     71  CD1      259.8010  201.1640  233.0430 C.ar   99  TYR99      -0.0009
     72  CD2      257.8210  202.4520  232.8880 C.ar   99  TYR99      -0.0009
     73  CE1      259.3600  200.6090  234.2110 C.ar   99  TYR99       0.0417
     74  CE2      257.3730  201.9040  234.0600 C.ar   99  TYR99       0.0417
     75  CZ       258.1490  200.9830  234.7190 C.ar   99  TYR99       0.1957
     76  OH       257.7120  200.4320  235.8970 O.3    99  TYR99      -0.2866
     77  N        261.8940  203.0780  229.0570 N.am  100  TRP100     -0.1974
     78  CA       262.4460  203.6300  227.8290 C.3   100  TRP100      0.1640
     79  C        261.4080  204.3670  226.9920 C.2   100  TRP100      0.2290
     80  O        261.7870  205.1690  226.1360 O.2   100  TRP100     -0.2864
     81  CB       263.1100  202.5100  227.0350 C.3   100  TRP100      0.0576
     82  CG       262.2130  201.3580  226.7570 C.ar  100  TRP100      0.0006
     83  CD1      261.8110  200.4110  227.6420 C.ar  100  TRP100      0.0946
     84  CD2      261.6880  200.9690  225.4900 C.ar  100  TRP100      0.0152
     85  NE1      261.0180  199.4890  227.0200 N.ar  100  TRP100     -0.2442
     86  CE2      260.9310  199.8070  225.6930 C.ar  100  TRP100      0.0810
     87  CE3      261.7610  201.5070  224.2070 C.ar  100  TRP100      0.0012
     88  CZ2      260.2560  199.1720  224.6650 C.ar  100  TRP100      0.0191
     89  CZ3      261.0880  200.8740  223.1890 C.ar  100  TRP100      0.0001
     90  CH2      260.3460  199.7200  223.4220 C.ar  100  TRP100      0.0015
@<TRIPOS>BOND
     1    89    90   ar
     2    89    87   ar
     3    90    88   ar
     4    87    84   ar
     5    88    86   ar
     6    84    86   ar
     7    84    82   ar
     8    86    85   ar
     9    80    79    2
    10    82    81    1
    11    82    83   ar
    12    79    78    1
    13    85    83   ar
    14    81    78    1
    15    78    77    1
    16    77    67   am
    17    68    67    2
    18    67    66    1
    19    69    66    1
    20    69    70    1
    21    66    65    1
    22    70    72   ar
    23    70    71   ar
    24    65    60   am
    25    56    55   ar
    26    61    60    2
    27    72    74   ar
    28    71    73   ar
    29    60    59    1
    30    57    55   ar
    31    55    54    1
    32    53    52    2
    33    74    75   ar
    34    73    75   ar
    35    52    51    1
    36    52    58   am
    37    59    58    1
    38    59    62    1
    39    51    54    1
    40    51    50    1
    41    75    76    1
    42    63    62    1
    43    62    64    1
    44    50    46   am
    45    46    47    2
    46    46    45    1
    47    43    41    1
    48    44    45    1
    49    45    48    1
    50    48    49    1
    51    41    42    1
    52    41    38    1
    53    36    35    1
    54    29    30    1
    55    29    28    1
    56    30    24    1
    57    38    37    1
    58    38    39    1
    59    35    32    1
    60    34    33    2
    61    28    25    1
    62    37    33   am
    63    22    20    1
    64    33    32    1
    65    40    39    2
    66    20    17    1
    67    20    21    1
    68    24    25    1
    69    24    18   am
    70    32    31    1
    71    23    21    1
    72    17    18    1
    73    17    16    1
    74    25    26    1
    75     7     6    1
    76    18    19    2
    77    27    26    2
    78    12    11    2
    79    16    11   am
    80    11    10    1
    81    14    13    1
    82     6     5    1
    83     6     8    1
    84     5     2    1
    85    13    10    1
    86    13    15    1
    87    10     9    1
    88     2     3    1
    89     2     1    1
    90     3     4    2
