@<TRIPOS>MOLECULE
tmp/6igzS23.pdb
 112 106 0 0 0
SMALL
GASTEIGER

@<TRIPOS>ATOM
      1  N        279.5030  181.8860  208.9550 N.3    51  TRP51      -0.1241
      2  CA       279.9040  183.2810  209.1000 C.3    51  TRP51       0.1605
      3  C        280.2540  183.6170  210.5350 C.2    51  TRP51       0.2264
      4  O        281.0700  184.5100  210.7820 O.2    51  TRP51      -0.2867
      5  CB       278.8030  184.2170  208.6170 C.3    51  TRP51       0.0550
      6  CG       278.6380  184.2340  207.1600 C.ar   51  TRP51       0.0003
      7  CD1      277.6610  183.6380  206.4410 C.ar   51  TRP51       0.0946
      8  CD2      279.5140  184.8480  206.2220 C.ar   51  TRP51       0.0152
      9  NE1      277.8520  183.8650  205.1040 N.ar   51  TRP51      -0.2442
     10  CE2      278.9910  184.6050  204.9450 C.ar   51  TRP51       0.0810
     11  CE3      280.6870  185.5910  206.3390 C.ar   51  TRP51       0.0012
     12  CZ2      279.6000  185.0770  203.7910 C.ar   51  TRP51       0.0191
     13  CZ3      281.2890  186.0560  205.1970 C.ar   51  TRP51       0.0001
     14  CH2      280.7470  185.8010  203.9380 C.ar   51  TRP51       0.0015
     15  N        283.8020  182.1220  211.0760 N.3    54  MET54      -0.1230
     16  CA       284.7350  183.0740  210.4930 C.3    54  MET54       0.1702
     17  C        284.7330  184.3770  211.2710 C.2    54  MET54       0.2592
     18  O        285.7830  184.9990  211.4550 O.2    54  MET54      -0.2718
     19  CB       284.3900  183.3260  209.0350 C.3    54  MET54       0.0401
     20  CG       284.6500  182.1560  208.1480 C.3    54  MET54       0.0596
     21  SD       286.3900  181.7300  208.2190 S.3    54  MET54      -0.1393
     22  CE       287.1080  183.2160  207.5350 C.3    54  MET54       0.0692
     23  N        283.5630  184.8030  211.7400 N.am   55  GLY55      -0.1957
     24  CA       283.4930  186.0490  212.4790 C.3    55  GLY55       0.1869
     25  C        284.2800  185.9950  213.7700 C.2    55  GLY55       0.2309
     26  O        285.1220  186.8540  214.0310 O.2    55  GLY55      -0.2863
     27  N        286.7170  184.1000  214.7440 N.3    57  VAL57      -0.1231
     28  CA       288.1550  184.0650  214.5230 C.3    57  VAL57       0.1692
     29  C        288.6460  185.4080  214.0070 C.2    57  VAL57       0.2592
     30  O        289.7170  185.8850  214.3950 O.2    57  VAL57      -0.2718
     31  CB       288.5110  182.9200  213.5650 C.3    57  VAL57       0.0266
     32  CG1      289.9790  182.9480  213.2330 C.3    57  VAL57       0.0020
     33  CG2      288.1360  181.5990  214.1870 C.3    57  VAL57       0.0020
     34  N        287.8620  186.0500  213.1450 N.am   58  GLY58      -0.1957
     35  CA       288.2770  187.3290  212.6010 C.3    58  GLY58       0.1869
     36  C        288.3130  188.4350  213.6310 C.2    58  GLY58       0.2309
     37  O        289.0680  189.3980  213.4860 O.2    58  GLY58      -0.2863
     38  N        291.3880  187.6890  215.6750 N.3    61  GLY61      -0.1210
     39  CA       292.5110  188.0610  214.8360 C.3    61  GLY61       0.1956
     40  C        292.7100  189.5580  214.7350 C.2    61  GLY61       0.2611
     41  O        293.8420  190.0310  214.6310 O.2    61  GLY61      -0.2717
     42  N        291.6240  190.3250  214.7580 N.am   62  GLN62      -0.1979
     43  CA       291.7600  191.7740  214.7230 C.3    62  GLN62       0.1601
     44  C        292.4400  192.2970  215.9760 C.2    62  GLN62       0.2287
     45  O        293.4930  192.9370  215.9040 O.2    62  GLN62      -0.2864
     46  CB       290.3980  192.4360  214.5730 C.3    62  GLN62       0.0394
     47  CG       290.5000  193.9410  214.6510 C.3    62  GLN62       0.0908
     48  CD       289.1800  194.6370  214.4360 C.2    62  GLN62       0.2608
     49  OE1      288.1890  194.0150  214.0600 O.2    62  GLN62      -0.2717
     50  NE2      289.1530  195.9360  214.6980 N.am   62  GLN62      -0.0878
     51  N        296.0100  190.9860  216.8970 N.3    65  LEU65      -0.1231
     52  CA       297.0230  191.4300  215.9510 C.3    65  LEU65       0.1693
     53  C        296.9310  192.9080  215.6040 C.2    65  LEU65       0.2592
     54  O        297.7530  193.3880  214.8200 O.2    65  LEU65      -0.2718
     55  CB       296.9590  190.5980  214.6700 C.3    65  LEU65       0.0284
     56  CG       297.8390  189.3450  214.6780 C.3    65  LEU65       0.0019
     57  CD1      297.3930  188.3400  215.7190 C.3    65  LEU65       0.0001
     58  CD2      297.8680  188.7020  213.3070 C.3    65  LEU65       0.0001
     59  N        295.9570  193.6370  216.1410 N.am   66  ASN66      -0.1974
     60  CA       295.9060  195.0870  215.9780 C.3    66  ASN66       0.1688
     61  C        295.3870  195.6830  217.2780 C.2    66  ASN66       0.2292
     62  O        294.1910  195.9610  217.4170 O.2    66  ASN66      -0.2864
     63  CB       295.0430  195.4830  214.7810 C.3    66  ASN66       0.1181
     64  CG       295.3740  196.8610  214.2590 C.2    66  ASN66       0.2629
     65  OD1      296.4960  197.3360  214.4090 O.2    66  ASN66      -0.2716
     66  ND2      294.4160  197.4940  213.6080 N.am   66  ASN66      -0.0877
     67  N        292.0550  200.1120  217.7970 N.3    69  VAL69      -0.1245
     68  CA       290.8680  199.9100  216.9610 C.3    69  VAL69       0.1561
     69  C        289.8560  199.0120  217.6570 C.2    69  VAL69       0.2260
     70  O        289.7760  197.8050  217.4020 O.2    69  VAL69      -0.2867
     71  CB       291.1960  199.4160  215.5290 C.3    69  VAL69       0.0252
     72  CG1      291.9410  198.1050  215.4680 C.3    69  VAL69       0.0019
     73  CG2      289.9190  199.2580  214.7540 C.3    69  VAL69       0.0019
     74  N        285.4620  199.7890  213.8390 N.3    74  ALA74      -0.1231
     75  CA       286.2580  199.2280  212.7530 C.3    74  ALA74       0.1694
     76  C        285.7680  199.6490  211.3730 C.2    74  ALA74       0.2592
     77  O        286.4960  199.5210  210.3870 O.2    74  ALA74      -0.2718
     78  CB       286.2790  197.7040  212.8500 C.3    74  ALA74       0.0304
     79  N        284.5440  200.1510  211.2880 N.am   75  GLY75      -0.1957
     80  CA       283.9470  200.4340  210.0040 C.3    75  GLY75       0.1869
     81  C        284.3760  201.7340  209.3680 C.2    75  GLY75       0.2309
     82  O        284.7940  201.7630  208.2110 O.2    75  GLY75      -0.2863
     83  N        289.9260  203.7960  211.2590 N.3    79  ASN79      -0.1225
     84  CA       290.6520  202.5850  211.5880 C.3    79  ASN79       0.1785
     85  C        291.2470  201.8860  210.3710 C.2    79  ASN79       0.2597
     86  O        292.0970  201.0060  210.5430 O.2    79  ASN79      -0.2718
     87  CB       289.7010  201.6440  212.3090 C.3    79  ASN79       0.1169
     88  CG       289.1420  202.2490  213.5750 C.2    79  ASN79       0.2627
     89  OD1      287.9350  202.2230  213.8090 O.2    79  ASN79      -0.2716
     90  ND2      290.0200  202.7910  214.4070 N.am   79  ASN79      -0.0877
     91  N        290.8320  202.2490  209.1620 N.am   80  LEU80      -0.1966
     92  CA       291.2250  201.4960  207.9820 C.3    80  LEU80       0.1713
     93  C        292.7340  201.5820  207.7450 C.2    80  LEU80       0.2458
     94  O        293.3700  202.5780  208.0860 O.2    80  LEU80      -0.2730
     95  CB       290.4820  202.0020  206.7550 C.3    80  LEU80       0.0310
     96  CG       289.1090  201.3940  206.4860 C.3    80  LEU80       0.0022
     97  CD1      288.1110  201.7870  207.5530 C.3    80  LEU80       0.0001
     98  CD2      288.6230  201.7950  205.1100 C.3    80  LEU80       0.0001
     99  N        293.3270  200.5330  207.1570 N.am   81  PRO81      -0.2727
    100  CA       294.7730  200.5260  206.9020 C.3    81  PRO81       0.1402
    101  C        295.2620  201.6280  205.9760 C.2    81  PRO81       0.2269
    102  O        294.5030  202.5160  205.5800 O.2    81  PRO81      -0.2865
    103  CB       295.0060  199.1440  206.2840 C.3    81  PRO81       0.0296
    104  CG       293.9480  198.2940  206.8800 C.3    81  PRO81       0.0237
    105  CD       292.7450  199.1800  207.0520 C.3    81  PRO81       0.0939
    106  N        294.2660  201.5450  201.9530 N.3    84  VAL84      -0.1245
    107  CA       292.8810  201.9840  201.9590 C.3    84  VAL84       0.1561
    108  C        292.8590  203.3300  202.6670 C.2    84  VAL84       0.2260
    109  O        293.8740  204.0340  202.6720 O.2    84  VAL84      -0.2867
    110  CB       291.9810  200.9410  202.6320 C.3    84  VAL84       0.0252
    111  CG1      292.0810  199.6350  201.8840 C.3    84  VAL84       0.0019
    112  CG2      292.4160  200.7350  204.0350 C.3    84  VAL84       0.0019
@<TRIPOS>BOND
     1   111   110    1
     2   106   107    1
     3   107   110    1
     4   107   108    1
     5   110   112    1
     6   108   109    2
     7    12    14   ar
     8    12    10   ar
     9    14    13   ar
    10    10     9   ar
    11    10     8   ar
    12     9     7   ar
    13    98    96    1
    14    13    11   ar
    15   102   101    2
    16   101   100    1
    17     8    11   ar
    18     8     6   ar
    19   103   104    1
    20   103   100    1
    21     7     6   ar
    22    96    95    1
    23    96    97    1
    24    95    92    1
    25   104   105    1
    26   100    99    1
    27   105    99    1
    28    99    93   am
    29     6     5    1
    30    22    21    1
    31    93    92    1
    32    93    94    2
    33    92    91    1
    34    20    21    1
    35    20    19    1
    36    82    81    2
    37     5     2    1
    38     1     2    1
    39    19    16    1
    40     2     3    1
    41    91    85   am
    42    81    80    1
    43    80    79    1
    44    85    86    2
    45    85    84    1
    46    77    76    2
    47    16    15    1
    48    16    17    1
    49     3     4    2
    50    83    84    1
    51    17    18    2
    52    17    23   am
    53    79    76   am
    54    76    75    1
    55    84    87    1
    56    23    24    1
    57    87    88    1
    58    24    25    1
    59    35    34    1
    60    35    36    1
    61    75    78    1
    62    75    74    1
    63    34    29   am
    64    32    31    1
    65    58    56    1
    66    37    36    2
    67    31    33    1
    68    31    28    1
    69    88    89    2
    70    88    90   am
    71    66    64   am
    72    25    26    2
    73    29    30    2
    74    29    28    1
    75    49    48    2
    76    64    65    2
    77    64    63    1
    78    48    47    1
    79    48    50   am
    80    28    27    1
    81    46    47    1
    82    46    43    1
    83    41    40    2
    84    55    56    1
    85    55    52    1
    86    56    57    1
    87    43    42    1
    88    43    44    1
    89    40    42   am
    90    40    39    1
    91    73    71    1
    92    63    60    1
    93    54    53    2
    94    39    38    1
    95    72    71    1
    96    71    68    1
    97    53    52    1
    98    53    59   am
    99    45    44    2
   100    52    51    1
   101    60    59    1
   102    60    61    1
   103    68    69    1
   104    68    67    1
   105    61    62    2
   106    70    69    2
