@<TRIPOS>MOLECULE
tmp/6igzH00.pdb
 87 84 0 0 0
SMALL
GASTEIGER

@<TRIPOS>ATOM
      1  N        145.8050  217.1330  256.4460 N.3    51  LEU51      -0.1231
      2  CA       147.1950  217.5290  256.6510 C.3    51  LEU51       0.1693
      3  C        147.7050  218.3760  255.4920 C.2    51  LEU51       0.2592
      4  O        148.4670  219.3250  255.7010 O.2    51  LEU51      -0.2718
      5  CB       148.0590  216.2840  256.8330 C.3    51  LEU51       0.0284
      6  CG       147.6440  215.4290  258.0300 C.3    51  LEU51       0.0019
      7  CD1      148.4190  214.1290  258.0550 C.3    51  LEU51       0.0001
      8  CD2      147.8220  216.1980  259.3300 C.3    51  LEU51       0.0001
      9  N        147.3120  218.0390  254.2600 N.am   52  PHE52      -0.1976
     10  CA       147.6620  218.8860  253.1250 C.3    52  PHE52       0.1639
     11  C        146.8580  220.1790  253.1370 C.2    52  PHE52       0.2290
     12  O        147.4240  221.2770  253.0810 O.2    52  PHE52      -0.2864
     13  CB       147.4360  218.1530  251.7990 C.3    52  PHE52       0.0560
     14  CG       148.2800  216.9280  251.6200 C.ar   52  PHE52      -0.0200
     15  CD1      149.6300  217.0370  251.3470 C.ar   52  PHE52      -0.0042
     16  CD2      147.7080  215.6700  251.6530 C.ar   52  PHE52      -0.0042
     17  CE1      150.4000  215.9150  251.1670 C.ar   52  PHE52      -0.0003
     18  CE2      148.4710  214.5440  251.4660 C.ar   52  PHE52      -0.0003
     19  CZ       149.8170  214.6650  251.2250 C.ar   52  PHE52      -0.0000
     20  N        146.7120  221.4840  257.2850 N.3    55  GLY55      -0.1210
     21  CA       147.9880  221.4800  257.9740 C.3    55  GLY55       0.1956
     22  C        149.0320  222.3950  257.3690 C.2    55  GLY55       0.2612
     23  O        149.6820  223.1590  258.0850 O.2    55  GLY55      -0.2717
     24  N        149.1970  222.3310  256.0490 N.am   56  GLY56      -0.1956
     25  CA       150.1610  223.1620  255.3530 C.3    56  GLY56       0.1869
     26  C        149.7920  224.6210  255.2430 C.2    56  GLY56       0.2309
     27  O        150.5390  225.3900  254.6340 O.2    56  GLY56      -0.2863
     28  N        149.8150  226.8430  257.5690 N.3    58  ALA58      -0.1231
     29  CA       150.5770  227.7410  258.4260 C.3    58  ALA58       0.1694
     30  C        151.7420  228.3820  257.6770 C.2    58  ALA58       0.2591
     31  O        152.1670  229.4860  258.0390 O.2    58  ALA58      -0.2718
     32  CB       151.0620  227.0030  259.6740 C.3    58  ALA58       0.0304
     33  N        152.2720  227.7170  256.6460 N.am   59  LEU59      -0.1980
     34  CA       153.1060  228.4200  255.6740 C.3    59  LEU59       0.1596
     35  C        152.3700  229.6290  255.1230 C.2    59  LEU59       0.2287
     36  O        152.9150  230.7370  255.0660 O.2    59  LEU59      -0.2864
     37  CB       153.5000  227.4910  254.5300 C.3    59  LEU59       0.0297
     38  CG       154.5170  226.3830  254.7480 C.3    59  LEU59       0.0022
     39  CD1      154.5270  225.4810  253.5440 C.3    59  LEU59       0.0001
     40  CD2      155.8930  226.9820  254.9610 C.3    59  LEU59       0.0001
     41  N        151.2840  232.0360  258.8080 N.3    62  TRP62      -0.1227
     42  CA       152.3770  232.7470  259.4640 C.3    62  TRP62       0.1737
     43  C        153.4710  233.1830  258.5020 C.2    62  TRP62       0.2596
     44  O        154.3870  233.8990  258.9220 O.2    62  TRP62      -0.2718
     45  CB       152.9670  231.8970  260.5880 C.3    62  TRP62       0.0564
     46  CG       152.0540  231.8110  261.7630 C.ar   62  TRP62       0.0003
     47  CD1      151.1620  230.8190  262.0420 C.ar   62  TRP62       0.0946
     48  CD2      151.9200  232.7780  262.8090 C.ar   62  TRP62       0.0152
     49  NE1      150.4920  231.1000  263.2060 N.ar   62  TRP62      -0.2442
     50  CE2      150.9390  232.2990  263.6960 C.ar   62  TRP62       0.0810
     51  CE3      152.5420  233.9960  263.0870 C.ar   62  TRP62       0.0012
     52  CZ2      150.5650  232.9990  264.8420 C.ar   62  TRP62       0.0191
     53  CZ3      152.1700  234.6890  264.2260 C.ar   62  TRP62       0.0001
     54  CH2      151.1920  234.1900  265.0870 C.ar   62  TRP62       0.0015
     55  N        153.4060  232.7730  257.2350 N.am   63  GLY63      -0.1957
     56  CA       154.2780  233.3720  256.2410 C.3    63  GLY63       0.1869
     57  C        153.8770  234.8010  255.9350 C.2    63  GLY63       0.2309
     58  O        154.7290  235.6810  255.7860 O.2    63  GLY63      -0.2863
     59  N        157.5580  238.2000  262.2330 N.3    68  SER68      -0.1202
     60  CA       158.8310  237.6040  262.7170 C.3    68  SER68       0.2020
     61  C        159.8050  237.5070  261.5350 C.2    68  SER68       0.2619
     62  O        160.8970  236.9330  261.7090 O.2    68  SER68      -0.2717
     63  CB       158.5860  236.2550  263.3390 C.3    68  SER68       0.2103
     64  OG       157.9110  235.3980  262.4300 O.3    68  SER68      -0.2182
     65  N        159.4170  238.0780  260.3880 N.am   69  ASP69      -0.1959
     66  CA       160.2140  238.0120  259.1360 C.3    69  ASP69       0.1840
     67  C        161.6000  238.6130  259.3840 C.2    69  ASP69       0.2621
     68  O        161.6900  239.7020  259.9850 O.2    69  ASP69      -0.2715
     69  CB       159.4900  238.7180  257.9870 C.3    69  ASP69       0.1450
     70  CG       158.0450  238.2780  257.8170 C.2    69  ASP69       0.3671
     71  OD1      157.5010  237.6720  258.7620 O.co2  69  ASP69      -0.2456
     72  OD2      157.4740  238.5460  256.7400 O.co2  69  ASP69      -0.2456
     73  N        162.6220  237.9170  258.8880 N.am   70  VAL70      -0.1977
     74  CA       164.0260  238.2990  258.9950 C.3    70  VAL70       0.1596
     75  C        164.5780  238.5730  257.6020 C.2    70  VAL70       0.2287
     76  O        164.6800  237.6610  256.7740 O.2    70  VAL70      -0.2864
     77  CB       164.8650  237.2340  259.7260 C.3    70  VAL70       0.0276
     78  CG1      164.5540  237.2560  261.2130 C.3    70  VAL70       0.0022
     79  CG2      164.5590  235.8530  259.1880 C.3    70  VAL70       0.0022
     80  N        163.3900  239.7440  255.0800 N.3    72  LEU72      -0.1245
     81  CA       162.5300  239.2190  254.0370 C.3    72  LEU72       0.1561
     82  C        162.1580  240.3330  253.0800 C.2    72  LEU72       0.2260
     83  O        161.6150  241.3540  253.5210 O.2    72  LEU72      -0.2867
     84  CB       161.2710  238.6150  254.6250 C.3    72  LEU72       0.0270
     85  CG       161.5260  237.4540  255.5810 C.3    72  LEU72       0.0019
     86  CD1      160.2160  236.8870  256.0970 C.3    72  LEU72       0.0001
     87  CD2      162.3650  236.3870  254.9060 C.3    72  LEU72       0.0001
@<TRIPOS>BOND
     1    17    19   ar
     2    17    15   ar
     3    19    18   ar
     4    15    14   ar
     5    18    16   ar
     6    14    16   ar
     7    14    13    1
     8    13    10    1
     9    82    83    2
    10    82    81    1
    11    12    11    2
    12    10    11    1
    13    10     9    1
    14    39    38    1
    15    81    84    1
    16    81    80    1
    17     9     3   am
    18    37    38    1
    19    37    34    1
    20    84    85    1
    21    27    26    2
    22    38    40    1
    23    87    85    1
    24    36    35    2
    25    35    34    1
    26    26    25    1
    27    25    24    1
    28     3     4    2
    29     3     2    1
    30    85    86    1
    31    34    33    1
    32    58    57    2
    33    57    56    1
    34    24    22   am
    35    56    55    1
    36     1     2    1
    37    33    30   am
    38     2     5    1
    39    72    70   ar
    40    76    75    2
    41     5     6    1
    42    55    43   am
    43    20    21    1
    44    22    21    1
    45    22    23    2
    46    28    29    1
    47    75    74    1
    48    30    31    2
    49    30    29    1
    50    70    69    1
    51    70    71   ar
    52    69    66    1
    53     6     7    1
    54     6     8    1
    55    29    32    1
    56    43    44    2
    57    43    42    1
    58    41    42    1
    59    73    74    1
    60    73    67   am
    61    74    77    1
    62    66    67    1
    63    66    65    1
    64    79    77    1
    65    67    68    2
    66    42    45    1
    67    77    78    1
    68    65    61   am
    69    45    46    1
    70    61    62    2
    71    61    60    1
    72    46    47   ar
    73    46    48   ar
    74    47    49   ar
    75    59    60    1
    76    64    63    1
    77    60    63    1
    78    48    51   ar
    79    48    50   ar
    80    51    53   ar
    81    49    50   ar
    82    50    52   ar
    83    53    54   ar
    84    52    54   ar
