@<TRIPOS>MOLECULE
tmp/6igzV04.pdb
 105 100 0 0 0
SMALL
GASTEIGER

@<TRIPOS>ATOM
      1  N        113.2720  220.8160  243.1890 N.3     2  PRO2       -0.2116
      2  CA       113.7380  222.0810  242.5990 C.3     2  PRO2        0.1372
      3  C        115.2220  222.0620  242.2770 C.2     2  PRO2        0.2244
      4  O        115.6330  222.5460  241.2140 O.2     2  PRO2       -0.2868
      5  CB       113.3780  223.1120  243.6750 C.3     2  PRO2        0.0268
      6  CG       113.3290  222.3370  244.9360 C.3     2  PRO2        0.0207
      7  CD       112.7700  221.0080  244.5590 C.3     2  PRO2        0.0892
      8  N        119.1520  219.3060  247.4900 N.3    22  TYR22      -0.1241
      9  CA       118.8820  219.8160  246.1580 C.3    22  TYR22       0.1605
     10  C        119.8190  219.2220  245.1220 C.2    22  TYR22       0.2264
     11  O        119.8450  219.6870  243.9840 O.2    22  TYR22      -0.2867
     12  CB       118.9710  221.3380  246.1470 C.3    22  TYR22       0.0534
     13  CG       117.8740  221.9910  246.9440 C.ar   22  TYR22      -0.0201
     14  CD1      116.5740  221.5220  246.8730 C.ar   22  TYR22      -0.0009
     15  CD2      118.1370  223.0630  247.7750 C.ar   22  TYR22      -0.0009
     16  CE1      115.5670  222.1110  247.5990 C.ar   22  TYR22       0.0417
     17  CE2      117.1410  223.6550  248.5030 C.ar   22  TYR22       0.0417
     18  CZ       115.8560  223.1810  248.4130 C.ar   22  TYR22       0.1957
     19  OH       114.8520  223.7750  249.1450 O.3    22  TYR22      -0.2866
     20  N        123.2660  219.2710  244.8250 N.3    24  TYR24      -0.1241
     21  CA       124.3470  220.1390  244.3820 C.3    24  TYR24       0.1605
     22  C        125.6520  219.6150  244.9630 C.2    24  TYR24       0.2264
     23  O        125.8820  219.7100  246.1730 O.2    24  TYR24      -0.2867
     24  CB       124.0970  221.5870  244.7870 C.3    24  TYR24       0.0534
     25  CG       125.2220  222.4970  244.3880 C.ar   24  TYR24      -0.0201
     26  CD1      125.5170  222.7010  243.0530 C.ar   24  TYR24      -0.0009
     27  CD2      125.9530  223.1930  245.3310 C.ar   24  TYR24      -0.0009
     28  CE1      126.5320  223.5330  242.6650 C.ar   24  TYR24       0.0417
     29  CE2      126.9690  224.0400  244.9490 C.ar   24  TYR24       0.0417
     30  CZ       127.2540  224.2040  243.6160 C.ar   24  TYR24       0.1957
     31  OH       128.2670  225.0430  243.2250 O.3    24  TYR24      -0.2866
     32  N        116.9440  223.6240  256.6620 N.3   133  LYS133     -0.1245
     33  CA       116.7840  224.5950  255.5930 C.3   133  LYS133      0.1561
     34  C        116.8120  226.0190  256.1270 C.2   133  LYS133      0.2260
     35  O        117.4000  226.9040  255.4990 O.2   133  LYS133     -0.2867
     36  CB       115.4890  224.3260  254.8360 C.3   133  LYS133      0.0271
     37  CG       115.3220  225.2180  253.6420 C.3   133  LYS133      0.0035
     38  CD       116.5040  225.0250  252.7200 C.3   133  LYS133      0.0206
     39  CE       116.3230  225.7880  251.4370 C.3   133  LYS133      0.1093
     40  NZ       117.5800  225.7940  250.6490 N.3   133  LYS133     -0.1314
     41  N        120.7080  226.8310  257.0950 N.3   136  ARG136     -0.1231
     42  CA       121.5010  227.0260  255.8850 C.3   136  ARG136      0.1694
     43  C        121.3320  228.4260  255.3250 C.2   136  ARG136      0.2591
     44  O        122.2930  229.0330  254.8460 O.2   136  ARG136     -0.2718
     45  CB       121.0830  225.9920  254.8390 C.3   136  ARG136      0.0321
     46  CG       121.7310  224.6490  255.0200 C.3   136  ARG136      0.0489
     47  CD       120.9000  223.5560  254.3850 C.3   136  ARG136      0.2205
     48  NE       120.6170  223.6760  252.9680 N.pl3 136  ARG136     -0.0865
     49  CZ       121.3660  223.1560  252.0130 C.cat 136  ARG136      0.5346
     50  NH1      122.4530  222.4720  252.3150 N.pl3 136  ARG136      0.1354
     51  NH2      121.0210  223.3010  250.7500 N.pl3 136  ARG136      0.1354
     52  N        120.1110  228.9490  255.3720 N.am  137  LEU137     -0.1980
     53  CA       119.8740  230.3040  254.9060 C.3   137  LEU137      0.1596
     54  C        120.5800  231.3140  255.7980 C.2   137  LEU137      0.2287
     55  O        121.2710  232.2110  255.3050 O.2   137  LEU137     -0.2864
     56  CB       118.3720  230.5700  254.8560 C.3   137  LEU137      0.0297
     57  CG       117.9380  231.9370  254.3500 C.3   137  LEU137      0.0022
     58  CD1      118.4050  232.1090  252.9270 C.3   137  LEU137      0.0001
     59  CD2      116.4380  232.0560  254.4210 C.3   137  LEU137      0.0001
     60  N        124.2920  231.7760  255.1730 N.3   140  VAL140     -0.1245
     61  CA       124.7720  232.6270  254.0930 C.3   140  VAL140      0.1561
     62  C        124.8040  234.0860  254.5290 C.2   140  VAL140      0.2260
     63  O        125.7300  234.8310  254.1870 O.2   140  VAL140     -0.2867
     64  CB       123.9010  232.4170  252.8450 C.3   140  VAL140      0.0252
     65  CG1      124.3430  233.3280  251.7210 C.3   140  VAL140      0.0019
     66  CG2      123.9690  230.9730  252.4140 C.3   140  VAL140      0.0019
     67  N        132.0970  241.5400  242.4300 N.3   181  VAL181     -0.1245
     68  CA       130.9040  240.7020  242.4410 C.3   181  VAL181      0.1561
     69  C        130.1930  240.7620  241.1040 C.2   181  VAL181      0.2260
     70  O        129.7990  239.7300  240.5480 O.2   181  VAL181     -0.2867
     71  CB       129.9700  241.1130  243.5870 C.3   181  VAL181      0.0252
     72  CG1      128.6500  240.3960  243.4600 C.3   181  VAL181      0.0019
     73  CG2      130.6080  240.7790  244.8990 C.3   181  VAL181      0.0019
     74  N        131.4540  238.2310  239.1160 N.3   184  ALA184     -0.1231
     75  CA       131.0410  236.9120  239.5810 C.3   184  ALA184      0.1694
     76  C        129.5650  236.6580  239.3360 C.2   184  ALA184      0.2591
     77  O        129.1390  235.4990  239.3340 O.2   184  ALA184     -0.2718
     78  CB       131.3480  236.7460  241.0670 C.3   184  ALA184      0.0304
     79  N        128.7750  237.7100  239.1400 N.am  185  ILE185     -0.1980
     80  CA       127.3800  237.5240  238.7610 C.3   185  ILE185      0.1595
     81  C        127.2780  237.1400  237.2920 C.2   185  ILE185      0.2287
     82  O        126.5050  236.2510  236.9170 O.2   185  ILE185     -0.2864
     83  CB       126.5690  238.7930  239.0670 C.3   185  ILE185      0.0276
     84  CG1      126.6160  239.1140  240.5610 C.3   185  ILE185      0.0022
     85  CG2      125.1540  238.6090  238.6110 C.3   185  ILE185      0.0022
     86  CD1      126.0320  238.0350  241.4200 C.3   185  ILE185      0.0001
     87  N        128.4210  233.7400  236.6450 N.3   188  ALA188     -0.1245
     88  CA       127.4510  232.8220  237.2160 C.3   188  ALA188      0.1562
     89  C        126.1950  232.7020  236.3710 C.2   188  ALA188      0.2260
     90  O        125.3650  231.8350  236.6390 O.2   188  ALA188     -0.2867
     91  CB       127.0830  233.2540  238.6370 C.3   188  ALA188      0.0290
     92  N        127.1580  229.9100  233.9650 N.3   191  TRP191     -0.1241
     93  CA       127.4450  228.7160  234.7640 C.3   191  TRP191      0.1605
     94  C        126.4870  227.5580  234.5280 C.2   191  TRP191      0.2264
     95  O        126.9650  226.4310  234.3520 O.2   191  TRP191     -0.2867
     96  CB       127.4630  229.1410  236.2390 C.3   191  TRP191      0.0550
     97  CG       127.6530  228.0480  237.2240 C.ar  191  TRP191      0.0003
     98  CD1      126.7040  227.5070  238.0280 C.ar  191  TRP191      0.0946
     99  CD2      128.8790  227.3870  237.5480 C.ar  191  TRP191      0.0152
    100  NE1      127.2550  226.5380  238.8270 N.ar  191  TRP191     -0.2442
    101  CE2      128.5910  226.4460  238.5510 C.ar  191  TRP191      0.0810
    102  CE3      130.1910  227.4970  237.0830 C.ar  191  TRP191      0.0012
    103  CZ2      129.5640  225.6200  239.0970 C.ar  191  TRP191      0.0191
    104  CZ3      131.1560  226.6770  237.6270 C.ar  191  TRP191      0.0001
    105  CH2      130.8380  225.7510  238.6230 C.ar  191  TRP191      0.0015
@<TRIPOS>BOND
     1    92    93    1
     2    95    94    2
     3    94    93    1
     4    93    96    1
     5    96    97    1
     6    89    90    2
     7    89    88    1
     8    87    88    1
     9    82    81    2
    10   102    99   ar
    11   102   104   ar
    12    88    91    1
    13    97    99   ar
    14    97    98   ar
    15    81    80    1
    16    99   101   ar
    17   104   105   ar
    18    98   100   ar
    19   101   100   ar
    20   101   103   ar
    21    85    83    1
    22   105   103   ar
    23    80    83    1
    24    80    79    1
    25    83    84    1
    26    74    75    1
    27    79    76   am
    28    77    76    2
    29    76    75    1
    30    75    78    1
    31    70    69    2
    32    84    86    1
    33    69    68    1
    34     4     3    2
    35     3     2    1
    36    67    68    1
    37    68    71    1
    38     2     1    1
    39     2     5    1
    40    28    26   ar
    41    28    30   ar
    42    26    25   ar
    43     1     7    1
    44    31    30    1
    45    72    71    1
    46    71    73    1
    47    30    29   ar
    48     5     6    1
    49    11    10    2
    50    21    24    1
    51    21    20    1
    52    21    22    1
    53    25    24    1
    54    25    27   ar
    55     7     6    1
    56    29    27   ar
    57    22    23    2
    58    10     9    1
    59    12     9    1
    60    12    13    1
    61     9     8    1
    62    14    13   ar
    63    14    16   ar
    64    13    15   ar
    65    16    18   ar
    66    15    17   ar
    67    18    17   ar
    68    18    19    1
    69    40    39    1
    70    51    49    1
    71    39    38    1
    72    65    64    1
    73    49    50    1
    74    49    48    2
    75    66    64    1
    76    38    37    1
    77    64    61    1
    78    58    57    1
    79    48    47    1
    80    37    36    1
    81    61    62    1
    82    61    60    1
    83    63    62    2
    84    57    59    1
    85    57    56    1
    86    47    46    1
    87    36    33    1
    88    45    46    1
    89    45    42    1
    90    44    43    2
    91    56    53    1
    92    53    52    1
    93    53    54    1
    94    55    54    2
    95    43    52   am
    96    43    42    1
    97    35    34    2
    98    33    34    1
    99    33    32    1
   100    42    41    1
