@<TRIPOS>MOLECULE
tmp/6igzO12.pdb
 113 107 0 0 0
SMALL
GASTEIGER

@<TRIPOS>ATOM
      1  N        250.4620  183.5540  240.7210 N.3    58  MET58      -0.1230
      2  CA       251.8490  183.1310  240.8450 C.3    58  MET58       0.1702
      3  C        252.7760  184.1290  240.1780 C.2    58  MET58       0.2592
      4  O        253.7500  184.5910  240.7780 O.2    58  MET58      -0.2718
      5  CB       252.0220  181.7560  240.2150 C.3    58  MET58       0.0401
      6  CG       251.2610  180.6520  240.8790 C.3    58  MET58       0.0596
      7  SD       251.5070  179.1670  239.9140 S.3    58  MET58      -0.1393
      8  CE       250.4700  178.0100  240.7570 C.3    58  MET58       0.0692
      9  N        252.4730  184.4890  238.9360 N.am   59  LEU59      -0.1980
     10  CA       253.3060  185.4600  238.2500 C.3    59  LEU59       0.1596
     11  C        253.1190  186.8470  238.8290 C.2    59  LEU59       0.2287
     12  O        254.0370  187.6690  238.7780 O.2    59  LEU59      -0.2864
     13  CB       252.9950  185.4620  236.7630 C.3    59  LEU59       0.0297
     14  CG       253.2590  184.1190  236.1010 C.3    59  LEU59       0.0022
     15  CD1      252.9010  184.1810  234.6390 C.3    59  LEU59       0.0001
     16  CD2      254.6970  183.7300  236.2920 C.3    59  LEU59       0.0001
     17  N        255.0450  186.7220  242.5710 N.3    62  ALA62      -0.1245
     18  CA       256.4800  186.7000  242.3490 C.3    62  ALA62       0.1562
     19  C        256.9840  187.9700  241.6870 C.2    62  ALA62       0.2260
     20  O        258.1650  188.2970  241.8220 O.2    62  ALA62      -0.2867
     21  CB       256.8490  185.4940  241.4990 C.3    62  ALA62       0.0290
     22  N        256.9140  191.2210  244.4790 N.3    65  ILE65      -0.1231
     23  CA       257.8970  191.1750  245.5520 C.3    65  ILE65       0.1692
     24  C        259.3180  191.3120  245.0260 C.2    65  ILE65       0.2592
     25  O        260.1340  192.0320  245.6100 O.2    65  ILE65      -0.2718
     26  CB       257.7160  189.8790  246.3520 C.3    65  ILE65       0.0266
     27  CG1      256.3330  189.8550  246.9710 C.3    65  ILE65       0.0019
     28  CG2      258.7350  189.7910  247.4380 C.3    65  ILE65       0.0020
     29  CD1      256.0920  191.0180  247.8890 C.3    65  ILE65       0.0001
     30  N        259.6360  190.6300  243.9270 N.am   66  THR66      -0.1953
     31  CA       261.0340  190.4770  243.5270 C.3    66  THR66       0.1897
     32  C        261.7580  191.7990  243.3290 C.2    66  THR66       0.2313
     33  O        262.8810  191.9400  243.8420 O.2    66  THR66      -0.2863
     34  CB       261.1230  189.6120  242.2710 C.3    66  THR66       0.1794
     35  OG1      260.6320  188.3000  242.5600 O.3    66  THR66      -0.2208
     36  CG2      262.5510  189.5200  241.8060 C.3    66  THR66       0.0378
     37  N        262.5880  193.2670  246.7970 N.3    69  ILE69      -0.1231
     38  CA       263.6710  192.6230  247.5330 C.3    69  ILE69       0.1692
     39  C        265.0200  192.9650  246.9210 C.2    69  ILE69       0.2591
     40  O        265.9270  193.4410  247.6120 O.2    69  ILE69      -0.2718
     41  CB       263.4620  191.1030  247.5950 C.3    69  ILE69       0.0266
     42  CG1      262.3660  190.7610  248.5960 C.3    69  ILE69       0.0019
     43  CG2      264.7470  190.4030  247.9440 C.3    69  ILE69       0.0020
     44  CD1      262.0380  189.3030  248.6290 C.3    69  ILE69       0.0001
     45  N        265.1740  192.7260  245.6190 N.am   70  LEU70      -0.1980
     46  CA       266.5010  192.8060  245.0220 C.3    70  LEU70       0.1596
     47  C        267.1370  194.1720  245.2220 C.2    70  LEU70       0.2287
     48  O        268.3660  194.2770  245.3060 O.2    70  LEU70      -0.2864
     49  CB       266.4400  192.4590  243.5380 C.3    70  LEU70       0.0297
     50  CG       266.1050  190.9990  243.2580 C.3    70  LEU70       0.0022
     51  CD1      266.0270  190.7610  241.7740 C.3    70  LEU70       0.0001
     52  CD2      267.1450  190.1090  243.8810 C.3    70  LEU70       0.0001
     53  N        247.6090  186.5090  222.2470 N.3   117  ALA117     -0.1245
     54  CA       247.7430  185.4090  223.1880 C.3   117  ALA117      0.1562
     55  C        246.3840  184.8410  223.5660 C.2   117  ALA117      0.2260
     56  O        246.1100  183.6590  223.3490 O.2   117  ALA117     -0.2867
     57  CB       248.4900  185.8770  224.4320 C.3   117  ALA117      0.0290
     58  N        249.7910  179.4430  211.2160 N.3   136  PHE136     -0.1241
     59  CA       250.3360  180.5700  211.9620 C.3   136  PHE136      0.1605
     60  C        251.8340  180.3520  212.1040 C.2   136  PHE136      0.2264
     61  O        252.2700  179.6350  213.0080 O.2   136  PHE136     -0.2867
     62  CB       249.6400  180.6410  213.3080 C.3   136  PHE136      0.0534
     63  CG       250.2110  181.6320  214.2460 C.ar  136  PHE136     -0.0203
     64  CD1      249.9640  182.9670  214.0800 C.ar  136  PHE136     -0.0042
     65  CD2      250.9250  181.2220  215.3420 C.ar  136  PHE136     -0.0042
     66  CE1      250.4600  183.8750  214.9520 C.ar  136  PHE136     -0.0003
     67  CE2      251.4230  182.1340  216.2250 C.ar  136  PHE136     -0.0003
     68  CZ       251.1880  183.4650  216.0290 C.ar  136  PHE136     -0.0000
     69  N        253.9520  177.6850  213.8130 N.3   139  LEU139     -0.1245
     70  CA       253.9380  177.3590  215.2310 C.3   139  LEU139      0.1561
     71  C        252.8100  176.4220  215.6270 C.2   139  LEU139      0.2260
     72  O        252.8940  175.8090  216.6940 O.2   139  LEU139     -0.2867
     73  CB       253.8340  178.6330  216.0690 C.3   139  LEU139      0.0270
     74  CG       255.1150  179.3320  216.5240 C.3   139  LEU139      0.0019
     75  CD1      255.9390  179.7890  215.3580 C.3   139  LEU139      0.0001
     76  CD2      254.7590  180.5210  217.3820 C.3   139  LEU139      0.0001
     77  N        253.1750  172.8200  217.3840 N.3   142  VAL142     -0.1231
     78  CA       253.4380  172.7740  218.8550 C.3   142  VAL142      0.1692
     79  C        252.3600  173.5650  219.6080 C.2   142  VAL142      0.2591
     80  O        252.3370  173.4820  220.8500 O.2   142  VAL142     -0.2718
     81  CB       254.8430  173.3100  219.1860 C.3   142  VAL142      0.0266
     82  CG1      254.7750  174.6860  219.8310 C.3   142  VAL142      0.0020
     83  CG2      255.6210  172.3430  220.0640 C.3   142  VAL142      0.0020
     84  N        251.5110  174.3050  218.8890 N.am  143  LEU143     -0.1980
     85  CA       250.4570  175.1360  219.5360 C.3   143  LEU143      0.1596
     86  C        249.0800  174.4740  219.4060 C.2   143  LEU143      0.2287
     87  O        248.0830  175.1300  219.7580 O.2   143  LEU143     -0.2864
     88  CB       250.4560  176.5260  218.8930 C.3   143  LEU143      0.0297
     89  CG       251.3670  177.5540  219.5610 C.3   143  LEU143      0.0022
     90  CD1      251.0090  178.9640  219.1200 C.3   143  LEU143      0.0001
     91  CD2      251.2950  177.4330  221.0740 C.3   143  LEU143      0.0001
     92  N        255.9810  172.7790  223.2740 N.3   156  PHE156     -0.1227
     93  CA       256.4290  173.9430  224.0260 C.3   156  PHE156      0.1736
     94  C        255.9500  173.8880  225.4680 C.2   156  PHE156      0.2595
     95  O        256.7470  173.6890  226.3890 O.2   156  PHE156     -0.2718
     96  CB       255.9390  175.2270  223.3720 C.3   156  PHE156      0.0547
     97  CG       256.4380  176.4620  224.0430 C.ar  156  PHE156     -0.0202
     98  CD1      257.6700  176.9790  223.7180 C.ar  156  PHE156     -0.0042
     99  CD2      255.6970  177.0900  225.0120 C.ar  156  PHE156     -0.0042
    100  CE1      258.1430  178.1070  224.3270 C.ar  156  PHE156     -0.0003
    101  CE2      256.1690  178.2170  225.6240 C.ar  156  PHE156     -0.0003
    102  CZ       257.3950  178.7250  225.2800 C.ar  156  PHE156     -0.0000
    103  N        254.6380  174.0460  225.6770 N.am  157  PHE157     -0.1976
    104  CA       254.1300  174.3790  227.0030 C.3   157  PHE157      0.1639
    105  C        254.6330  173.4180  228.0610 C.2   157  PHE157      0.2290
    106  O        254.9430  173.8310  229.1810 O.2   157  PHE157     -0.2864
    107  CB       252.6080  174.4270  227.0080 C.3   157  PHE157      0.0560
    108  CG       252.0560  175.5720  226.2440 C.ar  157  PHE157     -0.0200
    109  CD1      252.1350  176.8450  226.7600 C.ar  157  PHE157     -0.0042
    110  CD2      251.4360  175.3830  225.0370 C.ar  157  PHE157     -0.0042
    111  CE1      251.6390  177.9080  226.0710 C.ar  157  PHE157     -0.0003
    112  CE2      250.9330  176.4470  224.3480 C.ar  157  PHE157     -0.0003
    113  CZ       251.0360  177.7110  224.8670 C.ar  157  PHE157     -0.0000
@<TRIPOS>BOND
     1    58    59    1
     2    59    60    1
     3    59    62    1
     4    60    61    2
     5    62    63    1
     6    69    70    1
     7    64    63   ar
     8    64    66   ar
     9    63    65   ar
    10    66    68   ar
    11    70    71    1
    12    70    73    1
    13    65    67   ar
    14    75    74    1
    15    71    72    2
    16    68    67   ar
    17    73    74    1
    18    74    76    1
    19    77    78    1
    20    78    81    1
    21    78    79    1
    22    84    85    1
    23    84    79   am
    24    88    85    1
    25    88    89    1
    26    90    89    1
    27    81    82    1
    28    81    83    1
    29    86    85    1
    30    86    87    2
    31    89    91    1
    32    79    80    2
    33    53    54    1
    34    54    55    1
    35    54    57    1
    36    92    93    1
    37    56    55    2
    38    96    93    1
    39    96    97    1
    40    98    97   ar
    41    98   100   ar
    42    93    94    1
    43    97    99   ar
    44   100   102   ar
    45   112   113   ar
    46   112   110   ar
    47   113   111   ar
    48    99   101   ar
    49   110   108   ar
    50   102   101   ar
    51    94   103   am
    52    94    95    2
    53   103   104    1
    54   111   109   ar
    55   108   109   ar
    56   108   107    1
    57   104   107    1
    58   104   105    1
    59   105   106    2
    60    15    14    1
    61    14    16    1
    62    14    13    1
    63    13    10    1
    64    10    11    1
    65    10     9    1
    66    12    11    2
    67     9     3   am
    68     7     8    1
    69     7     6    1
    70     3     4    2
    71     3     2    1
    72     5     2    1
    73     5     6    1
    74     1     2    1
    75    21    18    1
    76    19    20    2
    77    19    18    1
    78    51    50    1
    79    36    34    1
    80    34    35    1
    81    34    31    1
    82    18    17    1
    83    50    49    1
    84    50    52    1
    85    32    31    1
    86    32    33    2
    87    31    30    1
    88    49    46    1
    89    30    24   am
    90    22    23    1
    91    46    47    1
    92    46    45    1
    93    24    23    1
    94    24    25    2
    95    47    48    2
    96    23    26    1
    97    45    39   am
    98    26    27    1
    99    26    28    1
   100    37    38    1
   101    39    38    1
   102    39    40    2
   103    27    29    1
   104    38    41    1
   105    41    43    1
   106    41    42    1
   107    42    44    1
