@<TRIPOS>MOLECULE
tmp/6igzR10.pdb
 98 93 0 0 0
SMALL
GASTEIGER

@<TRIPOS>ATOM
      1  N        194.9650  218.0380  143.7240 N.3    30  ILE30      -0.1245
      2  CA       193.7390  218.5150  144.3520 C.3    30  ILE30       0.1561
      3  C        192.5210  217.7650  143.8260 C.2    30  ILE30       0.2260
      4  O        191.6320  217.3890  144.5940 O.2    30  ILE30      -0.2867
      5  CB       193.5950  220.0320  144.1540 C.3    30  ILE30       0.0252
      6  CG1      194.7120  220.7680  144.8830 C.3    30  ILE30       0.0019
      7  CG2      192.2550  220.5090  144.6710 C.3    30  ILE30       0.0019
      8  CD1      194.7410  222.2440  144.6080 C.3    30  ILE30       0.0001
      9  N        184.8780  216.0670  143.1030 N.3    36  ASN36      -0.1240
     10  CA       185.3950  217.4060  143.3390 C.3    36  ASN36       0.1653
     11  C        185.9650  218.0180  142.0680 C.2    36  ASN36       0.2266
     12  O        185.8010  219.2180  141.8330 O.2    36  ASN36      -0.2867
     13  CB       186.4490  217.3720  144.4350 C.3    36  ASN36       0.1155
     14  CG       186.7820  218.7390  144.9350 C.2    36  ASN36       0.2627
     15  OD1      185.9580  219.6460  144.8710 O.2    36  ASN36      -0.2716
     16  ND2      187.9860  218.9020  145.4550 N.am   36  ASN36      -0.0877
     17  N        183.6060  219.9720  140.0890 N.3    39  ARG39      -0.1231
     18  CA       183.4480  221.3930  140.3660 C.3    39  ARG39       0.1694
     19  C        184.5830  222.2120  139.7750 C.2    39  ARG39       0.2591
     20  O        184.3470  223.2320  139.1230 O.2    39  ARG39      -0.2718
     21  CB       183.3590  221.6530  141.8650 C.3    39  ARG39       0.0321
     22  CG       183.2930  223.1340  142.1520 C.3    39  ARG39       0.0489
     23  CD       183.1100  223.4620  143.6080 C.3    39  ARG39       0.2205
     24  NE       183.0360  224.9080  143.7920 N.pl3  39  ARG39      -0.0865
     25  CZ       182.6460  225.5030  144.9130 C.cat  39  ARG39       0.5346
     26  NH1      182.2820  224.7730  145.9580 N.pl3  39  ARG39       0.1354
     27  NH2      182.6100  226.8260  144.9860 N.pl3  39  ARG39       0.1354
     28  N        185.8230  221.7880  139.9870 N.am   40  MET40      -0.1979
     29  CA       186.9410  222.6310  139.5950 C.3    40  MET40       0.1605
     30  C        187.0970  222.7630  138.0910 C.2    40  MET40       0.2287
     31  O        187.8640  223.6190  137.6470 O.2    40  MET40      -0.2864
     32  CB       188.2220  222.0970  140.2100 C.3    40  MET40       0.0413
     33  CG       188.2450  222.2810  141.7000 C.3    40  MET40       0.0598
     34  SD       189.6840  221.5380  142.4530 S.3    40  MET40      -0.1393
     35  CE       189.1910  219.8260  142.3470 C.3    40  MET40       0.0692
     36  N        185.0420  226.0540  137.8380 N.3    43  CYS43      -0.1221
     37  CA       185.6390  227.1650  138.5670 C.3    43  CYS43       0.1808
     38  C        186.7590  227.7990  137.7660 C.2    43  CYS43       0.2601
     39  O        186.9320  229.0220  137.7900 O.2    43  CYS43      -0.2717
     40  CB       186.1520  226.6980  139.9240 C.3    43  CYS43       0.0970
     41  SG       184.8610  226.1650  141.0610 S.3    43  CYS43      -0.0800
     42  N        187.5170  226.9850  137.0320 N.am   44  GLU44      -0.1979
     43  CA       188.5680  227.5240  136.1790 C.3    44  GLU44       0.1602
     44  C        187.9890  228.4100  135.0920 C.2    44  GLU44       0.2287
     45  O        188.2490  229.6160  135.0430 O.2    44  GLU44      -0.2864
     46  CB       189.3660  226.3890  135.5490 C.3    44  GLU44       0.0415
     47  CG       190.4760  226.8760  134.6590 C.3    44  GLU44       0.1163
     48  CD       191.2860  225.7460  134.0870 C.2    44  GLU44       0.3649
     49  OE1      190.9110  224.5820  134.3170 O.co2  44  GLU44      -0.2457
     50  OE2      192.3090  226.0130  133.4260 O.co2  44  GLU44      -0.2457
     51  N        186.5260  231.6220  136.0700 N.3    47  ASN47      -0.1240
     52  CA       187.5190  232.5900  136.5170 C.3    47  ASN47       0.1653
     53  C        188.2050  233.2460  135.3300 C.2    47  ASN47       0.2266
     54  O        188.3030  234.4760  135.2560 O.2    47  ASN47      -0.2867
     55  CB       188.5460  231.9230  137.4280 C.3    47  ASN47       0.1155
     56  CG       188.0190  231.6870  138.8180 C.2    47  ASN47       0.2627
     57  OD1      187.0940  232.3570  139.2600 O.2    47  ASN47      -0.2716
     58  ND2      188.6180  230.7440  139.5250 N.am   47  ASN47      -0.0877
     59  N        186.4890  236.1260  133.2360 N.3    50  TRP50      -0.1241
     60  CA       186.5660  237.4150  133.9030 C.3    50  TRP50       0.1605
     61  C        187.9900  237.8900  134.0930 C.2    50  TRP50       0.2264
     62  O        188.1950  239.0540  134.4400 O.2    50  TRP50      -0.2867
     63  CB       185.8060  237.3250  135.2100 C.3    50  TRP50       0.0550
     64  CG       184.3930  237.5140  134.9330 C.ar   50  TRP50       0.0003
     65  CD1      183.8600  238.3510  134.0100 C.ar   50  TRP50       0.0946
     66  CD2      183.3240  236.7070  135.3980 C.ar   50  TRP50       0.0152
     67  NE1      182.5030  238.2080  133.9640 N.ar   50  TRP50      -0.2442
     68  CE2      182.1540  237.1890  134.8040 C.ar   50  TRP50       0.0810
     69  CE3      183.2330  235.6570  136.2970 C.ar   50  TRP50       0.0012
     70  CZ2      180.9170  236.6520  135.0710 C.ar   50  TRP50       0.0191
     71  CZ3      181.9990  235.1290  136.5670 C.ar   50  TRP50       0.0001
     72  CH2      180.8590  235.6230  135.9560 C.ar   50  TRP50       0.0015
     73  N        194.3570  234.6790  132.9930 N.3   153  MET153     -0.1245
     74  CA       194.4710  234.6750  134.4450 C.3   153  MET153      0.1570
     75  C        195.9050  234.9400  134.8630 C.2   153  MET153      0.2261
     76  O        196.1940  235.8720  135.6180 O.2   153  MET153     -0.2867
     77  CB       194.0560  233.3220  135.0040 C.3   153  MET153      0.0387
     78  CG       192.6910  232.8220  134.6950 C.3   153  MET153      0.0595
     79  SD       192.7090  231.1860  135.4270 S.3   153  MET153     -0.1393
     80  CE       191.1420  230.5170  134.9450 C.3   153  MET153      0.0692
     81  N        196.8570  238.3330  134.5830 N.3   156  PHE156     -0.1227
     82  CA       196.2910  239.2170  135.5950 C.3   156  PHE156      0.1736
     83  C        197.2060  239.3450  136.8000 C.2   156  PHE156      0.2595
     84  O        197.3550  240.4350  137.3600 O.2   156  PHE156     -0.2718
     85  CB       194.9240  238.6980  136.0290 C.3   156  PHE156      0.0547
     86  CG       194.2800  239.5130  137.1030 C.ar  156  PHE156     -0.0202
     87  CD1      193.5480  240.6400  136.7870 C.ar  156  PHE156     -0.0042
     88  CD2      194.4080  239.1590  138.4290 C.ar  156  PHE156     -0.0042
     89  CE1      192.9510  241.3920  137.7750 C.ar  156  PHE156     -0.0003
     90  CE2      193.8150  239.9090  139.4210 C.ar  156  PHE156     -0.0003
     91  CZ       193.0870  241.0260  139.0930 C.ar  156  PHE156     -0.0000
     92  N        197.8220  238.2400  137.2200 N.am  157  VAL157     -0.1980
     93  CA       198.7320  238.2950  138.3590 C.3   157  VAL157      0.1595
     94  C        199.8890  239.2250  138.0510 C.2   157  VAL157      0.2287
     95  O        200.3570  239.9730  138.9170 O.2   157  VAL157     -0.2864
     96  CB       199.2340  236.8860  138.7160 C.3   157  VAL157      0.0276
     97  CG1      200.1050  236.9430  139.9520 C.3   157  VAL157      0.0022
     98  CG2      198.0800  235.9430  138.8940 C.3   157  VAL157      0.0022
@<TRIPOS>BOND
     1    73    74    1
     2    59    60    1
     3    50    48   ar
     4    60    61    1
     5    60    63    1
     6    67    65   ar
     7    67    68   ar
     8    65    64   ar
     9    48    49   ar
    10    48    47    1
    11    61    62    2
    12    74    75    1
    13    74    77    1
    14    81    82    1
    15    47    46    1
    16    78    77    1
    17    78    79    1
    18    68    70   ar
    19    68    66   ar
    20    75    76    2
    21    64    63    1
    22    64    66   ar
    23    80    79    1
    24    45    44    2
    25    70    72   ar
    26    44    43    1
    27    54    53    2
    28    53    52    1
    29    66    69   ar
    30    46    43    1
    31    82    85    1
    32    82    83    1
    33    72    71   ar
    34    85    86    1
    35    51    52    1
    36    43    42    1
    37    69    71   ar
    38    52    55    1
    39    87    86   ar
    40    87    89   ar
    41    83    92   am
    42    83    84    2
    43    42    38   am
    44    86    88   ar
    45    92    93    1
    46    55    56    1
    47    31    30    2
    48    38    39    2
    49    38    37    1
    50    89    91   ar
    51    36    37    1
    52    94    93    1
    53    94    95    2
    54    30    29    1
    55    93    96    1
    56    88    90   ar
    57    37    40    1
    58    96    98    1
    59    96    97    1
    60    56    57    2
    61    56    58   am
    62    91    90   ar
    63    20    19    2
    64    29    28    1
    65    29    32    1
    66    19    28   am
    67    19    18    1
    68    40    41    1
    69    17    18    1
    70    32    33    1
    71    18    21    1
    72    33    34    1
    73    12    11    2
    74    21    22    1
    75    11    10    1
    76    22    23    1
    77    35    34    1
    78     9    10    1
    79    10    13    1
    80    23    24    1
    81     1     2    1
    82    24    25    2
    83     3     2    1
    84     3     4    2
    85     5     2    1
    86     5     7    1
    87     5     6    1
    88    13    14    1
    89     8     6    1
    90    15    14    2
    91    25    27    1
    92    25    26    1
    93    14    16   am
