@<TRIPOS>MOLECULE
tmp/6igzN15.pdb
 102 98 0 0 0
SMALL
GASTEIGER

@<TRIPOS>ATOM
      1  N        240.1010  203.0780  193.7720 N.3    49  TRP49      -0.1241
      2  CA       240.3220  204.4810  194.0970 C.3    49  TRP49       0.1605
      3  C        241.3090  204.6410  195.2340 C.2    49  TRP49       0.2264
      4  O        242.0590  205.6190  195.2660 O.2    49  TRP49      -0.2867
      5  CB       239.0230  205.1760  194.4680 C.3    49  TRP49       0.0550
      6  CG       238.1350  205.3880  193.3230 C.ar   49  TRP49       0.0003
      7  CD1      237.0400  204.6670  192.9990 C.ar   49  TRP49       0.0946
      8  CD2      238.2840  206.3730  192.3060 C.ar   49  TRP49       0.0152
      9  NE1      236.4760  205.1510  191.8550 N.ar   49  TRP49      -0.2442
     10  CE2      237.2270  206.2020  191.4070 C.ar   49  TRP49       0.0810
     11  CE3      239.2100  207.3900  192.0710 C.ar   49  TRP49       0.0012
     12  CZ2      237.0660  207.0050  190.2900 C.ar   49  TRP49       0.0191
     13  CZ3      239.0510  208.1850  190.9640 C.ar   49  TRP49       0.0001
     14  CH2      237.9880  207.9900  190.0870 C.ar   49  TRP49       0.0015
     15  N        246.0260  220.8110  199.1990 N.3    76  ALA76      -0.1231
     16  CA       246.3070  220.9010  197.7770 C.3    76  ALA76       0.1694
     17  C        245.1020  221.3890  197.0000 C.2    76  ALA76       0.2592
     18  O        245.2520  221.8330  195.8600 O.2    76  ALA76      -0.2718
     19  CB       246.7500  219.5490  197.2230 C.3    76  ALA76       0.0304
     20  N        243.9160  221.3230  197.5990 N.am   77  GLY77      -0.1957
     21  CA       242.7530  221.9050  196.9610 C.3    77  GLY77       0.1869
     22  C        242.8720  223.4100  196.8450 C.2    77  GLY77       0.2309
     23  O        242.6930  223.9750  195.7640 O.2    77  GLY77      -0.2863
     24  N        245.7230  224.9390  194.3490 N.3    80  TYR80      -0.1227
     25  CA       245.4000  224.9950  192.9340 C.3    80  TYR80       0.1736
     26  C        244.4940  226.1790  192.6320 C.2    80  TYR80       0.2595
     27  O        244.7890  226.9860  191.7440 O.2    80  TYR80      -0.2718
     28  CB       244.7520  223.7000  192.4680 C.3    80  TYR80       0.0548
     29  CG       244.4530  223.7780  191.0020 C.ar   80  TYR80      -0.0200
     30  CD1      245.4400  223.5420  190.0700 C.ar   80  TYR80      -0.0009
     31  CD2      243.2060  224.1590  190.5510 C.ar   80  TYR80      -0.0009
     32  CE1      245.1820  223.6380  188.7370 C.ar   80  TYR80       0.0417
     33  CE2      242.9430  224.2610  189.2220 C.ar   80  TYR80       0.0417
     34  CZ       243.9320  224.0040  188.3200 C.ar   80  TYR80       0.1957
     35  OH       243.6660  224.1090  186.9810 O.3    80  TYR80      -0.2866
     36  N        243.3780  226.3020  193.3540 N.am   81  ILE81      -0.1980
     37  CA       242.4820  227.4260  193.0980 C.3    81  ILE81       0.1595
     38  C        242.9510  228.7020  193.7720 C.2    81  ILE81       0.2287
     39  O        242.3690  229.7660  193.5330 O.2    81  ILE81      -0.2864
     40  CB       241.0370  227.1230  193.5270 C.3    81  ILE81       0.0276
     41  CG1      240.9480  226.9420  195.0360 C.3    81  ILE81       0.0022
     42  CG2      240.5410  225.8930  192.8190 C.3    81  ILE81       0.0022
     43  CD1      240.3810  228.1450  195.7740 C.3    81  ILE81       0.0001
     44  N        241.1690  229.0290  186.3510 N.3    86  ILE86      -0.1245
     45  CA       239.8250  228.6000  185.9640 C.3    86  ILE86       0.1561
     46  C        238.9810  228.5350  187.2330 C.2    86  ILE86       0.2260
     47  O        239.4890  228.1590  188.2980 O.2    86  ILE86      -0.2867
     48  CB       239.8310  227.2580  185.2110 C.3    86  ILE86       0.0252
     49  CG1      240.3310  226.1230  186.0910 C.3    86  ILE86       0.0019
     50  CG2      240.6550  227.3390  183.9410 C.3    86  ILE86       0.0019
     51  CD1      239.2270  225.2740  186.6190 C.3    86  ILE86       0.0001
     52  N        236.2370  227.6610  190.2780 N.3    88  PHE88      -0.1241
     53  CA       235.9340  226.4220  190.9820 C.3    88  PHE88       0.1605
     54  C        234.6770  225.7700  190.4310 C.2    88  PHE88       0.2264
     55  O        234.6200  224.5440  190.2840 O.2    88  PHE88      -0.2867
     56  CB       235.7800  226.7020  192.4720 C.3    88  PHE88       0.0534
     57  CG       235.3730  225.5060  193.2800 C.ar   88  PHE88      -0.0203
     58  CD1      236.3090  224.5820  193.6940 C.ar   88  PHE88      -0.0042
     59  CD2      234.0510  225.3180  193.6420 C.ar   88  PHE88      -0.0042
     60  CE1      235.9310  223.4920  194.4480 C.ar   88  PHE88      -0.0003
     61  CE2      233.6720  224.2300  194.3930 C.ar   88  PHE88      -0.0003
     62  CZ       234.6100  223.3170  194.7950 C.ar   88  PHE88      -0.0000
     63  N        235.0880  223.7410  187.2530 N.3    91  LEU91      -0.1245
     64  CA       235.8310  222.5020  187.4390 C.3    91  LEU91       0.1561
     65  C        234.9550  221.4330  188.0670 C.2    91  LEU91       0.2260
     66  O        234.8830  220.3080  187.5660 O.2    91  LEU91      -0.2867
     67  CB       237.0600  222.7580  188.3050 C.3    91  LEU91       0.0270
     68  CG       238.1440  221.6900  188.3390 C.3    91  LEU91       0.0019
     69  CD1      239.4540  222.3670  188.6270 C.3    91  LEU91       0.0001
     70  CD2      237.8710  220.6180  189.3690 C.3    91  LEU91       0.0001
     71  N        232.3940  220.2440  185.6190 N.3    94  THR94      -0.1203
     72  CA       232.9070  219.3670  184.5790 C.3    94  THR94       0.1994
     73  C        233.1440  217.9700  185.1180 C.2    94  THR94       0.2617
     74  O        232.9710  216.9910  184.3910 O.2    94  THR94      -0.2717
     75  CB       234.1960  219.9430  184.0070 C.3    94  THR94       0.1784
     76  OG1      233.9300  221.2520  183.4950 O.3    94  THR94      -0.2211
     77  CG2      234.6950  219.0810  182.8860 C.3    94  THR94       0.0376
     78  N        233.5380  217.8690  186.3830 N.am   95  GLN95      -0.1979
     79  CA       233.5170  216.6170  187.1220 C.3    95  GLN95       0.1601
     80  C        232.1910  215.9140  186.9020 C.2    95  GLN95       0.2287
     81  O        232.1160  214.9310  186.1640 O.2    95  GLN95      -0.2864
     82  CB       233.6880  216.8950  188.6130 C.3    95  GLN95       0.0394
     83  CG       233.6650  215.7000  189.5180 C.3    95  GLN95       0.0908
     84  CD       234.9730  215.0220  189.5860 C.2    95  GLN95       0.2608
     85  OE1      235.2150  214.0380  188.9030 O.2    95  GLN95      -0.2717
     86  NE2      235.8440  215.5340  190.4350 N.am   95  GLN95      -0.0878
     87  N        231.5590  214.8640  183.1330 N.3    98  MET98      -0.1230
     88  CA       232.3530  213.7610  182.6090 C.3    98  MET98       0.1702
     89  C        232.3240  212.5700  183.5520 C.2    98  MET98       0.2592
     90  O        232.1390  211.4290  183.1200 O.2    98  MET98      -0.2718
     91  CB       233.7940  214.2000  182.3640 C.3    98  MET98       0.0401
     92  CG       233.9570  215.2840  181.3310 C.3    98  MET98       0.0596
     93  SD       235.6730  215.4470  180.8180 S.3    98  MET98      -0.1393
     94  CE       236.4220  216.0840  182.3020 C.3    98  MET98       0.0692
     95  N        232.5170  212.8110  184.8460 N.am   99  MET99      -0.1979
     96  CA       232.5830  211.7020  185.7880 C.3    99  MET99       0.1605
     97  C        231.2580  210.9690  185.8650 C.2    99  MET99       0.2287
     98  O        231.2170  209.7390  185.8150 O.2    99  MET99      -0.2864
     99  CB       232.9890  212.2000  187.1660 C.3    99  MET99       0.0413
    100  CG       233.0290  211.1170  188.1860 C.3    99  MET99       0.0598
    101  SD       234.3280  209.9530  187.8270 S.3    99  MET99      -0.1393
    102  CE       234.0850  208.8060  189.1640 C.3    99  MET99       0.0692
@<TRIPOS>BOND
     1    93    92    1
     2    93    94    1
     3    92    91    1
     4    91    88    1
     5    88    87    1
     6    88    89    1
     7    77    75    1
     8    90    89    2
     9    76    75    1
    10    89    95   am
    11    50    48    1
    12    75    72    1
    13    74    73    2
    14    72    73    1
    15    72    71    1
    16    95    96    1
    17    73    78   am
    18    48    45    1
    19    48    49    1
    20    96    97    1
    21    96    99    1
    22    98    97    2
    23    45    44    1
    24    45    46    1
    25    49    51    1
    26    81    80    2
    27    78    79    1
    28    80    79    1
    29    35    34    1
    30    79    82    1
    31    99   100    1
    32    46    47    2
    33    63    64    1
    34    64    65    1
    35    64    67    1
    36    66    65    2
    37   101   100    1
    38   101   102    1
    39    67    68    1
    40    34    32   ar
    41    34    33   ar
    42    68    69    1
    43    68    70    1
    44    82    83    1
    45    32    30   ar
    46    85    84    2
    47    33    31   ar
    48    83    84    1
    49    84    86   am
    50    30    29   ar
    51    14    12   ar
    52    14    13   ar
    53    52    53    1
    54    55    54    2
    55    12    10   ar
    56    54    53    1
    57    31    29   ar
    58    13    11   ar
    59    53    56    1
    60    29    28    1
    61    10     9   ar
    62    10     8   ar
    63    27    26    2
    64     9     7   ar
    65    11     8   ar
    66     8     6   ar
    67    28    25    1
    68    56    57    1
    69    26    25    1
    70    26    36   am
    71    42    40    1
    72    25    24    1
    73     7     6   ar
    74    37    36    1
    75    37    40    1
    76    37    38    1
    77    57    59   ar
    78    57    58   ar
    79     6     5    1
    80    40    41    1
    81    39    38    2
    82    59    61   ar
    83    58    60   ar
    84     1     2    1
    85     2     5    1
    86     2     3    1
    87    61    62   ar
    88    60    62   ar
    89    41    43    1
    90     3     4    2
    91    23    22    2
    92    18    17    2
    93    22    21    1
    94    21    20    1
    95    17    20   am
    96    17    16    1
    97    19    16    1
    98    16    15    1
