@<TRIPOS>MOLECULE
tmp/6igzK05.pdb
 93 87 0 0 0
SMALL
GASTEIGER

@<TRIPOS>ATOM
      1  N        229.3240  187.7570  272.4380 N.3    14  THR14      -0.1218
      2  CA       229.3040  186.8600  271.2910 C.3    14  THR14       0.1862
      3  C        229.7300  185.4590  271.7000 C.2    14  THR14       0.2287
      4  O        229.0170  184.4780  271.4580 O.2    14  THR14      -0.2866
      5  CB       230.2120  187.4090  270.2010 C.3    14  THR14       0.1770
      6  OG1      231.5610  187.4130  270.6710 O.3    14  THR14      -0.2211
      7  CG2      229.8220  188.8270  269.9120 C.3    14  THR14       0.0375
      8  N        227.1910  181.9320  271.2940 N.3    18  LEU18      -0.1231
      9  CA       227.4770  180.6020  270.7880 C.3    18  LEU18       0.1693
     10  C        228.0740  179.6900  271.8430 C.2    18  LEU18       0.2591
     11  O        228.3790  178.5370  271.5310 O.2    18  LEU18      -0.2718
     12  CB       228.3990  180.6820  269.5670 C.3    18  LEU18       0.0284
     13  CG       229.7380  181.4150  269.6240 C.3    18  LEU18       0.0019
     14  CD1      230.7940  180.6210  270.3350 C.3    18  LEU18       0.0001
     15  CD2      230.1960  181.7010  268.2170 C.3    18  LEU18       0.0001
     16  N        228.2630  180.1790  273.0670 N.am   19  ALA19      -0.1980
     17  CA       228.7630  179.3430  274.1480 C.3    19  ALA19       0.1597
     18  C        227.8870  178.1170  274.2860 C.2    19  ALA19       0.2287
     19  O        228.3040  177.0030  273.9620 O.2    19  ALA19      -0.2864
     20  CB       228.7850  180.1060  275.4690 C.3    19  ALA19       0.0319
     21  N        226.0500  176.1200  271.3070 N.3    22  ARG22      -0.1245
     22  CA       226.4650  174.7310  271.1910 C.3    22  ARG22       0.1563
     23  C        225.3250  173.7910  271.5430 C.2    22  ARG22       0.2260
     24  O        224.9880  172.8900  270.7700 O.2    22  ARG22      -0.2867
     25  CB       227.6570  174.4940  272.1180 C.3    22  ARG22       0.0307
     26  CG       228.1490  173.0750  272.1980 C.3    22  ARG22       0.0489
     27  CD       228.7770  172.6250  270.9080 C.3    22  ARG22       0.2205
     28  NE       229.2090  171.2400  271.0060 N.pl3  22  ARG22      -0.0865
     29  CZ       228.4120  170.2070  270.7700 C.cat  22  ARG22       0.5346
     30  NH1      228.8690  168.9750  270.8900 N.pl3  22  ARG22       0.1354
     31  NH2      227.1510  170.4070  270.4170 N.pl3  22  ARG22       0.1354
     32  N        226.9490  170.4790  265.3200 N.3    54  PHE54      -0.1241
     33  CA       227.1580  171.9200  265.3670 C.3    54  PHE54       0.1605
     34  C        227.8610  172.3380  264.0840 C.2    54  PHE54       0.2264
     35  O        229.0550  172.0790  263.9110 O.2    54  PHE54      -0.2867
     36  CB       227.9560  172.3130  266.6030 C.3    54  PHE54       0.0534
     37  CG       228.1230  173.7860  266.7710 C.ar   54  PHE54      -0.0203
     38  CD1      227.1300  174.5420  267.3550 C.ar   54  PHE54      -0.0042
     39  CD2      229.2660  174.4150  266.3430 C.ar   54  PHE54      -0.0042
     40  CE1      227.2820  175.8880  267.5140 C.ar   54  PHE54      -0.0003
     41  CE2      229.4180  175.7610  266.5020 C.ar   54  PHE54      -0.0003
     42  CZ       228.4250  176.4960  267.0880 C.ar   54  PHE54      -0.0000
     43  N        228.1790  179.0120  263.6130 N.3    59  VAL59      -0.1231
     44  CA       229.1630  179.9390  264.1560 C.3    59  VAL59       0.1692
     45  C        228.8770  181.3560  263.6820 C.2    59  VAL59       0.2591
     46  O        228.7590  182.2850  264.4880 O.2    59  VAL59      -0.2718
     47  CB       230.5820  179.5060  263.7640 C.3    59  VAL59       0.0266
     48  CG1      231.5760  180.5230  264.2630 C.3    59  VAL59       0.0020
     49  CG2      230.8830  178.1420  264.3180 C.3    59  VAL59       0.0020
     50  N        228.7720  181.5430  262.3650 N.am   60  LEU60      -0.1980
     51  CA       228.5670  182.8800  261.8220 C.3    60  LEU60       0.1596
     52  C        227.2640  183.4810  262.3140 C.2    60  LEU60       0.2287
     53  O        227.2030  184.6740  262.6230 O.2    60  LEU60      -0.2864
     54  CB       228.5870  182.8430  260.2980 C.3    60  LEU60       0.0297
     55  CG       229.9070  182.4180  259.6640 C.3    60  LEU60       0.0022
     56  CD1      229.7990  182.4170  258.1530 C.3    60  LEU60       0.0001
     57  CD2      231.0240  183.3180  260.1180 C.3    60  LEU60       0.0001
     58  N        227.5780  184.2800  266.3380 N.3    63  GLY63      -0.1210
     59  CA       228.5180  185.3620  266.5550 C.3    63  GLY63       0.1956
     60  C        227.9910  186.6830  266.0370 C.2    63  GLY63       0.2612
     61  O        227.9660  187.6840  266.7560 O.2    63  GLY63      -0.2717
     62  N        227.5440  186.6960  264.7820 N.am   64  SER64      -0.1952
     63  CA       227.0720  187.9340  264.1750 C.3    64  SER64       0.1924
     64  C        225.8830  188.5000  264.9300 C.2    64  SER64       0.2314
     65  O        225.7910  189.7120  265.1400 O.2    64  SER64      -0.2863
     66  CB       226.7110  187.6840  262.7200 C.3    64  SER64       0.2116
     67  OG       225.6780  186.7230  262.6410 O.3    64  SER64      -0.2180
     68  N        227.0030  190.2450  268.1840 N.3    67  HIS67      -0.1226
     69  CA       227.5700  191.5870  268.1620 C.3    67  HIS67       0.1752
     70  C        226.5160  192.6780  268.2290 C.2    67  HIS67       0.2595
     71  O        226.8030  193.7680  268.7320 O.2    67  HIS67      -0.2718
     72  CB       228.4470  191.7690  266.9290 C.3    67  HIS67       0.0759
     73  CG       229.7770  191.1060  267.0490 C.ar   67  HIS67       0.0818
     74  ND1      229.9650  189.7610  266.8260 N.ar   67  HIS67      -0.2268
     75  CD2      230.9870  191.6030  267.3930 C.ar   67  HIS67       0.1154
     76  CE1      231.2360  189.4600  267.0230 C.ar   67  HIS67       0.1986
     77  NE2      231.8780  190.5610  267.3630 N.ar   67  HIS67      -0.2212
     78  N        225.3070  192.4200  267.7360 N.am   68  MET68      -0.1979
     79  CA       224.2240  193.3760  267.9200 C.3    68  MET68       0.1605
     80  C        224.0480  193.6900  269.3980 C.2    68  MET68       0.2287
     81  O        224.3170  194.8050  269.8540 O.2    68  MET68      -0.2864
     82  CB       222.9260  192.8150  267.3500 C.3    68  MET68       0.0413
     83  CG       222.9560  192.4440  265.8870 C.3    68  MET68       0.0598
     84  SD       221.3650  191.7240  265.4350 S.3    68  MET68      -0.1393
     85  CE       221.7090  191.1030  263.7980 C.3    68  MET68       0.0692
     86  N        227.0300  195.1990  270.8210 N.3    71  ILE71      -0.1245
     87  CA       227.0890  196.6380  270.6140 C.3    71  ILE71       0.1561
     88  C        225.9300  197.3320  271.3130 C.2    71  ILE71       0.2260
     89  O        226.1120  198.3600  271.9740 O.2    71  ILE71      -0.2867
     90  CB       227.1210  196.9480  269.1120 C.3    71  ILE71       0.0252
     91  CG1      228.4400  196.4560  268.5200 C.3    71  ILE71       0.0019
     92  CG2      226.9390  198.4170  268.8870 C.3    71  ILE71       0.0019
     93  CD1      228.4830  196.4660  267.0150 C.3    71  ILE71       0.0001
@<TRIPOS>BOND
     1    56    55    1
     2    55    57    1
     3    55    54    1
     4    54    51    1
     5    51    52    1
     6    51    50    1
     7    52    53    2
     8    50    45   am
     9    67    66    1
    10    66    63    1
    11    43    44    1
    12    45    44    1
    13    45    46    2
    14    47    44    1
    15    47    48    1
    16    47    49    1
    17    85    84    1
    18    35    34    2
    19    34    33    1
    20    63    62    1
    21    63    64    1
    22    62    60   am
    23    64    65    2
    24    32    33    1
    25    33    36    1
    26    84    83    1
    27    83    82    1
    28    60    59    1
    29    60    61    2
    30    58    59    1
    31    39    41   ar
    32    39    37   ar
    33    41    42   ar
    34    36    37    1
    35    37    38   ar
    36    74    76   ar
    37    74    73   ar
    38    72    73    1
    39    72    69    1
    40    93    91    1
    41    76    77   ar
    42    73    75   ar
    43    42    40   ar
    44    82    79    1
    45    38    40   ar
    46    77    75   ar
    47    78    79    1
    48    78    70   am
    49    79    80    1
    50    69    68    1
    51    69    70    1
    52    15    13    1
    53    70    71    2
    54    91    90    1
    55    92    90    1
    56    90    87    1
    57    80    81    2
    58    12    13    1
    59    12     9    1
    60    13    14    1
    61     7     5    1
    62     5     6    1
    63     5     2    1
    64    31    29    1
    65    87    86    1
    66    87    88    1
    67    29    30    1
    68    29    28    2
    69    24    23    2
    70     9     8    1
    71     9    10    1
    72    27    28    1
    73    27    26    1
    74    22    21    1
    75    22    23    1
    76    22    25    1
    77     2     3    1
    78     2     1    1
    79    88    89    2
    80     4     3    2
    81    11    10    2
    82    10    16   am
    83    25    26    1
    84    16    17    1
    85    19    18    2
    86    17    18    1
    87    17    20    1
