@<TRIPOS>MOLECULE
tmp/6igzO18.pdb
 95 94 0 0 0
SMALL
GASTEIGER

@<TRIPOS>ATOM
      1  N        229.0390  181.4920  232.2710 N.3    40  PHE40      -0.1227
      2  CA       230.2950  181.5410  232.9870 C.3    40  PHE40       0.1736
      3  C        230.2210  180.8380  234.3270 C.2    40  PHE40       0.2595
      4  O        231.1680  180.9200  235.1080 O.2    40  PHE40      -0.2718
      5  CB       230.7400  182.9850  233.1660 C.3    40  PHE40       0.0547
      6  CG       231.0900  183.6670  231.8830 C.ar   40  PHE40      -0.0202
      7  CD1      231.3210  182.9360  230.7400 C.ar   40  PHE40      -0.0042
      8  CD2      231.2070  185.0350  231.8240 C.ar   40  PHE40      -0.0042
      9  CE1      231.6450  183.5560  229.5670 C.ar   40  PHE40      -0.0003
     10  CE2      231.5330  185.6570  230.6490 C.ar   40  PHE40      -0.0003
     11  CZ       231.7530  184.9180  229.5220 C.ar   40  PHE40      -0.0000
     12  N        229.1040  180.1930  234.6330 N.am   41  ILE41      -0.1980
     13  CA       228.9840  179.3480  235.8130 C.3    41  ILE41       0.1595
     14  C        228.6080  177.9490  235.3530 C.2    41  ILE41       0.2287
     15  O        227.4820  177.7190  234.8940 O.2    41  ILE41      -0.2864
     16  CB       227.9610  179.8970  236.8080 C.3    41  ILE41       0.0276
     17  CG1      228.4960  181.1930  237.3990 C.3    41  ILE41       0.0022
     18  CG2      227.6850  178.8820  237.8890 C.3    41  ILE41       0.0022
     19  CD1      227.5160  181.9140  238.2220 C.3    41  ILE41       0.0001
     20  N        233.7840  175.8960  232.8570 N.3    45  TRP45      -0.1227
     21  CA       234.4140  177.2050  232.9310 C.3    45  TRP45       0.1737
     22  C        235.1130  177.4020  234.2680 C.2    45  TRP45       0.2595
     23  O        236.3270  177.6100  234.3150 O.2    45  TRP45      -0.2718
     24  CB       233.3730  178.3030  232.7100 C.3    45  TRP45       0.0564
     25  CG       233.9470  179.6550  232.6580 C.ar   45  TRP45       0.0003
     26  CD1      233.9710  180.5660  233.6520 C.ar   45  TRP45       0.0946
     27  CD2      234.5640  180.2720  231.5320 C.ar   45  TRP45       0.0152
     28  NE1      234.5810  181.7160  233.2290 N.ar   45  TRP45      -0.2442
     29  CE2      234.9500  181.5580  231.9230 C.ar   45  TRP45       0.0810
     30  CE3      234.8330  179.8580  230.2320 C.ar   45  TRP45       0.0012
     31  CZ2      235.5920  182.4310  231.0650 C.ar   45  TRP45       0.0191
     32  CZ3      235.4690  180.7260  229.3830 C.ar   45  TRP45       0.0001
     33  CH2      235.8400  181.9980  229.7990 C.ar   45  TRP45       0.0015
     34  N        234.3480  177.3470  235.3570 N.am   46  LEU46      -0.1980
     35  CA       234.8530  177.7480  236.6630 C.3    46  LEU46       0.1596
     36  C        236.1630  177.0590  237.0100 C.2    46  LEU46       0.2287
     37  O        237.0400  177.6620  237.6350 O.2    46  LEU46      -0.2864
     38  CB       233.8000  177.4590  237.7190 C.3    46  LEU46       0.0297
     39  CG       232.5490  178.2810  237.4540 C.3    46  LEU46       0.0022
     40  CD1      231.4400  177.8970  238.3950 C.3    46  LEU46       0.0001
     41  CD2      232.8700  179.7450  237.5890 C.3    46  LEU46       0.0001
     42  N        238.8440  179.0830  234.8600 N.3    49  SER49      -0.1217
     43  CA       239.2680  180.3790  235.3700 C.3    49  SER49       0.1889
     44  C        240.0150  180.2350  236.6820 C.2    49  SER49       0.2288
     45  O        240.8680  181.0670  237.0010 O.2    49  SER49      -0.2866
     46  CB       238.0740  181.3010  235.5650 C.3    49  SER49       0.2089
     47  OG       237.2440  180.8080  236.5940 O.3    49  SER49      -0.2183
     48  N        243.4500  182.1290  236.9680 N.3    53  HIS53      -0.1241
     49  CA       243.6820  183.0450  238.0770 C.3    53  HIS53       0.1621
     50  C        244.8400  182.5800  238.9300 C.2    53  HIS53       0.2264
     51  O        245.6050  183.3960  239.4490 O.2    53  HIS53      -0.2867
     52  CB       242.4470  183.1820  238.9560 C.3    53  HIS53       0.0745
     53  CG       241.3760  184.0380  238.3770 C.ar   53  HIS53       0.0817
     54  ND1      240.4610  183.5690  237.4660 N.ar   53  HIS53      -0.2268
     55  CD2      241.0510  185.3280  238.6110 C.ar   53  HIS53       0.1154
     56  CE1      239.6260  184.5400  237.1520 C.ar   53  HIS53       0.1986
     57  NE2      239.9630  185.6180  237.8320 N.ar   53  HIS53      -0.2212
     58  N        248.3660  183.4970  236.8780 N.3    56  PHE56      -0.1241
     59  CA       248.6720  184.9210  236.9690 C.3    56  PHE56       0.1605
     60  C        249.0540  185.3180  238.3840 C.2    56  PHE56       0.2264
     61  O        250.0120  186.0690  238.5920 O.2    56  PHE56      -0.2867
     62  CB       247.4940  185.7640  236.4940 C.3    56  PHE56       0.0534
     63  CG       247.3080  185.7700  235.0140 C.ar   56  PHE56      -0.0203
     64  CD1      248.0600  186.6110  234.2260 C.ar   56  PHE56      -0.0042
     65  CD2      246.3730  184.9670  234.4110 C.ar   56  PHE56      -0.0042
     66  CE1      247.8920  186.6350  232.8660 C.ar   56  PHE56      -0.0003
     67  CE2      246.2060  184.9960  233.0540 C.ar   56  PHE56      -0.0003
     68  CZ       246.9640  185.8280  232.2840 C.ar   56  PHE56      -0.0000
     69  N        246.9500  183.4630  244.9540 N.3   184  MET184     -0.1245
     70  CA       245.8960  184.4620  244.8430 C.3   184  MET184      0.1570
     71  C        245.7630  185.2410  246.1390 C.2   184  MET184      0.2261
     72  O        245.8580  186.4710  246.1540 O.2   184  MET184     -0.2867
     73  CB       244.5660  183.8050  244.5040 C.3   184  MET184      0.0387
     74  CG       244.5260  183.0170  243.2340 C.3   184  MET184      0.0595
     75  SD       242.8710  182.3370  243.0800 S.3   184  MET184     -0.1393
     76  CE       243.0630  181.2110  241.7180 C.3   184  MET184      0.0692
     77  N        248.2120  187.8490  246.5510 N.3   187  MET187     -0.1230
     78  CA       247.9000  189.0650  245.8080 C.3   187  MET187      0.1702
     79  C        246.7160  189.7950  246.4170 C.2   187  MET187      0.2592
     80  O        246.7140  191.0270  246.4980 O.2   187  MET187     -0.2718
     81  CB       247.6290  188.7410  244.3450 C.3   187  MET187      0.0401
     82  CG       248.8560  188.3710  243.5650 C.3   187  MET187      0.0596
     83  SD       250.0390  189.7190  243.5620 S.3   187  MET187     -0.1393
     84  CE       249.1080  190.9760  242.7030 C.3   187  MET187      0.0692
     85  N        245.7020  189.0560  246.8590 N.am  188  PHE188     -0.1976
     86  CA       244.5620  189.7030  247.4910 C.3   188  PHE188      0.1639
     87  C        244.9830  190.4710  248.7270 C.2   188  PHE188      0.2290
     88  O        244.3590  191.4750  249.0750 O.2   188  PHE188     -0.2864
     89  CB       243.5030  188.6730  247.8520 C.3   188  PHE188      0.0560
     90  CG       242.3010  189.2560  248.5150 C.ar  188  PHE188     -0.0200
     91  CD1      241.3390  189.8990  247.7730 C.ar  188  PHE188     -0.0042
     92  CD2      242.1190  189.1430  249.8720 C.ar  188  PHE188     -0.0042
     93  CE1      240.2290  190.4280  248.3750 C.ar  188  PHE188     -0.0003
     94  CE2      241.0090  189.6690  250.4790 C.ar  188  PHE188     -0.0003
     95  CZ       240.0630  190.3120  249.7290 C.ar  188  PHE188     -0.0000
@<TRIPOS>BOND
     1    32    33   ar
     2    32    30   ar
     3    11     9   ar
     4    11    10   ar
     5     9     7   ar
     6    33    31   ar
     7    30    27   ar
     8    10     8   ar
     9     7     6   ar
    10    31    29   ar
    11    27    29   ar
    12    27    25   ar
    13     8     6   ar
    14     6     5    1
    15    29    28   ar
    16     1     2    1
    17    68    66   ar
    18    68    67   ar
    19    25    24    1
    20    25    26   ar
    21    24    21    1
    22    20    21    1
    23    66    64   ar
    24    21    22    1
    25     2     5    1
    26     2     3    1
    27    67    65   ar
    28    28    26   ar
    29    64    63   ar
    30    22    23    2
    31    22    34   am
    32     3    12   am
    33     3     4    2
    34    65    63   ar
    35    12    13    1
    36    42    43    1
    37    15    14    2
    38    63    62    1
    39    14    13    1
    40    34    35    1
    41    43    46    1
    42    43    44    1
    43    46    47    1
    44    13    16    1
    45    62    59    1
    46    35    36    1
    47    35    38    1
    48    44    45    2
    49    16    17    1
    50    16    18    1
    51    58    59    1
    52    48    49    1
    53    59    60    1
    54    36    37    2
    55    56    54   ar
    56    56    57   ar
    57    17    19    1
    58    39    41    1
    59    39    38    1
    60    39    40    1
    61    54    53   ar
    62    57    55   ar
    63    49    50    1
    64    49    52    1
    65    53    55   ar
    66    53    52    1
    67    60    61    2
    68    50    51    2
    69    76    75    1
    70    84    83    1
    71    75    74    1
    72    74    73    1
    73    83    82    1
    74    82    81    1
    75    81    78    1
    76    73    70    1
    77    70    69    1
    78    70    71    1
    79    78    79    1
    80    78    77    1
    81    71    72    2
    82    79    80    2
    83    79    85   am
    84    85    86    1
    85    86    89    1
    86    86    87    1
    87    91    93   ar
    88    91    90   ar
    89    89    90    1
    90    93    95   ar
    91    90    92   ar
    92    87    88    2
    93    95    94   ar
    94    92    94   ar
