@<TRIPOS>MOLECULE
tmp/6igzQ02.pdb
 159 154 0 0 0
SMALL
GASTEIGER

@<TRIPOS>ATOM
      1  N        270.4880  194.5090  174.4330 N.3   154  LEU154     -0.1245
      2  CA       271.5110  195.1800  175.2150 C.3   154  LEU154      0.1561
      3  C        271.5080  196.6780  174.9480 C.2   154  LEU154      0.2260
      4  O        271.6460  197.4770  175.8780 O.2   154  LEU154     -0.2867
      5  CB       272.8740  194.5700  174.9060 C.3   154  LEU154      0.0270
      6  CG       274.0500  195.2420  175.5880 C.3   154  LEU154      0.0019
      7  CD1      273.8970  195.1760  177.0850 C.3   154  LEU154      0.0001
      8  CD2      275.3080  194.5440  175.1600 C.3   154  LEU154      0.0001
      9  N        268.7630  198.5600  176.5900 N.3   157  LEU157     -0.1231
     10  CA       269.1870  198.6080  177.9760 C.3   157  LEU157      0.1693
     11  C        270.3730  199.5360  178.1450 C.2   157  LEU157      0.2591
     12  O        270.5210  200.1680  179.1930 O.2   157  LEU157     -0.2718
     13  CB       269.5360  197.2020  178.4450 C.3   157  LEU157      0.0284
     14  CG       269.6170  196.9540  179.9410 C.3   157  LEU157      0.0019
     15  CD1      269.2760  195.5140  180.1940 C.3   157  LEU157      0.0001
     16  CD2      270.9760  197.2640  180.4830 C.3   157  LEU157      0.0001
     17  N        271.2290  199.6320  177.1300 N.am  158  ALA158     -0.1980
     18  CA       272.3820  200.5120  177.2350 C.3   158  ALA158      0.1597
     19  C        271.9690  201.9650  177.1040 C.2   158  ALA158      0.2287
     20  O        272.5460  202.8400  177.7570 O.2   158  ALA158     -0.2864
     21  CB       273.4170  200.1510  176.1750 C.3   158  ALA158      0.0319
     22  N        269.3180  203.6600  178.1080 N.3   160  VAL160     -0.1231
     23  CA       268.8770  204.2510  179.3670 C.3   160  VAL160      0.1692
     24  C        270.0650  204.7330  180.1740 C.2   160  VAL160      0.2592
     25  O        269.9860  205.7520  180.8700 O.2   160  VAL160     -0.2718
     26  CB       268.0260  203.2400  180.1550 C.3   160  VAL160      0.0266
     27  CG1      267.7320  203.7630  181.5340 C.3   160  VAL160      0.0020
     28  CG2      266.7420  202.9740  179.4200 C.3   160  VAL160      0.0020
     29  N        271.1920  204.0310  180.0750 N.am  161  GLY161     -0.1957
     30  CA       272.3980  204.5140  180.7120 C.3   161  GLY161      0.1869
     31  C        272.7510  205.9220  180.2810 C.2   161  GLY161      0.2309
     32  O        273.0760  206.7690  181.1120 O.2   161  GLY161     -0.2863
     33  N        270.4400  208.6230  182.0670 N.3   164  MET164     -0.1230
     34  CA       270.6700  208.8270  183.4910 C.3   164  MET164      0.1702
     35  C        272.0790  209.3270  183.7660 C.2   164  MET164      0.2592
     36  O        272.2660  210.2680  184.5430 O.2   164  MET164     -0.2718
     37  CB       270.3930  207.5390  184.2510 C.3   164  MET164      0.0401
     38  CG       268.9670  207.0880  184.1070 C.3   164  MET164      0.0596
     39  SD       267.8320  208.3160  184.7560 S.3   164  MET164     -0.1393
     40  CE       266.2840  207.5040  184.4270 C.3   164  MET164      0.0692
     41  N        273.0830  208.7170  183.1410 N.am  165  GLN165     -0.1979
     42  CA       274.4400  209.2240  183.2990 C.3   165  GLN165      0.1601
     43  C        274.5030  210.6960  182.9250 C.2   165  GLN165      0.2287
     44  O        274.9780  211.5260  183.7020 O.2   165  GLN165     -0.2864
     45  CB       275.4080  208.4020  182.4580 C.3   165  GLN165      0.0394
     46  CG       275.5120  206.9700  182.9080 C.3   165  GLN165      0.0908
     47  CD       276.3630  206.1450  181.9880 C.2   165  GLN165      0.2608
     48  OE1      276.5830  206.5080  180.8420 O.2   165  GLN165     -0.2717
     49  NE2      276.8240  205.0140  182.4720 N.am  165  GLN165     -0.0878
     50  N        272.6900  213.4150  185.9720 N.3   168  ILE168     -0.1231
     51  CA       273.4780  213.9450  187.0770 C.3   168  ILE168      0.1692
     52  C        274.9540  214.0620  186.7270 C.2   168  ILE168      0.2592
     53  O        275.5970  215.0560  187.0710 O.2   168  ILE168     -0.2718
     54  CB       273.2320  213.1020  188.3340 C.3   168  ILE168      0.0266
     55  CG1      273.2180  211.6230  187.9990 C.3   168  ILE168      0.0019
     56  CG2      271.9580  213.5020  188.9980 C.3   168  ILE168      0.0020
     57  CD1      272.7960  210.8140  189.1710 C.3   168  ILE168      0.0001
     58  N        275.5290  213.0700  186.0500 N.am  169  THR169     -0.1953
     59  CA       276.9500  213.1820  185.7410 C.3   169  THR169      0.1897
     60  C        277.1940  214.2510  184.6840 C.2   169  THR169      0.2313
     61  O        278.3250  214.7220  184.5240 O.2   169  THR169     -0.2863
     62  CB       277.5090  211.8310  185.2950 C.3   169  THR169      0.1794
     63  OG1      277.2050  210.8470  186.2860 O.3   169  THR169     -0.2208
     64  CG2      279.0200  211.8900  185.1400 C.3   169  THR169      0.0378
     65  N        278.4170  209.6870  177.0160 N.3   173  PRO173     -0.2116
     66  CA       278.6000  208.2710  177.3590 C.3   173  PRO173      0.1372
     67  C        280.0490  207.8650  177.5190 C.2   173  PRO173      0.2244
     68  O        280.3950  207.1730  178.4850 O.2   173  PRO173     -0.2868
     69  CB       277.9450  207.5550  176.1790 C.3   173  PRO173      0.0268
     70  CG       276.9630  208.5080  175.6790 C.3   173  PRO173      0.0207
     71  CD       277.5990  209.8490  175.8100 C.3   173  PRO173      0.0892
     72  N        282.2630  209.5930  180.7190 N.3   176  CYS176     -0.1221
     73  CA       282.2450  208.8930  181.9950 C.3   176  CYS176      0.1808
     74  C        282.8780  207.5140  181.9030 C.2   176  CYS176      0.2601
     75  O        283.3260  206.9870  182.9260 O.2   176  CYS176     -0.2717
     76  CB       280.8150  208.7830  182.5170 C.3   176  CYS176      0.0970
     77  SG       279.6520  208.0140  181.3890 S.3   176  CYS176     -0.0800
     78  N        282.9060  206.9160  180.7110 N.am  177  TRP177     -0.1976
     79  CA       283.7100  205.7210  180.4760 C.3   177  TRP177      0.1640
     80  C        285.1220  205.8860  181.0200 C.2   177  TRP177      0.2290
     81  O        285.5430  205.1720  181.9350 O.2   177  TRP177     -0.2864
     82  CB       283.7550  205.4310  178.9790 C.3   177  TRP177      0.0576
     83  CG       284.8130  204.4610  178.5680 C.ar  177  TRP177      0.0006
     84  CD1      286.0580  204.7700  178.1100 C.ar  177  TRP177      0.0946
     85  CD2      284.7060  203.0420  178.5010 C.ar  177  TRP177      0.0152
     86  NE1      286.7470  203.6320  177.8010 N.ar  177  TRP177     -0.2442
     87  CE2      285.9350  202.5540  178.0260 C.ar  177  TRP177      0.0810
     88  CE3      283.6980  202.1350  178.8070 C.ar  177  TRP177      0.0012
     89  CZ2      286.1820  201.2020  177.8540 C.ar  177  TRP177      0.0191
     90  CZ3      283.9480  200.7940  178.6370 C.ar  177  TRP177      0.0001
     91  CH2      285.1770  200.3390  178.1640 C.ar  177  TRP177      0.0015
     92  N        286.2940  208.3870  182.6890 N.3   179  ASP179     -0.1225
     93  CA       286.2810  208.9510  184.0320 C.3   179  ASP179      0.1805
     94  C        286.1670  207.8740  185.0960 C.2   179  ASP179      0.2598
     95  O        286.6450  208.0650  186.2170 O.2   179  ASP179     -0.2718
     96  CB       285.1350  209.9450  184.1660 C.3   179  ASP179      0.1424
     97  CG       285.3710  211.2020  183.3700 C.2   179  ASP179      0.3668
     98  OD1      286.5400  211.4550  183.0110 O.co2 179  ASP179     -0.2456
     99  OD2      284.3940  211.9280  183.0910 O.co2 179  ASP179     -0.2456
    100  N        285.5340  206.7480  184.7740 N.am  180  HIS180     -0.1961
    101  CA       285.4520  205.6560  185.7350 C.3   180  HIS180      0.1787
    102  C        286.7950  204.9610  185.8940 C.2   180  HIS180      0.2620
    103  O        287.2840  204.7890  187.0130 O.2   180  HIS180     -0.2715
    104  CB       284.3760  204.6650  185.3110 C.3   180  HIS180      0.0785
    105  CG       284.1820  203.5440  186.2770 C.ar  180  HIS180      0.0821
    106  ND1      284.8990  202.3720  186.2070 N.ar  180  HIS180     -0.2267
    107  CD2      283.3830  203.4310  187.3610 C.ar  180  HIS180      0.1154
    108  CE1      284.5280  201.5720  187.1890 C.ar  180  HIS180      0.1986
    109  NE2      283.6060  202.1900  187.9030 N.ar  180  HIS180     -0.2212
    110  N        287.4190  204.5700  184.7820 N.am  181  LEU181     -0.1977
    111  CA       288.6870  203.8550  184.8570 C.3   181  LEU181      0.1596
    112  C        289.7610  204.6530  185.5750 C.2   181  LEU181      0.2287
    113  O        290.7550  204.0720  186.0210 O.2   181  LEU181     -0.2864
    114  CB       289.1770  203.4870  183.4600 C.3   181  LEU181      0.0297
    115  CG       288.6200  202.2120  182.8360 C.3   181  LEU181      0.0022
    116  CD1      287.1470  202.3600  182.5390 C.3   181  LEU181      0.0001
    117  CD2      289.3840  201.8710  181.5750 C.3   181  LEU181      0.0001
    118  N        282.7770  207.5180  191.7330 N.3   187  THR187     -0.1203
    119  CA       281.7920  207.6840  190.6650 C.3   187  THR187      0.1994
    120  C        281.1570  206.3530  190.2670 C.2   187  THR187      0.2619
    121  O        281.2690  205.8970  189.1300 O.2   187  THR187     -0.2717
    122  CB       282.4210  208.3570  189.4410 C.3   187  THR187      0.1784
    123  OG1      283.4900  207.5410  188.9440 O.3   187  THR187     -0.2211
    124  CG2      282.9550  209.7400  189.8010 C.3   187  THR187      0.0376
    125  N        280.4990  205.7230  191.2360 N.am  188  THR188     -0.1938
    126  CA       279.6100  204.6060  190.9530 C.3   188  THR188      0.2028
    127  C        278.1300  204.9670  190.9820 C.2   188  THR188      0.2642
    128  O        277.3060  204.1310  190.6030 O.2   188  THR188     -0.2714
    129  CB       279.8580  203.4810  191.9530 C.3   188  THR188      0.1808
    130  OG1      279.7080  204.0030  193.2760 O.3   188  THR188     -0.2208
    131  CG2      281.2470  202.9230  191.7890 C.3   188  THR188      0.0379
    132  N        277.7790  206.1830  191.4090 N.am  189  ILE189     -0.1963
    133  CA       276.4250  206.5070  191.8610 C.3   189  ILE189      0.1727
    134  C        275.9720  205.3180  192.6910 C.2   189  ILE189      0.2616
    135  O        274.8650  204.7920  192.5480 O.2   189  ILE189     -0.2715
    136  CB       275.4780  206.8850  190.7090 C.3   189  ILE189      0.0290
    137  CG1      275.9670  208.2080  190.1430 C.3   189  ILE189      0.0022
    138  CG2      274.0690  207.1700  191.1960 C.3   189  ILE189      0.0023
    139  CD1      275.2770  208.6810  188.9410 C.3   189  ILE189      0.0001
    140  N        276.8940  204.8460  193.5100 N.am  190  PHE190     -0.1974
    141  CA       276.6430  203.9060  194.5780 C.3   190  PHE190      0.1639
    142  C        277.3220  204.6120  195.7330 C.2   190  PHE190      0.2290
    143  O        276.7130  204.8740  196.7710 O.2   190  PHE190     -0.2864
    144  CB       277.2190  202.5300  194.2680 C.3   190  PHE190      0.0560
    145  CG       276.6270  201.4260  195.0800 C.ar  190  PHE190     -0.0200
    146  CD1      275.4280  200.8590  194.7000 C.ar  190  PHE190     -0.0042
    147  CD2      277.2630  200.9440  196.1990 C.ar  190  PHE190     -0.0042
    148  CE1      274.8730  199.8410  195.4210 C.ar  190  PHE190     -0.0003
    149  CE2      276.7120  199.9160  196.9260 C.ar  190  PHE190     -0.0003
    150  CZ       275.5140  199.3680  196.5370 C.ar  190  PHE190     -0.0000
    151  N        278.0930  207.7030  195.2750 N.3   192  LYS192     -0.1245
    152  CA       277.6670  209.0930  195.1630 C.3   192  LYS192      0.1561
    153  C        276.3450  209.3920  195.8540 C.2   192  LYS192      0.2260
    154  O        275.9430  210.5570  195.8830 O.2   192  LYS192     -0.2867
    155  CB       277.5920  209.4730  193.6920 C.3   192  LYS192      0.0271
    156  CG       278.9570  209.4600  193.0410 C.3   192  LYS192      0.0035
    157  CD       278.8900  209.4180  191.5270 C.3   192  LYS192      0.0206
    158  CE       278.2560  210.6520  190.9410 C.3   192  LYS192      0.1093
    159  NZ       278.2360  210.5410  189.4650 N.3   192  LYS192     -0.1314
@<TRIPOS>BOND
     1     1     2    1
     2     5     2    1
     3     5     6    1
     4     3     2    1
     5     3     4    2
     6     8     6    1
     7     6     7    1
     8    70    71    1
     9    70    69    1
    10    71    65    1
    11    21    18    1
    12    69    66    1
    13     9    10    1
    14    65    66    1
    15    19    18    1
    16    19    20    2
    17    17    18    1
    18    17    11   am
    19    66    67    1
    20    67    68    2
    21    86    87   ar
    22    86    84   ar
    23    89    87   ar
    24    89    91   ar
    25    10    11    1
    26    10    13    1
    27    87    85   ar
    28    22    23    1
    29    84    83   ar
    30    11    12    2
    31    91    90   ar
    32    13    14    1
    33    85    83   ar
    34    85    88   ar
    35    83    82    1
    36    90    88   ar
    37    82    79    1
    38    23    26    1
    39    23    24    1
    40    28    26    1
    41    14    15    1
    42    14    16    1
    43    29    24   am
    44    29    30    1
    45    26    27    1
    46    24    25    2
    47    31    30    1
    48    31    32    2
    49    79    78    1
    50    79    80    1
    51    78    74   am
    52    72    73    1
    53    48    47    2
    54    80    81    2
    55    77    76    1
    56   117   115    1
    57    74    73    1
    58    74    75    2
    59    47    49   am
    60    47    46    1
    61    73    76    1
    62    33    34    1
    63    45    46    1
    64    45    42    1
    65   116   115    1
    66    92    93    1
    67   115   114    1
    68    43    42    1
    69    43    44    2
    70    98    97   ar
    71    99    97   ar
    72    41    42    1
    73    41    35   am
    74    97    96    1
    75   114   111    1
    76    34    35    1
    77    34    37    1
    78    35    36    2
    79    93    96    1
    80    93    94    1
    81    38    37    1
    82    38    39    1
    83    40    39    1
    84    61    60    2
    85    60    59    1
    86   100    94   am
    87   100   101    1
    88   110   111    1
    89   110   102   am
    90   111   112    1
    91    94    95    2
    92    64    62    1
    93    62    59    1
    94    62    63    1
    95   104   101    1
    96   104   105    1
    97   112   113    2
    98   101   102    1
    99    59    58    1
   100   102   103    2
   101    50    51    1
   102    58    52   am
   103   106   105   ar
   104   106   108   ar
   105   105   107   ar
   106    52    53    2
   107    52    51    1
   108    51    54    1
   109   108   109   ar
   110   107   109   ar
   111    55    54    1
   112    55    57    1
   113    54    56    1
   114   139   137    1
   115   123   122    1
   116   121   120    2
   117   122   124    1
   118   122   119    1
   119   159   158    1
   120   137   136    1
   121   120   119    1
   122   120   125   am
   123   128   127    2
   124   119   118    1
   125   136   138    1
   126   136   133    1
   127   158   157    1
   128   126   127    1
   129   126   125    1
   130   126   129    1
   131   127   132   am
   132   132   133    1
   133   157   156    1
   134   131   129    1
   135   133   134    1
   136   129   130    1
   137   135   134    2
   138   134   140   am
   139   156   155    1
   140   140   141    1
   141   155   152    1
   142   144   141    1
   143   144   145    1
   144   141   142    1
   145   146   145   ar
   146   146   148   ar
   147   145   147   ar
   148   152   151    1
   149   152   153    1
   150   148   150   ar
   151   142   143    2
   152   153   154    2
   153   147   149   ar
   154   150   149   ar
