@<TRIPOS>MOLECULE
tmp/6igzO03.pdb
 161 155 0 0 0
SMALL
GASTEIGER

@<TRIPOS>ATOM
      1  N        247.0770  179.6100  247.0100 N.3   182  LEU182     -0.1245
      2  CA       247.9100  180.3980  247.9090 C.3   182  LEU182      0.1561
      3  C        248.4000  181.6630  247.2330 C.2   182  LEU182      0.2260
      4  O        248.4780  182.7210  247.8640 O.2   182  LEU182     -0.2867
      5  CB       249.0930  179.5680  248.3890 C.3   182  LEU182      0.0270
      6  CG       250.1660  180.3100  249.1700 C.3   182  LEU182      0.0019
      7  CD1      249.5760  180.9220  250.3990 C.3   182  LEU182      0.0001
      8  CD2      251.2620  179.3530  249.5510 C.3   182  LEU182      0.0001
      9  N        245.5280  184.5300  247.2440 N.3   185  MET185     -0.1230
     10  CA       245.3660  185.1920  248.5320 C.3   185  MET185      0.1702
     11  C        246.5230  186.1380  248.8050 C.2   185  MET185      0.2592
     12  O        246.3250  187.2430  249.3180 O.2   185  MET185     -0.2718
     13  CB       245.2500  184.1550  249.6440 C.3   185  MET185      0.0401
     14  CG       244.0410  183.2550  249.5280 C.3   185  MET185      0.0596
     15  SD       242.4860  184.1550  249.5160 S.3   185  MET185     -0.1393
     16  CE       242.5040  184.8780  251.1480 C.3   185  MET185      0.0692
     17  N        247.7370  185.7230  248.4550 N.am  186  ALA186     -0.1980
     18  CA       248.8800  186.6160  248.5410 C.3   186  ALA186      0.1597
     19  C        248.6030  187.9250  247.8240 C.2   186  ALA186      0.2287
     20  O        248.7260  189.0050  248.4090 O.2   186  ALA186     -0.2864
     21  CB       250.1110  185.9370  247.9520 C.3   186  ALA186      0.0319
     22  N        245.7020  189.0560  246.8590 N.3   188  PHE188     -0.1227
     23  CA       244.5620  189.7030  247.4910 C.3   188  PHE188      0.1736
     24  C        244.9830  190.4710  248.7270 C.2   188  PHE188      0.2596
     25  O        244.3590  191.4750  249.0750 O.2   188  PHE188     -0.2718
     26  CB       243.5030  188.6730  247.8520 C.3   188  PHE188      0.0547
     27  CG       242.3010  189.2560  248.5150 C.ar  188  PHE188     -0.0202
     28  CD1      241.3390  189.8990  247.7730 C.ar  188  PHE188     -0.0042
     29  CD2      242.1190  189.1430  249.8720 C.ar  188  PHE188     -0.0042
     30  CE1      240.2290  190.4280  248.3750 C.ar  188  PHE188     -0.0003
     31  CE2      241.0090  189.6690  250.4790 C.ar  188  PHE188     -0.0003
     32  CZ       240.0630  190.3120  249.7290 C.ar  188  PHE188     -0.0000
     33  N        246.0350  190.0160  249.4030 N.am  189  GLY189     -0.1957
     34  CA       246.5420  190.7680  250.5340 C.3   189  GLY189      0.1869
     35  C        247.1940  192.0640  250.1020 C.2   189  GLY189      0.2309
     36  O        246.9080  193.1280  250.6540 O.2   189  GLY189     -0.2863
     37  N        245.0350  195.1630  249.6660 N.3   192  ALA192     -0.1231
     38  CA       244.5940  195.7210  250.9350 C.3   192  ALA192      0.1694
     39  C        245.7830  196.1470  251.7840 C.2   192  ALA192      0.2591
     40  O        245.7990  197.2440  252.3500 O.2   192  ALA192     -0.2718
     41  CB       243.7310  194.7060  251.6810 C.3   192  ALA192      0.0304
     42  N        246.7970  195.2950  251.8620 N.am  193  GLN193     -0.1979
     43  CA       247.9450  195.5860  252.7040 C.3   193  GLN193      0.1601
     44  C        248.6720  196.8370  252.2370 C.2   193  GLN193      0.2287
     45  O        249.3240  197.5110  253.0410 O.2   193  GLN193     -0.2864
     46  CB       248.8570  194.3690  252.7080 C.3   193  GLN193      0.0394
     47  CG       249.9760  194.3720  253.6820 C.3   193  GLN193      0.0908
     48  CD       250.5880  193.0030  253.7680 C.2   193  GLN193      0.2608
     49  OE1      250.0690  192.0500  253.1940 O.2   193  GLN193     -0.2717
     50  NE2      251.6980  192.8920  254.4700 N.am  193  GLN193     -0.0878
     51  N        245.9200  199.8490  253.2340 N.3   196  LEU196     -0.1231
     52  CA       245.8420  200.1480  254.6580 C.3   196  LEU196      0.1693
     53  C        247.1150  200.8230  255.1330 C.2   196  LEU196      0.2592
     54  O        247.0740  201.9120  255.7120 O.2   196  LEU196     -0.2718
     55  CB       245.6020  198.8800  255.4680 C.3   196  LEU196      0.0284
     56  CG       245.5690  199.1990  256.9630 C.3   196  LEU196      0.0019
     57  CD1      244.3420  199.9960  257.2850 C.3   196  LEU196      0.0001
     58  CD2      245.6350  197.9720  257.8240 C.3   196  LEU196      0.0001
     59  N        248.2580  200.1920  254.8860 N.am  197  THR197     -0.1953
     60  CA       249.5280  200.7260  255.3510 C.3   197  THR197      0.1897
     61  C        249.9760  201.8950  254.4940 C.2   197  THR197      0.2313
     62  O        250.1400  203.0140  254.9840 O.2   197  THR197     -0.2863
     63  CB       250.5890  199.6380  255.3380 C.3   197  THR197      0.1794
     64  OG1      250.6670  199.0880  254.0190 O.3   197  THR197     -0.2208
     65  CG2      250.2380  198.5510  256.3220 C.3   197  THR197      0.0378
     66  N        252.7940  201.2660  252.5730 N.3   199  LYS199     -0.1245
     67  CA       254.1630  200.8630  252.3280 C.3   199  LYS199      0.1561
     68  C        254.1690  199.5920  251.4950 C.2   199  LYS199      0.2260
     69  O        253.1260  199.0290  251.1630 O.2   199  LYS199     -0.2867
     70  CB       254.9020  200.6590  253.6470 C.3   199  LYS199      0.0271
     71  CG       255.1130  201.9340  254.4170 C.3   199  LYS199      0.0035
     72  CD       255.8360  201.6690  255.7160 C.3   199  LYS199      0.0206
     73  CE       254.9860  200.8330  256.6520 C.3   199  LYS199      0.1093
     74  NZ       253.7570  201.5510  257.0660 N.3   199  LYS199     -0.1314
     75  N        254.7500  195.6580  250.3620 N.3   201  PRO201     -0.2116
     76  CA       254.4700  194.3740  251.0090 C.3   201  PRO201      0.1372
     77  C        255.6990  193.7570  251.6420 C.2   201  PRO201      0.2244
     78  O        255.5920  193.1230  252.6980 O.2   201  PRO201     -0.2868
     79  CB       253.9240  193.5260  249.8590 C.3   201  PRO201      0.0268
     80  CG       254.5220  194.1270  248.6420 C.3   201  PRO201      0.0207
     81  CD       254.5800  195.5940  248.9040 C.3   201  PRO201      0.0892
     82  N        256.3570  195.5920  254.6800 N.3   204  ASN204     -0.1225
     83  CA       255.4160  195.1310  255.6890 C.3   204  ASN204      0.1785
     84  C        255.7920  193.7850  256.2840 C.2   204  ASN204      0.2597
     85  O        255.2030  193.3850  257.2910 O.2   204  ASN204     -0.2718
     86  CB       254.0120  195.0400  255.1010 C.3   204  ASN204      0.1169
     87  CG       253.3970  196.3890  254.8710 C.2   204  ASN204      0.2627
     88  OD1      253.7870  197.3700  255.4960 O.2   204  ASN204     -0.2716
     89  ND2      252.4260  196.4510  253.9770 N.am  204  ASN204     -0.0877
     90  N        256.7290  193.0650  255.6780 N.am  205  LEU205     -0.1980
     91  CA       257.2300  191.8610  256.3260 C.3   205  LEU205      0.1596
     92  C        258.2360  192.2060  257.4090 C.2   205  LEU205      0.2287
     93  O        258.3430  191.4900  258.4090 O.2   205  LEU205     -0.2864
     94  CB       257.8560  190.9270  255.2980 C.3   205  LEU205      0.0297
     95  CG       258.4390  189.6390  255.8600 C.3   205  LEU205      0.0022
     96  CD1      257.3510  188.8430  256.5280 C.3   205  LEU205      0.0001
     97  CD2      259.0830  188.8330  254.7580 C.3   205  LEU205      0.0001
     98  N        258.3260  195.2760  259.1820 N.3   207  ASP207     -0.1225
     99  CA       257.6720  195.9850  260.2730 C.3   207  ASP207      0.1805
    100  C        256.8830  195.0430  261.1620 C.2   207  ASP207      0.2597
    101  O        256.7120  195.3150  262.3540 O.2   207  ASP207     -0.2718
    102  CB       256.7650  197.0780  259.7200 C.3   207  ASP207      0.1424
    103  CG       257.5460  198.2290  259.1340 C.2   207  ASP207      0.3668
    104  OD1      258.7470  198.3420  259.4450 O.co2 207  ASP207     -0.2456
    105  OD2      256.9690  199.0140  258.3570 O.co2 207  ASP207     -0.2456
    106  N        256.3920  193.9400  260.6160 N.am  208  HIS208     -0.1975
    107  CA       255.7240  192.9830  261.4750 C.3   208  HIS208      0.1656
    108  C        256.7010  192.0670  262.1810 C.2   208  HIS208      0.2291
    109  O        256.3270  191.4370  263.1720 O.2   208  HIS208     -0.2864
    110  CB       254.7420  192.1310  260.6880 C.3   208  HIS208      0.0771
    111  CG       253.8990  191.2560  261.5520 C.ar  208  HIS208      0.0820
    112  ND1      252.9560  191.7630  262.4170 N.ar  208  HIS208     -0.2267
    113  CD2      253.8750  189.9140  261.7110 C.ar  208  HIS208      0.1154
    114  CE1      252.3660  190.7670  263.0510 C.ar  208  HIS208      0.1986
    115  NE2      252.9090  189.6350  262.6450 N.ar  208  HIS208     -0.2212
    116  N        253.0790  196.3630  265.5980 N.3   215  ASN215     -0.1225
    117  CA       252.7410  196.6050  264.2000 C.3   215  ASN215      0.1785
    118  C        251.8920  195.4730  263.6580 C.2   215  ASN215      0.2597
    119  O        252.3210  194.3170  263.6400 O.2   215  ASN215     -0.2718
    120  CB       254.0080  196.7500  263.3710 C.3   215  ASN215      0.1169
    121  CG       254.7010  198.0540  263.6110 C.2   215  ASN215      0.2627
    122  OD1      254.2960  199.0850  263.0830 O.2   215  ASN215     -0.2716
    123  ND2      255.7450  198.0280  264.4220 N.am  215  ASN215     -0.0877
    124  N        250.7040  195.8120  263.1860 N.am  216  ASN216     -0.1960
    125  CA       249.6780  194.8130  262.9340 C.3   216  ASN216      0.1819
    126  C        248.5240  195.5220  262.2350 C.2   216  ASN216      0.2621
    127  O        248.6160  196.7110  261.9150 O.2   216  ASN216     -0.2715
    128  CB       249.2740  194.1670  264.2550 C.3   216  ASN216      0.1195
    129  CG       248.5560  192.8840  264.0660 C.2   216  ASN216      0.2630
    130  OD1      248.0050  192.6290  263.0050 O.2   216  ASN216     -0.2716
    131  ND2      248.5750  192.0420  265.0880 N.am  216  ASN216     -0.0877
    132  N        247.4320  194.7940  261.9880 N.am  217  ILE217     -0.1977
    133  CA       246.2260  195.4490  261.4820 C.3   217  ILE217      0.1596
    134  C        245.5860  196.2820  262.5810 C.2   217  ILE217      0.2287
    135  O        245.3580  197.4870  262.4260 O.2   217  ILE217     -0.2864
    136  CB       245.2130  194.4260  260.9470 C.3   217  ILE217      0.0276
    137  CG1      245.8730  193.4320  260.0230 C.3   217  ILE217      0.0022
    138  CG2      244.1270  195.1290  260.1770 C.3   217  ILE217      0.0022
    139  CD1      246.0580  192.1330  260.7060 C.3   217  ILE217      0.0001
    140  N        247.4300  199.2500  263.0800 N.3   220  ASN220     -0.1225
    141  CA       247.4280  200.2240  262.0010 C.3   220  ASN220      0.1785
    142  C        246.0090  200.3580  261.4730 C.2   220  ASN220      0.2597
    143  O        245.5270  199.5220  260.7090 O.2   220  ASN220     -0.2718
    144  CB       248.4030  199.7970  260.9130 C.3   220  ASN220      0.1169
    145  CG       249.8090  199.6350  261.4410 C.2   220  ASN220      0.2627
    146  OD1      250.4930  198.6600  261.1340 O.2   220  ASN220     -0.2716
    147  ND2      250.2360  200.5750  262.2740 N.am  220  ASN220     -0.0877
    148  N        245.3620  201.4470  261.8630 N.am  221  TRP221     -0.1976
    149  CA       244.1430  201.9530  261.2600 C.3   221  TRP221      0.1640
    150  C        244.4090  203.4250  261.0270 C.2   221  TRP221      0.2290
    151  O        244.2930  203.9250  259.9110 O.2   221  TRP221     -0.2864
    152  CB       242.9100  201.7100  262.1190 C.3   221  TRP221      0.0576
    153  CG       242.5610  200.2680  262.2150 C.ar  221  TRP221      0.0006
    154  CD1      242.7510  199.4490  263.2820 C.ar  221  TRP221      0.0946
    155  CD2      242.0160  199.4510  261.1770 C.ar  221  TRP221      0.0152
    156  NE1      242.3190  198.1820  262.9920 N.ar  221  TRP221     -0.2442
    157  CE2      241.8690  198.1550  261.7000 C.ar  221  TRP221      0.0810
    158  CE3      241.6240  199.6940  259.8580 C.ar  221  TRP221      0.0012
    159  CZ2      241.3540  197.1020  260.9520 C.ar  221  TRP221      0.0191
    160  CZ3      241.1080  198.6470  259.1170 C.ar  221  TRP221      0.0001
    161  CH2      240.9810  197.3660  259.6650 C.ar  221  TRP221      0.0015
@<TRIPOS>BOND
     1    22    23    1
     2     1     2    1
     3     3     4    2
     4     3     2    1
     5     9    10    1
     6    23    26    1
     7    23    24    1
     8    28    30   ar
     9    28    27   ar
    10    19    20    2
    11    19    18    1
    12    26    27    1
    13     2     5    1
    14    21    18    1
    15    30    32   ar
    16     5     6    1
    17    17    18    1
    18    17    11   am
    19    27    29   ar
    20    10    11    1
    21    10    13    1
    22    80    81    1
    23    80    79    1
    24    24    25    2
    25    24    33   am
    26    11    12    2
    27    81    75    1
    28     6     8    1
    29     6     7    1
    30    33    34    1
    31    15    14    1
    32    15    16    1
    33    14    13    1
    34    37    38    1
    35    32    31   ar
    36    79    76    1
    37    29    31   ar
    38    35    34    1
    39    35    36    2
    40    75    76    1
    41    38    41    1
    42    38    39    1
    43    76    77    1
    44    69    68    2
    45    68    67    1
    46    77    78    2
    47    39    42   am
    48    39    40    2
    49    42    43    1
    50    44    43    1
    51    44    45    2
    52    67    66    1
    53    67    70    1
    54    43    46    1
    55    46    47    1
    56    49    48    2
    57    51    52    1
    58    70    71    1
    59    47    48    1
    60    48    50   am
    61    89    87   am
    62    64    63    1
    63    71    72    1
    64    61    62    2
    65    61    60    1
    66    52    53    1
    67    52    55    1
    68    82    83    1
    69    97    95    1
    70    87    86    1
    71    87    88    2
    72    59    53   am
    73    59    60    1
    74    86    83    1
    75    53    54    2
    76    94    95    1
    77    94    91    1
    78    63    60    1
    79    63    65    1
    80    55    56    1
    81    90    84   am
    82    90    91    1
    83    83    84    1
    84    72    73    1
    85    95    96    1
    86    84    85    2
    87    91    92    1
    88    73    74    1
    89    56    57    1
    90    56    58    1
    91    92    93    2
    92   105   103   ar
    93   160   161   ar
    94   160   158   ar
    95   103   104   ar
    96   103   102    1
    97    98    99    1
    98   161   159   ar
    99   102    99    1
   100   158   155   ar
   101   151   150    2
   102   137   139    1
   103   137   136    1
   104   138   136    1
   105    99   100    1
   106   106   100   am
   107   106   107    1
   108   110   107    1
   109   110   111    1
   110   143   142    2
   111   144   145    1
   112   144   141    1
   113   136   133    1
   114   159   157   ar
   115   150   149    1
   116   146   145    2
   117   100   101    2
   118   155   157   ar
   119   155   153   ar
   120   149   148    1
   121   149   152    1
   122   145   147   am
   123   142   148   am
   124   142   141    1
   125   107   108    1
   126   133   132    1
   127   133   134    1
   128   111   113   ar
   129   111   112   ar
   130   157   156   ar
   131   113   115   ar
   132   127   126    2
   133   132   126   am
   134   141   140    1
   135   152   153    1
   136   108   109    2
   137   153   154   ar
   138   126   125    1
   139   112   114   ar
   140   135   134    2
   141   115   114   ar
   142   125   124    1
   143   125   128    1
   144   156   154   ar
   145   130   129    2
   146   122   121    2
   147   124   118   am
   148   120   121    1
   149   120   117    1
   150   121   123   am
   151   119   118    2
   152   118   117    1
   153   129   128    1
   154   129   131   am
   155   117   116    1
