@<TRIPOS>MOLECULE
tmp/6igzF07.pdb
 109 104 0 0 0
SMALL
GASTEIGER

@<TRIPOS>ATOM
      1  N        191.5070  236.2350  197.2630 N.3    73  ALA73      -0.1231
      2  CA       191.2110  234.9510  196.6380 C.3    73  ALA73       0.1694
      3  C        190.9840  235.0860  195.1360 C.2    73  ALA73       0.2592
      4  O        191.7140  234.4970  194.3370 O.2    73  ALA73      -0.2718
      5  CB       189.9970  234.3130  197.3080 C.3    73  ALA73       0.0304
      6  N        189.9800  235.8580  194.7430 N.am   74  ASP74      -0.1960
      7  CA       189.4510  235.8210  193.3870 C.3    74  ASP74       0.1825
      8  C        190.5530  235.9000  192.3420 C.2    74  ASP74       0.2464
      9  O        191.4330  236.7660  192.4280 O.2    74  ASP74      -0.2730
     10  CB       188.4890  236.9750  193.1700 C.3    74  ASP74       0.1450
     11  CG       187.2340  236.7580  193.8870 C.2    74  ASP74       0.3671
     12  OD1      187.0110  235.5840  194.2130 O.co2  74  ASP74      -0.2456
     13  OD2      186.4990  237.7220  194.1530 O.co2  74  ASP74      -0.2456
     14  N        190.5300  235.0240  191.3420 N.am   75  PRO75      -0.2727
     15  CA       191.4820  235.1670  190.2380 C.3    75  PRO75       0.1402
     16  C        191.3770  236.5180  189.5590 C.2    75  PRO75       0.2269
     17  O        192.3960  237.1840  189.3510 O.2    75  PRO75      -0.2865
     18  CB       191.0860  234.0180  189.3080 C.3    75  PRO75       0.0296
     19  CG       190.4140  233.0300  190.1940 C.3    75  PRO75       0.0237
     20  CD       189.6690  233.8440  191.1850 C.3    75  PRO75       0.0939
     21  N        197.5080  233.0000  196.6920 N.3    87  ILE87      -0.1231
     22  CA       196.8260  231.7090  196.6090 C.3    87  ILE87       0.1692
     23  C        196.9220  231.2040  195.1770 C.2    87  ILE87       0.2591
     24  O        197.3110  230.0600  194.9330 O.2    87  ILE87      -0.2718
     25  CB       195.3640  231.7860  197.0730 C.3    87  ILE87       0.0266
     26  CG1      195.2860  232.2020  198.5370 C.3    87  ILE87       0.0019
     27  CG2      194.7140  230.4370  196.9230 C.3    87  ILE87       0.0020
     28  CD1      194.9730  233.6620  198.7430 C.3    87  ILE87       0.0001
     29  N        196.4810  232.0430  194.2390 N.am   88  MET88      -0.1979
     30  CA       196.2500  231.6330  192.8580 C.3    88  MET88       0.1605
     31  C        197.4100  230.8490  192.2550 C.2    88  MET88       0.2287
     32  O        197.1860  229.8680  191.5420 O.2    88  MET88      -0.2864
     33  CB       195.9300  232.8730  192.0350 C.3    88  MET88       0.0413
     34  CG       194.6840  233.5700  192.5420 C.3    88  MET88       0.0598
     35  SD       193.2400  232.5080  192.3740 S.3    88  MET88      -0.1393
     36  CE       193.0580  231.8330  194.0270 C.3    88  MET88       0.0692
     37  N        197.8160  227.7440  194.8270 N.3    91  THR91      -0.1218
     38  CA       196.7070  226.8080  194.7330 C.3    91  THR91       0.1862
     39  C        196.8950  225.8510  193.5760 C.2    91  THR91       0.2287
     40  O        196.2560  224.8000  193.5490 O.2    91  THR91      -0.2866
     41  CB       195.3680  227.5300  194.5900 C.3    91  THR91       0.1770
     42  OG1      194.3050  226.5840  194.7240 O.3    91  THR91      -0.2211
     43  CG2      195.2500  228.1580  193.2390 C.3    91  THR91       0.0375
     44  N        197.5750  215.8890  194.5130 N.3    99  GLY99      -0.1225
     45  CA       197.1590  214.8650  193.5780 C.3    99  GLY99       0.1811
     46  C        198.2600  213.8720  193.2800 C.2    99  GLY99       0.2280
     47  O        197.9920  212.6880  193.0600 O.2    99  GLY99      -0.2866
     48  N        198.0920  211.6400  195.7910 N.3   102  GLY102     -0.1210
     49  CA       196.7800  211.0390  195.6450 C.3   102  GLY102      0.1956
     50  C        196.7710  209.9580  194.5860 C.2   102  GLY102      0.2611
     51  O        196.3630  208.8250  194.8390 O.2   102  GLY102     -0.2717
     52  N        197.2430  210.2900  193.3890 N.am  103  TYR103     -0.1976
     53  CA       197.2140  209.3300  192.3020 C.3   103  TYR103      0.1639
     54  C        198.2820  208.2620  192.4460 C.2   103  TYR103      0.2290
     55  O        198.1170  207.1640  191.9110 O.2   103  TYR103     -0.2864
     56  CB       197.3730  210.0430  190.9700 C.3   103  TYR103      0.0560
     57  CG       197.3560  209.1040  189.8030 C.ar  103  TYR103     -0.0198
     58  CD1      196.1730  208.5440  189.3690 C.ar  103  TYR103     -0.0009
     59  CD2      198.5150  208.7770  189.1380 C.ar  103  TYR103     -0.0009
     60  CE1      196.1460  207.6890  188.3120 C.ar  103  TYR103      0.0417
     61  CE2      198.4970  207.9240  188.0760 C.ar  103  TYR103      0.0417
     62  CZ       197.3100  207.3840  187.6660 C.ar  103  TYR103      0.1957
     63  OH       197.2930  206.5220  186.6010 O.3   103  TYR103     -0.2866
     64  N        196.6860  205.3760  194.1770 N.3   106  ARG106     -0.1245
     65  CA       195.7310  204.5590  193.4450 C.3   106  ARG106      0.1563
     66  C        196.4320  203.4810  192.6350 C.2   106  ARG106      0.2260
     67  O        195.9820  202.3330  192.6080 O.2   106  ARG106     -0.2867
     68  CB       194.8840  205.4390  192.5350 C.3   106  ARG106      0.0307
     69  CG       193.7950  204.7050  191.7980 C.3   106  ARG106      0.0489
     70  CD       193.0230  205.6630  190.9250 C.3   106  ARG106      0.2205
     71  NE       191.8960  205.0260  190.2550 N.pl3 106  ARG106     -0.0865
     72  CZ       191.9840  204.3620  189.1110 C.cat 106  ARG106      0.5346
     73  NH1      190.9050  203.8290  188.5700 N.pl3 106  ARG106      0.1354
     74  NH2      193.1510  204.2320  188.5110 N.pl3 106  ARG106      0.1354
     75  N        200.4360  213.1920  186.6150 N.3   140  TRP140     -0.1241
     76  CA       199.1200  212.6120  186.8200 C.3   140  TRP140      0.1605
     77  C        197.9980  213.3940  186.1470 C.2   140  TRP140      0.2264
     78  O        197.0390  212.7440  185.7000 O.2   140  TRP140     -0.2867
     79  CB       198.8270  212.4250  188.3160 C.3   140  TRP140      0.0550
     80  CG       198.7680  213.6520  189.1290 C.ar  140  TRP140      0.0003
     81  CD1      199.7930  214.2460  189.7810 C.ar  140  TRP140      0.0946
     82  CD2      197.6070  214.4350  189.4050 C.ar  140  TRP140      0.0152
     83  NE1      199.3500  215.3590  190.4460 N.ar  140  TRP140     -0.2442
     84  CE2      198.0070  215.4960  190.2260 C.ar  140  TRP140      0.0810
     85  CE3      196.2680  214.3440  189.0280 C.ar  140  TRP140      0.0012
     86  CZ2      197.1220  216.4650  190.6730 C.ar  140  TRP140      0.0191
     87  CZ3      195.3910  215.3020  189.4760 C.ar  140  TRP140      0.0001
     88  CH2      195.8180  216.3460  190.2920 C.ar  140  TRP140      0.0015
     89  N        195.3690  211.2510  184.5330 N.3   144  ALA144     -0.1245
     90  CA       194.0240  211.1600  185.0840 C.3   144  ALA144      0.1562
     91  C        192.9740  211.3560  183.9990 C.2   144  ALA144      0.2260
     92  O        191.9840  210.6220  183.9470 O.2   144  ALA144     -0.2867
     93  CB       193.8420  212.1810  186.2050 C.3   144  ALA144      0.0290
     94  N        189.0500  205.0520  185.0870 N.3   153  LEU153     -0.1231
     95  CA       189.1990  205.6960  186.3870 C.3   153  LEU153      0.1693
     96  C        188.1190  205.2330  187.3590 C.2   153  LEU153      0.2591
     97  O        188.4120  204.9180  188.5150 O.2   153  LEU153     -0.2718
     98  CB       189.1760  207.2160  186.2230 C.3   153  LEU153      0.0284
     99  CG       189.6140  208.0760  187.4080 C.3   153  LEU153      0.0019
    100  CD1      190.2690  209.3300  186.9030 C.3   153  LEU153      0.0001
    101  CD2      188.4560  208.4420  188.2760 C.3   153  LEU153      0.0001
    102  N        186.8670  205.2050  186.9140 N.am  154  LEU154     -0.1980
    103  CA       185.7540  204.7430  187.7290 C.3   154  LEU154      0.1596
    104  C        185.6300  203.2220  187.7150 C.2   154  LEU154      0.2287
    105  O        186.1050  202.5350  186.8080 O.2   154  LEU154     -0.2864
    106  CB       184.4450  205.3620  187.2620 C.3   154  LEU154      0.0297
    107  CG       184.0790  206.6950  187.8980 C.3   154  LEU154      0.0022
    108  CD1      185.0870  207.7620  187.5710 C.3   154  LEU154      0.0001
    109  CD2      182.7160  207.1200  187.4120 C.3   154  LEU154      0.0001
@<TRIPOS>BOND
     1    92    91    2
     2    91    90    1
     3    89    90    1
     4    90    93    1
     5    94    95    1
     6    78    77    2
     7    77    76    1
     8    98    95    1
     9    98    99    1
    10    95    96    1
    11    63    62    1
    12    75    76    1
    13   105   104    2
    14    76    79    1
    15   100    99    1
    16   102    96   am
    17   102   103    1
    18   106   103    1
    19   106   107    1
    20    96    97    2
    21    99   101    1
    22   109   107    1
    23   108   107    1
    24    62    61   ar
    25    62    60   ar
    26   104   103    1
    27    61    59   ar
    28    60    58   ar
    29    79    80    1
    30    74    72    1
    31    73    72    1
    32    85    82   ar
    33    85    87   ar
    34    72    71    2
    35    80    82   ar
    36    80    81   ar
    37    59    57   ar
    38    18    19    1
    39    18    15    1
    40    17    16    2
    41    58    57   ar
    42    82    84   ar
    43    87    88   ar
    44    16    15    1
    45    81    83   ar
    46    57    56    1
    47    19    20    1
    48    84    83   ar
    49    84    86   ar
    50    15    14    1
    51    71    70    1
    52    88    86   ar
    53    70    69    1
    54    56    53    1
    55    20    14    1
    56    14     8   am
    57    32    31    2
    58    69    68    1
    59    55    54    2
    60    33    34    1
    61    33    30    1
    62    31    30    1
    63    53    54    1
    64    53    52    1
    65     8     9    2
    66     8     7    1
    67    35    34    1
    68    35    36    1
    69    68    65    1
    70    67    66    2
    71    66    65    1
    72    30    29    1
    73    47    46    2
    74    10     7    1
    75    10    11    1
    76    43    41    1
    77    46    45    1
    78     7     6    1
    79    52    50   am
    80    65    64    1
    81    40    39    2
    82    39    38    1
    83    45    44    1
    84    11    13   ar
    85    11    12   ar
    86    29    23   am
    87     4     3    2
    88    50    51    2
    89    50    49    1
    90    41    42    1
    91    41    38    1
    92    38    37    1
    93     6     3   am
    94    24    23    2
    95     3     2    1
    96    23    22    1
    97    49    48    1
    98    22    21    1
    99    22    25    1
   100     2     1    1
   101     2     5    1
   102    27    25    1
   103    25    26    1
   104    26    28    1
