@<TRIPOS>MOLECULE
tmp/6igzN18.pdb
 135 132 0 0 0
SMALL
GASTEIGER

@<TRIPOS>ATOM
      1  N        222.4520  191.0230  196.6790 N.3    35  MET35      -0.1245
      2  CA       223.1900  192.1910  197.1220 C.3    35  MET35       0.1570
      3  C        224.6860  191.9420  197.1680 C.2    35  MET35       0.2261
      4  O        225.4660  192.8870  197.0310 O.2    35  MET35      -0.2867
      5  CB       222.6750  192.6350  198.4870 C.3    35  MET35       0.0387
      6  CG       223.3240  193.8790  199.0060 C.3    35  MET35       0.0595
      7  SD       222.5910  194.4580  200.5400 S.3    35  MET35      -0.1393
      8  CE       221.1250  195.2540  199.9050 C.3    35  MET35       0.0692
      9  N        226.7070  193.2010  194.4940 N.3    38  TRP38      -0.1241
     10  CA       226.7660  194.6510  194.5730 C.3    38  TRP38       0.1605
     11  C        227.8370  195.1160  195.5360 C.2    38  TRP38       0.2264
     12  O        228.4260  196.1790  195.3300 O.2    38  TRP38      -0.2867
     13  CB       225.4150  195.2020  195.0040 C.3    38  TRP38       0.0550
     14  CG       225.3980  196.6520  195.2720 C.ar   38  TRP38       0.0003
     15  CD1      225.4470  197.2510  196.4850 C.ar   38  TRP38       0.0946
     16  CD2      225.2770  197.7000  194.3120 C.ar   38  TRP38       0.0152
     17  NE1      225.3900  198.6100  196.3450 N.ar   38  TRP38      -0.2442
     18  CE2      225.2800  198.9110  195.0150 C.ar   38  TRP38       0.0810
     19  CE3      225.1740  197.7310  192.9230 C.ar   38  TRP38       0.0012
     20  CZ2      225.1820  200.1350  194.3810 C.ar   38  TRP38       0.0191
     21  CZ3      225.0810  198.9460  192.2960 C.ar   38  TRP38       0.0001
     22  CH2      225.0860  200.1310  193.0220 C.ar   38  TRP38       0.0015
     23  N        231.3830  194.5380  193.8280 N.3    41  GLN41      -0.1231
     24  CA       231.7850  195.6640  193.0020 C.3    41  GLN41       0.1698
     25  C        232.1290  196.8640  193.8580 C.2    41  GLN41       0.2592
     26  O        233.1040  197.5690  193.5820 O.2    41  GLN41      -0.2718
     27  CB       230.6920  196.0370  192.0220 C.3    41  GLN41       0.0381
     28  CG       231.1560  197.0900  191.0710 C.3    41  GLN41       0.0905
     29  CD       230.1600  197.3410  190.0000 C.2    41  GLN41       0.2608
     30  OE1      229.1050  196.7280  189.9840 O.2    41  GLN41      -0.2717
     31  NE2      230.4920  198.2190  189.0720 N.am   41  GLN41      -0.0878
     32  N        231.3400  197.1120  194.9010 N.am   42  ALA42      -0.1980
     33  CA       231.6020  198.2460  195.7780 C.3    42  ALA42       0.1597
     34  C        233.0190  198.2010  196.3310 C.2    42  ALA42       0.2287
     35  O        233.7240  199.2120  196.3300 O.2    42  ALA42      -0.2864
     36  CB       230.5840  198.2760  196.9110 C.3    42  ALA42       0.0319
     37  N        235.6740  198.8020  193.5320 N.3    45  VAL45      -0.1231
     38  CA       235.7930  200.2020  193.1540 C.3    45  VAL45       0.1692
     39  C        236.5950  200.9690  194.1920 C.2    45  VAL45       0.2592
     40  O        237.5560  201.6660  193.8590 O.2    45  VAL45      -0.2718
     41  CB       234.4100  200.8210  192.9450 C.3    45  VAL45       0.0266
     42  CG1      234.5610  202.2870  192.7050 C.3    45  VAL45       0.0020
     43  CG2      233.7510  200.1680  191.7790 C.3    45  VAL45       0.0020
     44  N        236.2180  200.8580  195.4630 N.am   46  HIS46      -0.1976
     45  CA       236.9790  201.5220  196.5140 C.3    46  HIS46       0.1656
     46  C        238.4330  201.0910  196.5070 C.2    46  HIS46       0.2291
     47  O        239.3340  201.9200  196.6640 O.2    46  HIS46      -0.2864
     48  CB       236.3560  201.2410  197.8720 C.3    46  HIS46       0.0771
     49  CG       235.0850  201.9780  198.1190 C.ar   46  HIS46       0.0820
     50  ND1      235.0620  203.2990  198.4950 N.ar   46  HIS46      -0.2267
     51  CD2      233.7950  201.5920  198.0200 C.ar   46  HIS46       0.1154
     52  CE1      233.8120  203.6890  198.6440 C.ar   46  HIS46       0.1986
     53  NE2      233.0230  202.6740  198.3520 N.ar   46  HIS46      -0.2212
     54  N        240.1010  203.0780  193.7720 N.3    49  TRP49      -0.1241
     55  CA       240.3220  204.4810  194.0970 C.3    49  TRP49       0.1605
     56  C        241.3090  204.6410  195.2340 C.2    49  TRP49       0.2264
     57  O        242.0590  205.6190  195.2660 O.2    49  TRP49      -0.2867
     58  CB       239.0230  205.1760  194.4680 C.3    49  TRP49       0.0550
     59  CG       238.1350  205.3880  193.3230 C.ar   49  TRP49       0.0003
     60  CD1      237.0400  204.6670  192.9990 C.ar   49  TRP49       0.0946
     61  CD2      238.2840  206.3730  192.3060 C.ar   49  TRP49       0.0152
     62  NE1      236.4760  205.1510  191.8550 N.ar   49  TRP49      -0.2442
     63  CE2      237.2270  206.2020  191.4070 C.ar   49  TRP49       0.0810
     64  CE3      239.2100  207.3900  192.0710 C.ar   49  TRP49       0.0012
     65  CZ2      237.0660  207.0050  190.2900 C.ar   49  TRP49       0.0191
     66  CZ3      239.0510  208.1850  190.9640 C.ar   49  TRP49       0.0001
     67  CH2      237.9880  207.9900  190.0870 C.ar   49  TRP49       0.0015
     68  N        233.5380  217.8690  186.3830 N.3    95  GLN95      -0.1231
     69  CA       233.5170  216.6170  187.1220 C.3    95  GLN95       0.1698
     70  C        232.1910  215.9140  186.9020 C.2    95  GLN95       0.2592
     71  O        232.1160  214.9310  186.1640 O.2    95  GLN95      -0.2718
     72  CB       233.6880  216.8950  188.6130 C.3    95  GLN95       0.0381
     73  CG       233.6650  215.7000  189.5180 C.3    95  GLN95       0.0905
     74  CD       234.9730  215.0220  189.5860 C.2    95  GLN95       0.2608
     75  OE1      235.2150  214.0380  188.9030 O.2    95  GLN95      -0.2717
     76  NE2      235.8440  215.5340  190.4350 N.am   95  GLN95      -0.0878
     77  N        231.1320  216.4690  187.4930 N.am   96  VAL96      -0.1980
     78  CA       229.8090  215.8500  187.4840 C.3    96  VAL96       0.1595
     79  C        229.3720  215.4960  186.0770 C.2    96  VAL96       0.2287
     80  O        228.6230  214.5380  185.8650 O.2    96  VAL96      -0.2864
     81  CB       228.8060  216.8020  188.1620 C.3    96  VAL96       0.0276
     82  CG1      227.4020  216.2390  188.1220 C.3    96  VAL96       0.0022
     83  CG2      229.2470  217.0910  189.5800 C.3    96  VAL96       0.0022
     84  N        232.5170  212.8110  184.8460 N.3    99  MET99      -0.1230
     85  CA       232.5830  211.7020  185.7880 C.3    99  MET99       0.1702
     86  C        231.2580  210.9690  185.8650 C.2    99  MET99       0.2592
     87  O        231.2170  209.7390  185.8150 O.2    99  MET99      -0.2718
     88  CB       232.9890  212.2000  187.1660 C.3    99  MET99       0.0401
     89  CG       233.0290  211.1170  188.1860 C.3    99  MET99       0.0596
     90  SD       234.3280  209.9530  187.8270 S.3    99  MET99      -0.1393
     91  CE       234.0850  208.8060  189.1640 C.3    99  MET99       0.0692
     92  N        230.1610  211.7050  185.9850 N.am  100  GLY100     -0.1957
     93  CA       228.8640  211.0620  186.0390 C.3   100  GLY100      0.1869
     94  C        228.5790  210.1940  184.8340 C.2   100  GLY100      0.2309
     95  O        227.8170  209.2310  184.9260 O.2   100  GLY100     -0.2863
     96  N        230.3490  206.6100  185.5480 N.3   103  GLU103     -0.1231
     97  CA       229.6720  205.8670  186.6000 C.3   103  GLU103      0.1699
     98  C        228.2990  205.4010  186.1420 C.2   103  GLU103      0.2592
     99  O        227.9670  204.2160  186.2470 O.2   103  GLU103     -0.2718
    100  CB       229.5700  206.7370  187.8460 C.3   103  GLU103      0.0402
    101  CG       230.9140  207.1320  188.4060 C.3   103  GLU103      0.1161
    102  CD       231.7390  205.9440  188.8250 C.2   103  GLU103      0.3649
    103  OE1      231.1690  205.0260  189.4310 O.co2 103  GLU103     -0.2457
    104  OE2      232.9520  205.9120  188.5430 O.co2 103  GLU103     -0.2457
    105  N        227.4890  206.3180  185.6150 N.am  104  MET104     -0.1979
    106  CA       226.1770  205.9280  185.1200 C.3   104  MET104      0.1605
    107  C        226.2850  205.0280  183.9000 C.2   104  MET104      0.2287
    108  O        225.3160  204.3530  183.5470 O.2   104  MET104     -0.2864
    109  CB       225.3520  207.1680  184.8040 C.3   104  MET104      0.0413
    110  CG       223.9160  206.8820  184.4500 C.3   104  MET104      0.0598
    111  SD       223.0090  206.2250  185.8520 S.3   104  MET104     -0.1393
    112  CE       222.8210  207.7040  186.8340 C.3   104  MET104      0.0692
    113  N        229.0710  202.8020  183.9010 N.3   106  ARG106     -0.1231
    114  CA       229.5460  201.6330  184.6300 C.3   106  ARG106      0.1694
    115  C        228.4030  200.8980  185.2970 C.2   106  ARG106      0.2592
    116  O        228.4960  199.6950  185.5510 O.2   106  ARG106     -0.2718
    117  CB       230.5840  202.0600  185.6670 C.3   106  ARG106      0.0321
    118  CG       231.0890  200.9450  186.5480 C.3   106  ARG106      0.0489
    119  CD       232.2360  201.4010  187.4220 C.3   106  ARG106      0.2205
    120  NE       231.8710  202.4160  188.4000 N.pl3 106  ARG106     -0.0865
    121  CZ       231.3400  202.1470  189.5820 C.cat 106  ARG106      0.5346
    122  NH1      231.0970  200.9000  189.9350 N.pl3 106  ARG106      0.1354
    123  NH2      231.0500  203.1260  190.4130 N.pl3 106  ARG106      0.1354
    124  N        227.3150  201.6020  185.5810 N.am  107  TYR107     -0.1976
    125  CA       226.2230  200.9970  186.3210 C.3   107  TYR107      0.1639
    126  C        225.3910  200.0870  185.4320 C.2   107  TYR107      0.2290
    127  O        225.1160  198.9390  185.7930 O.2   107  TYR107     -0.2864
    128  CB       225.3710  202.0910  186.9450 C.3   107  TYR107      0.0560
    129  CG       224.1190  201.5940  187.5940 C.ar  107  TYR107     -0.0198
    130  CD1      224.1670  200.8830  188.7740 C.ar  107  TYR107     -0.0009
    131  CD2      222.8840  201.8650  187.0450 C.ar  107  TYR107     -0.0009
    132  CE1      223.0270  200.4320  189.3760 C.ar  107  TYR107      0.0417
    133  CE2      221.7360  201.4250  187.6430 C.ar  107  TYR107      0.0417
    134  CZ       221.8130  200.7050  188.8100 C.ar  107  TYR107      0.1957
    135  OH       220.6660  200.2540  189.4170 O.3   107  TYR107     -0.2866
@<TRIPOS>BOND
     1   108   107    2
     2   107   106    1
     3   113   114    1
     4   110   109    1
     5   110   111    1
     6   114   115    1
     7   114   117    1
     8   109   106    1
     9    94    95    2
    10    94    93    1
    11    84    85    1
    12   106   105    1
    13   115   116    2
    14   115   124   am
    15   126   127    2
    16   126   125    1
    17    96    97    1
    18   124   125    1
    19   105    98   am
    20   117   118    1
    21    85    86    1
    22    85    88    1
    23    87    86    2
    24   111   112    1
    25    86    92   am
    26    80    79    2
    27    92    93    1
    28    79    78    1
    29    98    99    2
    30    98    97    1
    31    71    70    2
    32   125   128    1
    33    68    69    1
    34   118   119    1
    35    97   100    1
    36    70    69    1
    37    70    77   am
    38   128   129    1
    39   131   129   ar
    40   131   133   ar
    41    69    72    1
    42    88    89    1
    43   119   120    1
    44    78    77    1
    45    78    81    1
    46   129   130   ar
    47   133   134   ar
    48    90    89    1
    49    90    91    1
    50   100   101    1
    51    82    81    1
    52    81    83    1
    53   120   121    2
    54   101   102    1
    55   104   102   ar
    56    72    73    1
    57   130   132   ar
    58   134   132   ar
    59   134   135    1
    60   102   103   ar
    61    75    74    2
    62    31    29   am
    63    73    74    1
    64   121   122    1
    65   121   123    1
    66    74    76   am
    67    30    29    2
    68    29    28    1
    69    67    65   ar
    70    67    66   ar
    71    65    63   ar
    72    66    64   ar
    73    28    27    1
    74    63    62   ar
    75    63    61   ar
    76    43    41    1
    77    62    60   ar
    78    27    24    1
    79    64    61   ar
    80    21    19   ar
    81    21    22   ar
    82    61    59   ar
    83    42    41    1
    84    19    16   ar
    85    41    38    1
    86    60    59   ar
    87    24    23    1
    88    24    25    1
    89    22    20   ar
    90    38    37    1
    91    38    39    1
    92    59    58    1
    93    26    25    2
    94    54    55    1
    95    25    32   am
    96    40    39    2
    97    55    58    1
    98    55    56    1
    99    39    44   am
   100    16    18   ar
   101    16    14   ar
   102    20    18   ar
   103     9    10    1
   104    10    13    1
   105    10    11    1
   106    32    33    1
   107    13    14    1
   108    18    17   ar
   109    56    57    2
   110    14    15   ar
   111    12    11    2
   112    44    45    1
   113    33    34    1
   114    33    36    1
   115    35    34    2
   116    17    15   ar
   117    46    45    1
   118    46    47    2
   119    45    48    1
   120     1     2    1
   121     4     3    2
   122     2     3    1
   123     2     5    1
   124    48    49    1
   125    51    49   ar
   126    51    53   ar
   127    49    50   ar
   128    53    52   ar
   129     5     6    1
   130    50    52   ar
   131     6     7    1
   132     8     7    1
