@<TRIPOS>MOLECULE
tmp/6igzP16.pdb
 207 205 0 0 0
SMALL
GASTEIGER

@<TRIPOS>ATOM
      1  N        217.4920  205.0470  174.7250 N.3     4  TRP4       -0.1241
      2  CA       217.9460  206.3010  175.3080 C.3     4  TRP4        0.1605
      3  C        219.1460  206.0600  176.2080 C.2     4  TRP4        0.2264
      4  O        220.2190  206.6200  175.9850 O.2     4  TRP4       -0.2867
      5  CB       216.8130  207.0120  176.0410 C.3     4  TRP4        0.0550
      6  CG       216.2600  206.3460  177.2180 C.ar    4  TRP4        0.0003
      7  CD1      215.3720  205.3280  177.2320 C.ar    4  TRP4        0.0946
      8  CD2      216.4670  206.7190  178.5750 C.ar    4  TRP4        0.0152
      9  NE1      215.0490  205.0010  178.5210 N.ar    4  TRP4       -0.2442
     10  CE2      215.7070  205.8510  179.3650 C.ar    4  TRP4        0.0810
     11  CE3      217.2400  207.6910  179.2010 C.ar    4  TRP4        0.0012
     12  CZ2      215.6970  205.9230  180.7430 C.ar    4  TRP4        0.0191
     13  CZ3      217.2280  207.7600  180.5680 C.ar    4  TRP4        0.0001
     14  CH2      216.4630  206.8850  181.3250 C.ar    4  TRP4        0.0015
     15  N        204.4760  198.5950  177.4170 N.3    13  TRP13      -0.1227
     16  CA       203.4800  199.2150  176.5590 C.3    13  TRP13       0.1737
     17  C        204.0880  199.9360  175.3650 C.2    13  TRP13       0.2595
     18  O        203.3430  200.4170  174.5070 O.2    13  TRP13      -0.2718
     19  CB       202.6620  200.1960  177.3810 C.3    13  TRP13       0.0564
     20  CG       203.5400  201.1960  177.9820 C.ar   13  TRP13       0.0003
     21  CD1      204.1570  201.1230  179.1860 C.ar   13  TRP13       0.0946
     22  CD2      203.9700  202.4090  177.3780 C.ar   13  TRP13       0.0152
     23  NE1      204.9260  202.2370  179.3880 N.ar   13  TRP13      -0.2442
     24  CE2      204.8270  203.0430  178.2860 C.ar   13  TRP13       0.0810
     25  CE3      203.6950  203.0310  176.1630 C.ar   13  TRP13       0.0012
     26  CZ2      205.4130  204.2660  178.0190 C.ar   13  TRP13       0.0191
     27  CZ3      204.2800  204.2350  175.8970 C.ar   13  TRP13       0.0001
     28  CH2      205.1300  204.8420  176.8180 C.ar   13  TRP13       0.0015
     29  N        205.4020  200.0640  175.3060 N.am   14  LEU14      -0.1980
     30  CA       206.0670  200.7780  174.2250 C.3    14  LEU14       0.1596
     31  C        207.0180  199.8290  173.5140 C.2    14  LEU14       0.2287
     32  O        208.0690  199.4730  174.0540 O.2    14  LEU14      -0.2864
     33  CB       206.8120  201.9920  174.7750 C.3    14  LEU14       0.0297
     34  CG       207.5530  202.9310  173.8330 C.3    14  LEU14       0.0022
     35  CD1      207.5010  204.3270  174.3860 C.3    14  LEU14       0.0001
     36  CD2      208.9920  202.4870  173.6930 C.3    14  LEU14       0.0001
     37  N        206.7950  203.0900  166.3970 N.3    18  ILE18      -0.1231
     38  CA       206.7520  204.4130  165.7790 C.3    18  ILE18       0.1678
     39  C        208.1620  204.9730  165.6480 C.2    18  ILE18       0.2434
     40  O        209.0520  204.5810  166.4130 O.2    18  ILE18      -0.2733
     41  CB       205.8350  205.3580  166.5660 C.3    18  ILE18       0.0265
     42  CG1      206.3060  205.5100  167.9980 C.3    18  ILE18       0.0019
     43  CG2      204.4240  204.8330  166.5710 C.3    18  ILE18       0.0020
     44  CD1      205.4920  206.5150  168.7550 C.3    18  ILE18       0.0001
     45  N        208.4230  205.8550  164.6830 N.am   19  PRO19      -0.2718
     46  CA       209.7770  206.3860  164.5200 C.3    19  PRO19       0.1535
     47  C        210.1020  207.3940  165.6040 C.2    19  PRO19       0.2599
     48  O        209.2240  207.9220  166.2840 O.2    19  PRO19      -0.2715
     49  CB       209.7330  207.0490  163.1440 C.3    19  PRO19       0.0310
     50  CG       208.3290  207.4700  163.0030 C.3    19  PRO19       0.0237
     51  CD       207.5110  206.3910  163.6590 C.3    19  PRO19       0.0939
     52  N        211.3930  207.6630  165.7500 N.am   20  GLY20      -0.1941
     53  CA       211.8380  208.5000  166.8440 C.3    20  GLY20       0.2014
     54  C        211.5670  207.8860  168.1940 C.2    20  GLY20       0.2639
     55  O        211.4370  208.6090  169.1850 O.2    20  GLY20      -0.2714
     56  N        211.4710  206.5640  168.2560 N.am   21  ASP21      -0.1957
     57  CA       211.2030  205.8520  169.4940 C.3    21  ASP21       0.1840
     58  C        212.4820  205.1990  169.9840 C.2    21  ASP21       0.2622
     59  O        212.9120  204.1770  169.4450 O.2    21  ASP21      -0.2715
     60  CB       210.1190  204.8110  169.2690 C.3    21  ASP21       0.1450
     61  CG       209.8450  203.9780  170.4880 C.2    21  ASP21       0.3671
     62  OD1      210.5670  204.0790  171.4960 O.co2  21  ASP21      -0.2456
     63  OD2      208.8610  203.2310  170.4470 O.co2  21  ASP21      -0.2456
     64  N        213.0670  205.7740  171.0230 N.am   22  PHE22      -0.1960
     65  CA       214.2280  205.2060  171.6760 C.3    22  PHE22       0.1771
     66  C        213.9150  204.5250  172.9950 C.2    22  PHE22       0.2620
     67  O        214.8380  204.0910  173.6790 O.2    22  PHE22      -0.2715
     68  CB       215.2710  206.2880  171.8570 C.3    22  PHE22       0.0574
     69  CG       215.6660  206.9140  170.5670 C.ar   22  PHE22      -0.0200
     70  CD1      216.5530  206.2830  169.7260 C.ar   22  PHE22      -0.0042
     71  CD2      215.1250  208.1120  170.1800 C.ar   22  PHE22      -0.0042
     72  CE1      216.9010  206.8420  168.5430 C.ar   22  PHE22      -0.0003
     73  CE2      215.4770  208.6740  168.9990 C.ar   22  PHE22      -0.0003
     74  CZ       216.3650  208.0360  168.1790 C.ar   22  PHE22      -0.0000
     75  N        212.6530  204.4480  173.3870 N.am   23  GLY23      -0.1940
     76  CA       212.3020  203.7730  174.6150 C.3    23  GLY23       0.2014
     77  C        212.4010  204.6010  175.8700 C.2    23  GLY23       0.2639
     78  O        212.7050  204.0560  176.9340 O.2    23  GLY23      -0.2714
     79  N        212.1540  205.9010  175.7860 N.am   24  TYR24      -0.1959
     80  CA       212.1900  206.7970  176.9370 C.3    24  TYR24       0.1771
     81  C        210.7830  207.2990  177.2090 C.2    24  TYR24       0.2619
     82  O        210.2820  208.1600  176.4890 O.2    24  TYR24      -0.2715
     83  CB       213.1240  207.9650  176.6570 C.3    24  TYR24       0.0574
     84  CG       213.0590  209.0960  177.6530 C.ar   24  TYR24      -0.0198
     85  CD1      213.7350  209.0270  178.8590 C.ar   24  TYR24      -0.0009
     86  CD2      212.3430  210.2430  177.3730 C.ar   24  TYR24      -0.0009
     87  CE1      213.6930  210.0580  179.7560 C.ar   24  TYR24       0.0417
     88  CE2      212.2980  211.2710  178.2640 C.ar   24  TYR24       0.0417
     89  CZ       212.9730  211.1700  179.4530 C.ar   24  TYR24       0.1957
     90  OH       212.9300  212.1910  180.3570 O.3    24  TYR24      -0.2866
     91  N        210.1460  206.7650  178.2430 N.am   25  ASP25      -0.1971
     92  CA       208.9480  207.3760  178.8130 C.3    25  ASP25       0.1709
     93  C        208.9100  207.0810  180.2990 C.2    25  ASP25       0.2293
     94  O        208.1160  206.2590  180.7670 O.2    25  ASP25      -0.2864
     95  CB       207.6830  206.8810  178.1190 C.3    25  ASP25       0.1436
     96  CG       206.4550  207.6460  178.5480 C.2    25  ASP25       0.3671
     97  OD1      206.5640  208.4830  179.4630 O.co2  25  ASP25      -0.2456
     98  OD2      205.3850  207.4540  177.9490 O.co2  25  ASP25      -0.2456
     99  N        207.8900  208.7240  183.0540 N.3    27  LEU27      -0.1245
    100  CA       206.6720  209.0270  183.7860 C.3    27  LEU27       0.1561
    101  C        205.4710  208.2810  183.2370 C.2    27  LEU27       0.2260
    102  O        204.3910  208.3570  183.8260 O.2    27  LEU27      -0.2867
    103  CB       206.4260  210.5270  183.7660 C.3    27  LEU27       0.0270
    104  CG       207.6600  211.2580  184.2850 C.3    27  LEU27       0.0019
    105  CD1      207.4700  212.7570  184.2990 C.3    27  LEU27       0.0001
    106  CD2      208.0450  210.7300  185.6410 C.3    27  LEU27       0.0001
    107  N        203.4520  208.4720  180.6080 N.3    29  LEU29      -0.1231
    108  CA       202.2540  209.1950  180.2060 C.3    29  LEU29       0.1693
    109  C        201.4420  208.3890  179.2070 C.2    29  LEU29       0.2592
    110  O        200.2850  208.0450  179.4640 O.2    29  LEU29      -0.2718
    111  CB       202.6240  210.5590  179.6360 C.3    29  LEU29       0.0284
    112  CG       202.6980  211.6650  180.6820 C.3    29  LEU29       0.0019
    113  CD1      203.8080  211.4030  181.6560 C.3    29  LEU29       0.0001
    114  CD2      202.9020  212.9990  180.0200 C.3    29  LEU29       0.0001
    115  N        202.0310  208.0670  178.0600 N.am   30  GLY30      -0.1957
    116  CA       201.3900  207.1570  177.1370 C.3    30  GLY30       0.1869
    117  C        201.3690  205.7570  177.7110 C.2    30  GLY30       0.2309
    118  O        202.4300  205.1780  177.9890 O.2    30  GLY30      -0.2863
    119  N        198.5170  207.5920  173.4130 N.3    36  LEU36      -0.1245
    120  CA       199.7640  207.6270  172.6620 C.3    36  LEU36       0.1561
    121  C        199.5530  208.1700  171.2550 C.2    36  LEU36       0.2260
    122  O        200.3650  208.9550  170.7650 O.2    36  LEU36      -0.2867
    123  CB       200.3690  206.2300  172.6070 C.3    36  LEU36       0.0270
    124  CG       201.6920  206.1380  171.8600 C.3    36  LEU36       0.0019
    125  CD1      202.7230  206.9710  172.5800 C.3    36  LEU36       0.0001
    126  CD2      202.1480  204.7020  171.7620 C.3    36  LEU36       0.0001
    127  N        199.4840  212.0580  171.7290 N.3    39  TYR39      -0.1227
    128  CA       200.7520  212.7080  172.0470 C.3    39  TYR39       0.1736
    129  C        201.7000  212.7140  170.8640 C.2    39  TYR39       0.2595
    130  O        202.4690  213.6640  170.6970 O.2    39  TYR39      -0.2718
    131  CB       201.4140  212.0140  173.2240 C.3    39  TYR39       0.0548
    132  CG       200.5880  212.0730  174.4650 C.ar   39  TYR39      -0.0200
    133  CD1      200.0020  213.2510  174.8700 C.ar   39  TYR39      -0.0009
    134  CD2      200.3490  210.9380  175.2070 C.ar   39  TYR39      -0.0009
    135  CE1      199.2340  213.3050  176.0000 C.ar   39  TYR39       0.0417
    136  CE2      199.5750  210.9800  176.3330 C.ar   39  TYR39       0.0417
    137  CZ       199.0190  212.1650  176.7230 C.ar   39  TYR39       0.1957
    138  OH       198.2460  212.2050  177.8520 O.3    39  TYR39      -0.2866
    139  N        201.6740  211.6600  170.0470 N.am   40  VAL40      -0.1980
    140  CA       202.5390  211.6120  168.8750 C.3    40  VAL40       0.1595
    141  C        202.3120  212.8320  168.0080 C.2    40  VAL40       0.2287
    142  O        203.2600  213.4350  167.4990 O.2    40  VAL40      -0.2864
    143  CB       202.3090  210.3130  168.0910 C.3    40  VAL40       0.0276
    144  CG1      203.0680  210.3570  166.7970 C.3    40  VAL40       0.0022
    145  CG2      202.7660  209.1350  168.9020 C.3    40  VAL40       0.0022
    146  N        200.9430  215.6560  169.2110 N.3    42  ALA42      -0.1231
    147  CA       201.3570  216.7820  170.0400 C.3    42  ALA42       0.1694
    148  C        202.8560  217.0070  169.9700 C.2    42  ALA42       0.2591
    149  O        203.3220  218.1420  170.1040 O.2    42  ALA42      -0.2718
    150  CB       200.9380  216.5570  171.4870 C.3    42  ALA42       0.0304
    151  N        203.6240  215.9420  169.7780 N.am   43  GLU43      -0.1979
    152  CA       205.0630  216.0820  169.6170 C.3    43  GLU43       0.1602
    153  C        205.3920  216.8130  168.3340 C.2    43  GLU43       0.2287
    154  O        206.1250  217.8040  168.3400 O.2    43  GLU43      -0.2864
    155  CB       205.7140  214.7080  169.6020 C.3    43  GLU43       0.0415
    156  CG       207.2010  214.7250  169.4640 C.3    43  GLU43       0.1163
    157  CD       207.7560  213.3300  169.3910 C.2    43  GLU43       0.3649
    158  OE1      206.9590  212.3780  169.3410 O.co2  43  GLU43      -0.2457
    159  OE2      208.9860  213.1770  169.3960 O.co2  43  GLU43      -0.2457
    160  N        204.5590  220.4720  168.1980 N.3    46  HIS46      -0.1241
    161  CA       205.6820  221.1050  168.8800 C.3    46  HIS46       0.1621
    162  C        206.9420  221.0360  168.0390 C.2    46  HIS46       0.2264
    163  O        207.5480  222.0620  167.7190 O.2    46  HIS46      -0.2867
    164  CB       205.9290  220.4580  170.2350 C.3    46  HIS46       0.0745
    165  CG       205.0250  220.9480  171.3070 C.ar   46  HIS46       0.0817
    166  ND1      204.8510  220.2830  172.4990 N.ar   46  HIS46      -0.2268
    167  CD2      204.2910  222.0760  171.3950 C.ar   46  HIS46       0.1154
    168  CE1      204.0190  220.9660  173.2620 C.ar   46  HIS46       0.1986
    169  NE2      203.6610  222.0570  172.6130 N.ar   46  HIS46      -0.2212
    170  N        213.0580  216.9450  167.9010 N.3   162  ARG162     -0.1245
    171  CA       213.4700  216.7050  169.2770 C.3   162  ARG162      0.1563
    172  C        214.5430  217.6870  169.7050 C.2   162  ARG162      0.2260
    173  O        214.5190  218.2030  170.8230 O.2   162  ARG162     -0.2867
    174  CB       213.9930  215.2830  169.4190 C.3   162  ARG162      0.0307
    175  CG       213.0000  214.2000  169.1180 C.3   162  ARG162      0.0489
    176  CD       212.0100  214.0170  170.2210 C.3   162  ARG162      0.2205
    177  NE       211.0910  212.9240  169.9290 N.pl3 162  ARG162     -0.0865
    178  CZ       211.3850  211.6400  170.0820 C.cat 162  ARG162      0.5346
    179  NH1      212.5850  211.2740  170.4950 N.pl3 162  ARG162      0.1354
    180  NH2      210.4870  210.7170  169.7920 N.pl3 162  ARG162      0.1354
    181  N        213.2970  221.5900  169.7630 N.3   165  MET165     -0.1230
    182  CA       212.5530  221.7810  170.9980 C.3   165  MET165      0.1702
    183  C        213.5030  221.9480  172.1700 C.2   165  MET165      0.2592
    184  O        213.4890  222.9720  172.8580 O.2   165  MET165     -0.2718
    185  CB       211.6180  220.6050  171.2500 C.3   165  MET165      0.0401
    186  CG       210.4560  220.4970  170.3130 C.3   165  MET165      0.0596
    187  SD       209.3230  219.2230  170.8640 S.3   165  MET165     -0.1393
    188  CE       210.2520  217.7810  170.4150 C.3   165  MET165      0.0692
    189  N        214.3530  220.9510  172.3990 N.am  166  PHE166     -0.1976
    190  CA       215.2680  221.0150  173.5290 C.3   166  PHE166      0.1639
    191  C        216.1720  222.2320  173.4330 C.2   166  PHE166      0.2290
    192  O        216.4140  222.9150  174.4310 O.2   166  PHE166     -0.2864
    193  CB       216.0910  219.7320  173.6040 C.3   166  PHE166      0.0560
    194  CG       217.0660  219.7130  174.7300 C.ar  166  PHE166     -0.0200
    195  CD1      216.6420  219.4720  176.0190 C.ar  166  PHE166     -0.0042
    196  CD2      218.4060  219.9220  174.5030 C.ar  166  PHE166     -0.0042
    197  CE1      217.5330  219.4550  177.0600 C.ar  166  PHE166     -0.0003
    198  CE2      219.3020  219.9050  175.5440 C.ar  166  PHE166     -0.0003
    199  CZ       218.8650  219.6720  176.8240 C.ar  166  PHE166     -0.0000
    200  N        214.4980  225.5710  174.5110 N.3   169  LEU169     -0.1245
    201  CA       214.4480  225.7910  175.9490 C.3   169  LEU169      0.1561
    202  C        215.7160  226.4590  176.4530 C.2   169  LEU169      0.2260
    203  O        215.6660  227.2540  177.3930 O.2   169  LEU169     -0.2867
    204  CB       214.2160  224.4620  176.6570 C.3   169  LEU169      0.0270
    205  CG       214.1110  224.5110  178.1670 C.3   169  LEU169      0.0019
    206  CD1      212.9310  225.3570  178.5400 C.3   169  LEU169      0.0001
    207  CD2      213.9520  223.1120  178.6980 C.3   169  LEU169      0.0001
@<TRIPOS>BOND
     1    50    49    1
     2    50    51    1
     3    49    46    1
     4    51    45    1
     5    46    45    1
     6    46    47    1
     7    45    39   am
     8    47    52   am
     9    47    48    2
    10    39    38    1
    11    39    40    2
    12    52    53    1
    13    38    37    1
    14    38    41    1
    15    41    43    1
    16    41    42    1
    17   144   143    1
    18    53    54    1
    19   142   141    2
    20   163   162    2
    21   170   171    1
    22    42    44    1
    23   141   140    1
    24   162   161    1
    25   143   140    1
    26   143   145    1
    27    74    72   ar
    28    74    73   ar
    29    54    56   am
    30    54    55    2
    31   160   161    1
    32    56    57    1
    33   153   154    2
    34   153   152    1
    35    72    70   ar
    36   140   139    1
    37   161   164    1
    38    73    71   ar
    39   175   174    1
    40   175   176    1
    41   146   147    1
    42    60    57    1
    43    60    61    1
    44   171   174    1
    45   171   172    1
    46   158   157   ar
    47   157   159   ar
    48   157   156    1
    49    59    58    2
    50   156   155    1
    51    57    58    1
    52   155   152    1
    53   152   151    1
    54   172   173    2
    55    70    69   ar
    56   181   182    1
    57   151   148   am
    58   180   178    1
    59   177   178    2
    60   177   176    1
    61   148   147    1
    62   148   149    2
    63    58    64   am
    64   147   150    1
    65   139   129   am
    66   178   179    1
    67    71    69   ar
    68   164   165    1
    69   186   187    1
    70   186   185    1
    71   188   187    1
    72    63    61   ar
    73    61    62   ar
    74    69    68    1
    75   130   129    2
    76   122   121    2
    77   129   128    1
    78   182   185    1
    79   182   183    1
    80    64    65    1
    81   121   120    1
    82   165   167   ar
    83   165   166   ar
    84   167   169   ar
    85    65    68    1
    86    65    66    1
    87   127   128    1
    88   126   124    1
    89   124   125    1
    90   124   123    1
    91   128   131    1
    92   183   189   am
    93   183   184    2
    94   189   190    1
    95   166   168   ar
    96   123   120    1
    97   169   168   ar
    98   120   119    1
    99    66    75   am
   100    66    67    2
   101   131   132    1
   102    75    76    1
   103   191   190    1
   104   191   192    2
   105    31    32    2
   106    31    30    1
   107   190   193    1
   108   193   194    1
   109    36    34    1
   110    34    35    1
   111    34    33    1
   112    30    33    1
   113    30    29    1
   114   132   133   ar
   115   132   134   ar
   116   196   194   ar
   117   196   198   ar
   118    18    17    2
   119   200   201    1
   120    76    77    1
   121     1     2    1
   122   194   195   ar
   123   133   135   ar
   124   134   136   ar
   125    29    17   am
   126     2     5    1
   127     2     3    1
   128    17    16    1
   129   198   199   ar
   130    79    77   am
   131    79    80    1
   132    77    78    2
   133    27    25   ar
   134    27    28   ar
   135   201   202    1
   136   201   204    1
   137     4     3    2
   138   135   137   ar
   139   195   197   ar
   140     5     6    1
   141    25    22   ar
   142   136   137   ar
   143   202   203    2
   144    82    81    2
   145    16    19    1
   146    16    15    1
   147    83    80    1
   148    83    84    1
   149   204   205    1
   150   137   138    1
   151    28    26   ar
   152   199   197   ar
   153    80    81    1
   154   116   117    1
   155   116   115    1
   156    81    91   am
   157     6     7   ar
   158     6     8   ar
   159     7     9   ar
   160    86    84   ar
   161    86    88   ar
   162    22    20   ar
   163    22    24   ar
   164    19    20    1
   165    84    85   ar
   166   117   118    2
   167    98    96   ar
   168    20    21   ar
   169    26    24   ar
   170   115   109   am
   171    95    96    1
   172    95    92    1
   173   205   206    1
   174   205   207    1
   175    91    92    1
   176    88    89   ar
   177    24    23   ar
   178     9    10   ar
   179    96    97   ar
   180     8    11   ar
   181     8    10   ar
   182    92    93    1
   183    85    87   ar
   184    21    23   ar
   185    11    13   ar
   186   109   110    2
   187   109   108    1
   188    10    12   ar
   189    89    87   ar
   190    89    90    1
   191   111   108    1
   192   111   112    1
   193   114   112    1
   194   108   107    1
   195    93    94    2
   196    13    14   ar
   197   112   113    1
   198    12    14   ar
   199    99   100    1
   200   101   100    1
   201   101   102    2
   202   103   100    1
   203   103   104    1
   204   104   105    1
   205   104   106    1
