@<TRIPOS>MOLECULE
tmp/6igzQ08.pdb
 176 174 0 0 0
SMALL
GASTEIGER

@<TRIPOS>ATOM
      1  N        269.5400  200.5430  168.7660 N.3    51  MET51      -0.1230
      2  CA       270.8330  200.1490  168.2180 C.3    51  MET51       0.1702
      3  C        271.4010  201.2450  167.3390 C.2    51  MET51       0.2592
      4  O        272.5090  201.7380  167.5630 O.2    51  MET51      -0.2718
      5  CB       270.7140  198.8630  167.4060 C.3    51  MET51       0.0401
      6  CG       270.4610  197.6350  168.2080 C.3    51  MET51       0.0596
      7  SD       270.6070  196.1640  167.1930 S.3    51  MET51      -0.1393
      8  CE       269.1120  196.2850  166.2450 C.3    51  MET51       0.0692
      9  N        270.6330  201.6550  166.3380 N.am   52  MET52      -0.1979
     10  CA       271.0910  202.7180  165.4660 C.3    52  MET52       0.1605
     11  C        271.2370  204.0260  166.2230 C.2    52  MET52       0.2287
     12  O        272.0170  204.8860  165.8090 O.2    52  MET52      -0.2864
     13  CB       270.1220  202.8620  164.3000 C.3    52  MET52       0.0413
     14  CG       270.5660  203.8070  163.2170 C.3    52  MET52       0.0598
     15  SD       269.4470  203.7220  161.8120 S.3    52  MET52      -0.1393
     16  CE       270.1950  204.9200  160.7210 C.3    52  MET52       0.0692
     17  N        272.0890  204.2590  169.7450 N.3    54  VAL54      -0.1231
     18  CA       273.2340  204.1830  170.6460 C.3    54  VAL54       0.1692
     19  C        274.5330  204.2660  169.8620 C.2    54  VAL54       0.2592
     20  O        275.5010  204.8950  170.3030 O.2    54  VAL54      -0.2718
     21  CB       273.1590  202.9090  171.5070 C.3    54  VAL54       0.0266
     22  CG1      273.0560  201.7000  170.6420 C.3    54  VAL54       0.0020
     23  CG2      274.3870  202.7720  172.3570 C.3    54  VAL54       0.0020
     24  N        274.5750  203.6600  168.6780 N.am   55  PHE55      -0.1976
     25  CA       275.7540  203.8240  167.8440 C.3    55  PHE55       0.1639
     26  C        275.8920  205.2600  167.3730 C.2    55  PHE55       0.2290
     27  O        276.9970  205.7050  167.0550 O.2    55  PHE55      -0.2864
     28  CB       275.6940  202.8760  166.6530 C.3    55  PHE55       0.0560
     29  CG       276.8760  202.9770  165.7470 C.ar   55  PHE55      -0.0200
     30  CD1      278.0640  202.3560  166.0720 C.ar   55  PHE55      -0.0042
     31  CD2      276.8010  203.6850  164.5690 C.ar   55  PHE55      -0.0042
     32  CE1      279.1530  202.4450  165.2440 C.ar   55  PHE55      -0.0003
     33  CE2      277.8930  203.7750  163.7340 C.ar   55  PHE55      -0.0003
     34  CZ       279.0680  203.1540  164.0730 C.ar   55  PHE55      -0.0000
     35  N        277.5970  207.4900  170.4130 N.3    58  LEU58      -0.1245
     36  CA       279.0030  207.1460  170.5760 C.3    58  LEU58       0.1561
     37  C        279.8450  207.7570  169.4680 C.2    58  LEU58       0.2260
     38  O        280.8100  208.4790  169.7320 O.2    58  LEU58      -0.2867
     39  CB       279.1650  205.6310  170.6110 C.3    58  LEU58       0.0270
     40  CG       279.0660  204.9900  171.9890 C.3    58  LEU58       0.0019
     41  CD1      277.7250  205.2540  172.6000 C.3    58  LEU58       0.0001
     42  CD2      279.2930  203.5010  171.8640 C.3    58  LEU58       0.0001
     43  N        265.2980  194.8050  151.4070 N.3   133  PHE133     -0.1227
     44  CA       265.8250  195.2940  152.6750 C.3   133  PHE133      0.1736
     45  C        267.0410  194.5210  153.1520 C.2   133  PHE133      0.2595
     46  O        267.9240  195.1170  153.7730 O.2   133  PHE133     -0.2718
     47  CB       264.7590  195.2720  153.7710 C.3   133  PHE133      0.0547
     48  CG       263.6810  196.2930  153.5820 C.ar  133  PHE133     -0.0202
     49  CD1      263.9200  197.6200  153.8700 C.ar  133  PHE133     -0.0042
     50  CD2      262.4270  195.9260  153.1490 C.ar  133  PHE133     -0.0042
     51  CE1      262.9410  198.5620  153.6990 C.ar  133  PHE133     -0.0003
     52  CE2      261.4430  196.8680  152.9820 C.ar  133  PHE133     -0.0003
     53  CZ       261.7020  198.1870  153.2580 C.ar  133  PHE133     -0.0000
     54  N        267.1270  193.2270  152.8660 N.am  134  ALA134     -0.1966
     55  CA       268.2500  192.4020  153.3130 C.3   134  ALA134      0.1713
     56  C        268.9390  191.7350  152.1280 C.2   134  ALA134      0.2458
     57  O        268.8900  190.5120  151.9730 O.2   134  ALA134     -0.2730
     58  CB       267.7750  191.3610  154.3240 C.3   134  ALA134      0.0333
     59  N        269.5860  192.5130  151.2570 N.am  135  PRO135     -0.2716
     60  CA       270.3330  191.8800  150.1620 C.3   135  PRO135      0.1536
     61  C        271.5780  191.1300  150.6090 C.2   135  PRO135      0.2599
     62  O        271.8270  190.0190  150.1260 O.2   135  PRO135     -0.2715
     63  CB       270.6780  193.0670  149.2570 C.3   135  PRO135      0.0310
     64  CG       270.7180  194.2180  150.1680 C.3   135  PRO135      0.0237
     65  CD       269.6560  193.9800  151.1840 C.3   135  PRO135      0.0939
     66  N        272.3620  191.6920  151.5320 N.am  136  PHE136     -0.1960
     67  CA       273.7380  191.2370  151.7030 C.3   136  PHE136      0.1771
     68  C        273.8230  189.9250  152.4780 C.2   136  PHE136      0.2619
     69  O        274.5750  189.0230  152.0910 O.2   136  PHE136     -0.2715
     70  CB       274.5690  192.3130  152.3930 C.3   136  PHE136      0.0574
     71  CG       276.0040  191.9370  152.5640 C.ar  136  PHE136     -0.0200
     72  CD1      276.8940  192.0690  151.5120 C.ar  136  PHE136     -0.0042
     73  CD2      276.4650  191.4370  153.7650 C.ar  136  PHE136     -0.0042
     74  CE1      278.2230  191.7120  151.6630 C.ar  136  PHE136     -0.0003
     75  CE2      277.7890  191.0810  153.9230 C.ar  136  PHE136     -0.0003
     76  CZ       278.6700  191.2170  152.8730 C.ar  136  PHE136     -0.0000
     77  N        273.0840  189.8110  153.5790 N.am  137  VAL137     -0.1964
     78  CA       272.9550  188.5700  154.3430 C.3   137  VAL137      0.1712
     79  C        274.3300  188.0910  154.8100 C.2   137  VAL137      0.2458
     80  O        274.8520  187.1020  154.2770 O.2   137  VAL137     -0.2730
     81  CB       272.2370  187.4930  153.5050 C.3   137  VAL137      0.0289
     82  CG1      271.9710  186.2330  154.3110 C.3   137  VAL137      0.0023
     83  CG2      270.9490  188.0450  152.9210 C.3   137  VAL137      0.0023
     84  N        274.9690  188.7710  155.7700 N.am  138  PRO138     -0.2727
     85  CA       276.3360  188.3690  156.1600 C.3   138  PRO138      0.1402
     86  C        276.4270  186.9570  156.7100 C.2   138  PRO138      0.2269
     87  O        277.2710  186.1680  156.2570 O.2   138  PRO138     -0.2865
     88  CB       276.6990  189.3990  157.2370 C.3   138  PRO138      0.0296
     89  CG       275.8480  190.5550  156.9550 C.3   138  PRO138      0.0237
     90  CD       274.5580  190.0180  156.4260 C.3   138  PRO138      0.0939
     91  N        271.9490  191.6860  170.5990 N.3   151  ASN151     -0.1240
     92  CA       272.5830  192.9920  170.4820 C.3   151  ASN151      0.1653
     93  C        271.6220  194.1010  170.8880 C.2   151  ASN151      0.2266
     94  O        271.9500  194.9440  171.7280 O.2   151  ASN151     -0.2867
     95  CB       273.0770  193.2220  169.0580 C.3   151  ASN151      0.1155
     96  CG       274.1720  192.2700  168.6570 C.2   151  ASN151      0.2627
     97  OD1      274.1140  191.6570  167.6000 O.2   151  ASN151     -0.2716
     98  ND2      275.1930  192.1640  169.4860 N.am  151  ASN151     -0.0877
     99  N        270.4880  194.5090  174.4330 N.3   154  LEU154     -0.1231
    100  CA       271.5110  195.1800  175.2150 C.3   154  LEU154      0.1693
    101  C        271.5080  196.6780  174.9480 C.2   154  LEU154      0.2592
    102  O        271.6460  197.4770  175.8780 O.2   154  LEU154     -0.2718
    103  CB       272.8740  194.5700  174.9060 C.3   154  LEU154      0.0284
    104  CG       274.0500  195.2420  175.5880 C.3   154  LEU154      0.0019
    105  CD1      273.8970  195.1760  177.0850 C.3   154  LEU154      0.0001
    106  CD2      275.3080  194.5440  175.1600 C.3   154  LEU154      0.0001
    107  N        271.3330  197.0780  173.6910 N.am  155  SER155     -0.1952
    108  CA       271.4700  198.4870  173.3470 C.3   155  SER155      0.1924
    109  C        270.3540  199.3090  173.9620 C.2   155  SER155      0.2314
    110  O        270.6060  200.3580  174.5620 O.2   155  SER155     -0.2863
    111  CB       271.4760  198.6640  171.8400 C.3   155  SER155      0.2116
    112  OG       270.2130  198.3200  171.3190 O.3   155  SER155     -0.2180
    113  N        271.2290  199.6320  177.1300 N.3   158  ALA158     -0.1245
    114  CA       272.3820  200.5120  177.2350 C.3   158  ALA158      0.1562
    115  C        271.9690  201.9650  177.1040 C.2   158  ALA158      0.2260
    116  O        272.5460  202.8400  177.7570 O.2   158  ALA158     -0.2867
    117  CB       273.4170  200.1510  176.1750 C.3   158  ALA158      0.0290
    118  N        271.1920  204.0310  180.0750 N.3   161  GLY161     -0.1210
    119  CA       272.3980  204.5140  180.7120 C.3   161  GLY161      0.1956
    120  C        272.7510  205.9220  180.2810 C.2   161  GLY161      0.2611
    121  O        273.0760  206.7690  181.1120 O.2   161  GLY161     -0.2717
    122  N        272.6520  206.2020  178.9820 N.am  162  PHE162     -0.1976
    123  CA       273.1040  207.4960  178.4830 C.3   162  PHE162      0.1639
    124  C        272.2680  208.6240  179.0510 C.2   162  PHE162      0.2290
    125  O        272.7930  209.6940  179.3720 O.2   162  PHE162     -0.2864
    126  CB       273.0550  207.5310  176.9630 C.3   162  PHE162      0.0560
    127  CG       273.9390  206.5320  176.3170 C.ar  162  PHE162     -0.0200
    128  CD1      274.9120  205.8940  177.0390 C.ar  162  PHE162     -0.0042
    129  CD2      273.8140  206.2430  174.9850 C.ar  162  PHE162     -0.0042
    130  CE1      275.7180  204.9790  176.4520 C.ar  162  PHE162     -0.0003
    131  CE2      274.6340  205.3330  174.3980 C.ar  162  PHE162     -0.0003
    132  CZ       275.5820  204.6980  175.1320 C.ar  162  PHE162     -0.0000
    133  N        273.0830  208.7170  183.1410 N.3   165  GLN165     -0.1245
    134  CA       274.4400  209.2240  183.2990 C.3   165  GLN165      0.1566
    135  C        274.5030  210.6960  182.9250 C.2   165  GLN165      0.2260
    136  O        274.9780  211.5260  183.7020 O.2   165  GLN165     -0.2867
    137  CB       275.4080  208.4020  182.4580 C.3   165  GLN165      0.0367
    138  CG       275.5120  206.9700  182.9080 C.3   165  GLN165      0.0905
    139  CD       276.3630  206.1450  181.9880 C.2   165  GLN165      0.2608
    140  OE1      276.5830  206.5080  180.8420 O.2   165  GLN165     -0.2717
    141  NE2      276.8240  205.0140  182.4720 N.am  165  GLN165     -0.0878
    142  N        278.4170  209.6870  177.0160 N.3   173  PRO173     -0.2102
    143  CA       278.6000  208.2710  177.3590 C.3   173  PRO173      0.1504
    144  C        280.0490  207.8650  177.5190 C.2   173  PRO173      0.2575
    145  O        280.3950  207.1730  178.4850 O.2   173  PRO173     -0.2718
    146  CB       277.9450  207.5550  176.1790 C.3   173  PRO173      0.0282
    147  CG       276.9630  208.5080  175.6790 C.3   173  PRO173      0.0208
    148  CD       277.5990  209.8490  175.8100 C.3   173  PRO173      0.0893
    149  N        280.9150  208.2630  176.5890 N.am  174  ILE174     -0.1980
    150  CA       282.3000  207.8160  176.6510 C.3   174  ILE174      0.1595
    151  C        283.1480  208.7290  177.5180 C.2   174  ILE174      0.2287
    152  O        284.2800  208.3660  177.8670 O.2   174  ILE174     -0.2864
    153  CB       282.8890  207.7060  175.2350 C.3   174  ILE174      0.0276
    154  CG1      284.1880  206.9110  175.2580 C.3   174  ILE174      0.0022
    155  CG2      283.1550  209.0740  174.6890 C.3   174  ILE174      0.0022
    156  CD1      284.6580  206.4930  173.8930 C.3   174  ILE174      0.0001
    157  N        282.2630  209.5930  180.7190 N.3   176  CYS176     -0.1221
    158  CA       282.2450  208.8930  181.9950 C.3   176  CYS176      0.1808
    159  C        282.8780  207.5140  181.9030 C.2   176  CYS176      0.2601
    160  O        283.3260  206.9870  182.9260 O.2   176  CYS176     -0.2717
    161  CB       280.8150  208.7830  182.5170 C.3   176  CYS176      0.0970
    162  SG       279.6520  208.0140  181.3890 S.3   176  CYS176     -0.0800
    163  N        282.9060  206.9160  180.7110 N.am  177  TRP177     -0.1976
    164  CA       283.7100  205.7210  180.4760 C.3   177  TRP177      0.1640
    165  C        285.1220  205.8860  181.0200 C.2   177  TRP177      0.2290
    166  O        285.5430  205.1720  181.9350 O.2   177  TRP177     -0.2864
    167  CB       283.7550  205.4310  178.9790 C.3   177  TRP177      0.0576
    168  CG       284.8130  204.4610  178.5680 C.ar  177  TRP177      0.0006
    169  CD1      286.0580  204.7700  178.1100 C.ar  177  TRP177      0.0946
    170  CD2      284.7060  203.0420  178.5010 C.ar  177  TRP177      0.0152
    171  NE1      286.7470  203.6320  177.8010 N.ar  177  TRP177     -0.2442
    172  CE2      285.9350  202.5540  178.0260 C.ar  177  TRP177      0.0810
    173  CE3      283.6980  202.1350  178.8070 C.ar  177  TRP177      0.0012
    174  CZ2      286.1820  201.2020  177.8540 C.ar  177  TRP177      0.0191
    175  CZ3      283.9480  200.7940  178.6370 C.ar  177  TRP177      0.0001
    176  CH2      285.1770  200.3390  178.1640 C.ar  177  TRP177      0.0015
@<TRIPOS>BOND
     1    63    60    1
     2    63    64    1
     3    62    61    2
     4    60    61    1
     5    60    59    1
     6    64    65    1
     7    61    66   am
     8    65    59    1
     9    59    56   am
    10    43    44    1
    11    72    74   ar
    12    72    71   ar
    13    66    67    1
    14    74    76   ar
    15    67    70    1
    16    67    68    1
    17    57    56    2
    18    69    68    2
    19    56    55    1
    20    70    71    1
    21    68    77   am
    22    71    73   ar
    23    44    45    1
    24    44    47    1
    25    54    45   am
    26    54    55    1
    27    76    75   ar
    28    83    81    1
    29    52    50   ar
    30    52    53   ar
    31    50    48   ar
    32    45    46    2
    33    53    51   ar
    34    55    58    1
    35    81    82    1
    36    81    78    1
    37    77    78    1
    38    48    47    1
    39    48    49   ar
    40    51    49   ar
    41    73    75   ar
    42    80    79    2
    43    78    79    1
    44    79    84   am
    45    84    85    1
    46    84    90    1
    47    85    86    1
    48    85    88    1
    49    87    86    2
    50    90    89    1
    51    89    88    1
    52    16    15    1
    53    15    14    1
    54    14    13    1
    55    33    34   ar
    56    33    31   ar
    57    34    32   ar
    58    13    10    1
    59    31    29   ar
    60    32    30   ar
    61    10    11    1
    62    10     9    1
    63    29    30   ar
    64    29    28    1
    65    12    11    2
    66     8     7    1
    67     9     3   am
    68    28    25    1
    69    27    26    2
    70     7     6    1
    71     3     4    2
    72     3     2    1
    73    26    25    1
    74     5     6    1
    75     5     2    1
    76    97    96    2
    77    25    24    1
    78     2     1    1
    79    96    95    1
    80    96    98   am
    81    24    19   am
    82    95    92    1
    83    37    38    2
    84    37    36    1
    85    17    18    1
    86    19    20    2
    87    19    18    1
    88    35    36    1
    89    92    91    1
    90    92    93    1
    91    36    39    1
    92    39    40    1
    93    22    21    1
    94    18    21    1
    95    93    94    2
    96   112   111    1
    97    21    23    1
    98   111   108    1
    99    42    40    1
   100    40    41    1
   101   108   107    1
   102   108   109    1
   103   107   101   am
   104   156   154    1
   105   109   110    2
   106   131   129   ar
   107   131   132   ar
   108    99   100    1
   109   155   153    1
   110   103   100    1
   111   103   104    1
   112   101   100    1
   113   101   102    2
   114   129   127   ar
   115   132   130   ar
   116   106   104    1
   117   153   154    1
   118   153   150    1
   119   104   105    1
   120   147   148    1
   121   147   146    1
   122   148   142    1
   123   117   114    1
   124   146   143    1
   125   127   126    1
   126   127   128   ar
   127   130   128   ar
   128   149   150    1
   129   149   144   am
   130   150   151    1
   131   126   123    1
   132   142   143    1
   133   115   114    1
   134   115   116    2
   135   113   114    1
   136   143   144    1
   137   151   152    2
   138   144   145    2
   139   171   172   ar
   140   171   169   ar
   141   174   172   ar
   142   174   176   ar
   143   172   170   ar
   144   169   168   ar
   145   176   175   ar
   146   123   122    1
   147   123   124    1
   148   170   168   ar
   149   170   173   ar
   150   168   167    1
   151   175   173   ar
   152   167   164    1
   153   122   120   am
   154   124   125    2
   155   118   119    1
   156   120   119    1
   157   120   121    2
   158   164   163    1
   159   164   165    1
   160   163   159   am
   161   157   158    1
   162   140   139    2
   163   165   166    2
   164   162   161    1
   165   159   158    1
   166   159   160    2
   167   139   141   am
   168   139   138    1
   169   158   161    1
   170   137   138    1
   171   137   134    1
   172   135   134    1
   173   135   136    2
   174   133   134    1
