@<TRIPOS>MOLECULE
tmp/6igzQ05.pdb
 126 126 0 0 0
SMALL
GASTEIGER

@<TRIPOS>ATOM
      1  N        254.1470  207.9430  155.7570 N.3    95  TYR95      -0.1241
      2  CA       254.0850  206.9380  154.7000 C.3    95  TYR95       0.1605
      3  C        254.9380  205.7320  155.0410 C.2    95  TYR95       0.2264
      4  O        254.5020  204.5890  154.8870 O.2    95  TYR95      -0.2867
      5  CB       254.5400  207.5130  153.3620 C.3    95  TYR95       0.0534
      6  CG       254.6820  206.4340  152.3120 C.ar   95  TYR95      -0.0201
      7  CD1      253.5810  205.9450  151.6390 C.ar   95  TYR95      -0.0009
      8  CD2      255.9090  205.8760  152.0270 C.ar   95  TYR95      -0.0009
      9  CE1      253.7070  204.9530  150.7000 C.ar   95  TYR95       0.0417
     10  CE2      256.0380  204.8860  151.0930 C.ar   95  TYR95       0.0417
     11  CZ       254.9380  204.4280  150.4350 C.ar   95  TYR95       0.1957
     12  OH       255.0740  203.4350  149.5020 O.3    95  TYR95      -0.2866
     13  N        252.4960  202.3050  156.3620 N.3    99  ARG99      -0.1245
     14  CA       252.6950  201.2650  155.3610 C.3    99  ARG99       0.1563
     15  C        253.1560  199.9650  156.0080 C.2    99  ARG99       0.2260
     16  O        252.5160  198.9200  155.8570 O.2    99  ARG99      -0.2867
     17  CB       253.6950  201.7330  154.3050 C.3    99  ARG99       0.0307
     18  CG       253.8020  200.7940  153.1480 C.3    99  ARG99       0.0489
     19  CD       254.5450  201.3810  151.9810 C.3    99  ARG99       0.2205
     20  NE       254.5700  200.4400  150.8650 N.pl3  99  ARG99      -0.0865
     21  CZ       253.5800  200.2880  149.9910 C.cat  99  ARG99       0.5346
     22  NH1      252.4790  201.0100  150.1030 N.pl3  99  ARG99       0.1354
     23  NH2      253.6820  199.4010  149.0150 N.pl3  99  ARG99       0.1354
     24  N        251.1510  194.5660  151.1930 N.3   110  VAL110     -0.1231
     25  CA       251.9760  195.7310  150.8990 C.3   110  VAL110      0.1692
     26  C        253.1840  195.4110  150.0240 C.2   110  VAL110      0.2592
     27  O        253.8220  196.3430  149.5070 O.2   110  VAL110     -0.2718
     28  CB       252.4430  196.3800  152.2130 C.3   110  VAL110      0.0266
     29  CG1      253.4250  195.4760  152.8940 C.3   110  VAL110      0.0020
     30  CG2      253.0390  197.7160  151.9660 C.3   110  VAL110      0.0020
     31  N        253.4920  194.1310  149.8040 N.am  111  ASN111     -0.1960
     32  CA       254.7560  193.7470  149.1820 C.3   111  ASN111      0.1819
     33  C        255.0120  194.4360  147.8520 C.2   111  ASN111      0.2621
     34  O        256.1680  194.5390  147.4350 O.2   111  ASN111     -0.2715
     35  CB       254.7960  192.2350  148.9780 C.3   111  ASN111      0.1195
     36  CG       254.8600  191.4880  150.2730 C.2   111  ASN111      0.2630
     37  OD1      254.0640  190.5880  150.5250 O.2   111  ASN111     -0.2716
     38  ND2      255.8240  191.8430  151.1050 N.am  111  ASN111     -0.0877
     39  N        253.9740  194.8980  147.1700 N.am  112  LYS112     -0.1963
     40  CA       254.1670  195.5170  145.8700 C.3   112  LYS112      0.1728
     41  C        254.7560  196.9120  146.0100 C.2   112  LYS112      0.2616
     42  O        254.3520  197.6900  146.8760 O.2   112  LYS112     -0.2715
     43  CB       252.8430  195.5950  145.1260 C.3   112  LYS112      0.0311
     44  CG       252.9620  196.2460  143.7810 C.3   112  LYS112      0.0038
     45  CD       251.6060  196.4150  143.1550 C.3   112  LYS112      0.0206
     46  CE       250.7800  197.4040  143.9610 C.3   112  LYS112      0.1093
     47  NZ       251.3870  198.7630  143.9720 N.3   112  LYS112     -0.1314
     48  N        255.7240  197.2190  145.1640 N.am  113  ASP113     -0.1958
     49  CA       256.2040  198.5880  145.0280 C.3   113  ASP113      0.1825
     50  C        255.0580  199.4440  144.4960 C.2   113  ASP113      0.2464
     51  O        254.4080  199.0520  143.5280 O.2   113  ASP113     -0.2730
     52  CB       257.4010  198.5810  144.0780 C.3   113  ASP113      0.1450
     53  CG       258.0930  199.9140  143.9660 C.2   113  ASP113      0.3671
     54  OD1      257.7550  200.8550  144.6920 O.co2 113  ASP113     -0.2456
     55  OD2      258.9970  200.0200  143.1190 O.co2 113  ASP113     -0.2456
     56  N        254.7420  200.5820  145.1220 N.am  114  PRO114     -0.2715
     57  CA       253.5260  201.3030  144.7140 C.3   114  PRO114      0.1536
     58  C        253.5540  201.8120  143.2920 C.2   114  PRO114      0.2598
     59  O        252.5270  201.7530  142.6060 O.2   114  PRO114     -0.2715
     60  CB       253.4530  202.4540  145.7190 C.3   114  PRO114      0.0310
     61  CG       254.8320  202.6370  146.1690 C.3   114  PRO114      0.0237
     62  CD       255.3660  201.2440  146.2750 C.3   114  PRO114      0.0939
     63  N        254.6890  202.3160  142.8190 N.am  115  ILE115     -0.1964
     64  CA       254.7250  202.9240  141.4930 C.3   115  ILE115      0.1727
     65  C        254.6950  201.8560  140.4030 C.2   115  ILE115      0.2616
     66  O        253.7470  201.7890  139.6130 O.2   115  ILE115     -0.2715
     67  CB       255.9280  203.8780  141.3670 C.3   115  ILE115      0.0290
     68  CG1      257.2290  203.2050  141.7720 C.3   115  ILE115      0.0022
     69  CG2      255.7260  205.1030  142.2270 C.3   115  ILE115      0.0023
     70  CD1      258.4120  204.1060  141.5910 C.3   115  ILE115      0.0001
     71  N        255.7090  201.0030  140.3460 N.am  116  PHE116     -0.1974
     72  CA       255.7350  199.8690  139.4300 C.3   116  PHE116      0.1639
     73  C        255.9400  198.5920  140.2310 C.2   116  PHE116      0.2290
     74  O        255.9690  198.6170  141.4560 O.2   116  PHE116     -0.2864
     75  CB       256.8140  200.0520  138.3630 C.3   116  PHE116      0.0560
     76  CG       258.1620  200.3940  138.9160 C.ar  116  PHE116     -0.0200
     77  CD1      259.0140  199.4070  139.3650 C.ar  116  PHE116     -0.0042
     78  CD2      258.5910  201.7040  138.9510 C.ar  116  PHE116     -0.0042
     79  CE1      260.2540  199.7250  139.8610 C.ar  116  PHE116     -0.0003
     80  CE2      259.8360  202.0230  139.4410 C.ar  116  PHE116     -0.0003
     81  CZ       260.6630  201.0370  139.8980 C.ar  116  PHE116     -0.0000
     82  N        258.4050  195.7120  141.1080 N.3   118  ASN118     -0.1225
     83  CA       259.4110  194.7210  141.4530 C.3   118  ASN118      0.1785
     84  C        258.9950  193.8820  142.6550 C.2   118  ASN118      0.2597
     85  O        259.7180  192.9550  143.0340 O.2   118  ASN118     -0.2718
     86  CB       260.7580  195.3880  141.7270 C.3   118  ASN118      0.1169
     87  CG       261.3810  195.9940  140.4920 C.2   118  ASN118      0.2627
     88  OD1      261.8250  197.1380  140.5070 O.2   118  ASN118     -0.2716
     89  ND2      261.4300  195.2220  139.4150 N.am  118  ASN118     -0.0877
     90  N        257.8590  194.1980  143.2560 N.am  119  TYR119     -0.1962
     91  CA       257.3260  193.5700  144.4650 C.3   119  TYR119      0.1771
     92  C        258.3870  193.5730  145.5620 C.2   119  TYR119      0.2620
     93  O        259.2110  194.4870  145.6450 O.2   119  TYR119     -0.2715
     94  CB       256.8050  192.1980  144.1060 C.3   119  TYR119      0.0574
     95  CG       255.6370  192.2350  143.1670 C.ar  119  TYR119     -0.0198
     96  CD1      254.5980  193.1220  143.3670 C.ar  119  TYR119     -0.0009
     97  CD2      255.5830  191.4010  142.0660 C.ar  119  TYR119     -0.0009
     98  CE1      253.5260  193.1660  142.5100 C.ar  119  TYR119      0.0417
     99  CE2      254.5150  191.4370  141.2000 C.ar  119  TYR119      0.0417
    100  CZ       253.4880  192.3260  141.4270 C.ar  119  TYR119      0.1957
    101  OH       252.4130  192.3780  140.5720 O.3   119  TYR119     -0.2866
    102  N        258.3820  192.5430  146.4050 N.am  120  SER120     -0.1950
    103  CA       259.3730  192.4090  147.4610 C.3   120  SER120      0.1924
    104  C        259.8880  190.9830  147.5820 C.2   120  SER120      0.2314
    105  O        261.0670  190.7070  147.3440 O.2   120  SER120     -0.2863
    106  CB       258.7980  192.8610  148.7970 C.3   120  SER120      0.2116
    107  OG       259.7660  192.7120  149.8160 O.3   120  SER120     -0.2180
    108  N        264.6560  193.3450  149.1500 N.3   132  ILE132     -0.1231
    109  CA       265.3770  194.5970  148.9660 C.3   132  ILE132      0.1692
    110  C        265.9270  195.1330  150.2800 C.2   132  ILE132      0.2592
    111  O        266.9370  195.8470  150.2880 O.2   132  ILE132     -0.2718
    112  CB       264.4570  195.6220  148.2770 C.3   132  ILE132      0.0266
    113  CG1      265.2400  196.8690  147.8720 C.3   132  ILE132      0.0019
    114  CG2      263.3110  195.9960  149.1890 C.3   132  ILE132      0.0020
    115  CD1      264.4890  197.7710  146.9110 C.3   132  ILE132      0.0001
    116  N        265.2980  194.8050  151.4070 N.am  133  PHE133     -0.1976
    117  CA       265.8250  195.2940  152.6750 C.3   133  PHE133      0.1639
    118  C        267.0410  194.5210  153.1520 C.2   133  PHE133      0.2290
    119  O        267.9240  195.1170  153.7730 O.2   133  PHE133     -0.2864
    120  CB       264.7590  195.2720  153.7710 C.3   133  PHE133      0.0560
    121  CG       263.6810  196.2930  153.5820 C.ar  133  PHE133     -0.0200
    122  CD1      263.9200  197.6200  153.8700 C.ar  133  PHE133     -0.0042
    123  CD2      262.4270  195.9260  153.1490 C.ar  133  PHE133     -0.0042
    124  CE1      262.9410  198.5620  153.6990 C.ar  133  PHE133     -0.0003
    125  CE2      261.4430  196.8680  152.9820 C.ar  133  PHE133     -0.0003
    126  CZ       261.7020  198.1870  153.2580 C.ar  133  PHE133     -0.0000
@<TRIPOS>BOND
     1    75    76    1
     2    75    72    1
     3    76    78   ar
     4    76    77   ar
     5    78    80   ar
     6    77    79   ar
     7    89    87   am
     8    72    73    1
     9    72    71    1
    10    80    81   ar
    11    66    65    2
    12    79    81   ar
    13    73    74    2
    14    71    65   am
    15    65    64    1
    16    87    88    2
    17    87    86    1
    18   101   100    1
    19    82    83    1
    20    99   100   ar
    21    99    97   ar
    22    67    64    1
    23    67    68    1
    24    67    69    1
    25   100    98   ar
    26    83    86    1
    27    83    84    1
    28    64    63    1
    29    70    68    1
    30    97    95   ar
    31    98    96   ar
    32    59    58    2
    33    84    85    2
    34    84    90   am
    35    63    58   am
    36    55    53   ar
    37    45    44    1
    38    45    46    1
    39    95    96   ar
    40    95    94    1
    41    90    91    1
    42    58    57    1
    43    51    50    2
    44    44    43    1
    45    46    47    1
    46    53    52    1
    47    53    54   ar
    48    52    49    1
    49    94    91    1
    50    91    92    1
    51    50    49    1
    52    50    56   am
    53    57    56    1
    54    57    60    1
    55    49    48    1
    56    56    62    1
    57    43    40    1
    58    48    41   am
    59    92    93    2
    60    92   102   am
    61    60    61    1
    62    40    41    1
    63    40    39    1
    64    41    42    2
    65    61    62    1
    66   102   103    1
    67   115   113    1
    68    39    33   am
    69   105   104    2
    70    34    33    2
    71   103   104    1
    72   103   106    1
    73    33    32    1
    74   113   112    1
    75   112   109    1
    76   112   114    1
    77   106   107    1
    78   109   108    1
    79   109   110    1
    80    35    32    1
    81    35    36    1
    82    23    21    1
    83    32    31    1
    84    12    11    1
    85    27    26    2
    86    31    26   am
    87    21    22    1
    88    21    20    2
    89    26    25    1
    90    36    37    2
    91    36    38   am
    92   110   111    2
    93   110   116   am
    94    11     9   ar
    95    11    10   ar
    96     9     7   ar
    97    20    19    1
    98    25    24    1
    99    25    28    1
   100    10     8   ar
   101   116   117    1
   102     7     6   ar
   103    30    28    1
   104    19    18    1
   105     8     6   ar
   106    28    29    1
   107     6     5    1
   108   117   118    1
   109   117   120    1
   110   125   123   ar
   111   125   126   ar
   112    18    17    1
   113   123   121   ar
   114   118   119    2
   115   126   124   ar
   116     5     2    1
   117   121   120    1
   118   121   122   ar
   119   124   122   ar
   120    17    14    1
   121     2     3    1
   122     2     1    1
   123     4     3    2
   124    14    15    1
   125    14    13    1
   126    16    15    2
