@<TRIPOS>MOLECULE
tmp/6igzQ09.pdb
 165 163 0 0 0
SMALL
GASTEIGER

@<TRIPOS>ATOM
      1  N        261.7140  184.6720  179.9920 N.3    24  TRP24      -0.1227
      2  CA       261.5790  185.8240  180.8760 C.3    24  TRP24       0.1737
      3  C        260.1950  186.4420  180.7140 C.2    24  TRP24       0.2595
      4  O        259.9360  187.1710  179.7590 O.2    24  TRP24      -0.2718
      5  CB       262.6960  186.8130  180.5660 C.3    24  TRP24       0.0564
      6  CG       262.5980  188.1420  181.1990 C.ar   24  TRP24       0.0003
      7  CD1      262.3840  189.3130  180.5680 C.ar   24  TRP24       0.0946
      8  CD2      262.7100  188.4460  182.5840 C.ar   24  TRP24       0.0152
      9  NE1      262.3640  190.3410  181.4650 N.ar   24  TRP24      -0.2442
     10  CE2      262.5590  189.8310  182.7170 C.ar   24  TRP24       0.0810
     11  CE3      262.9260  187.6820  183.7260 C.ar   24  TRP24       0.0012
     12  CZ2      262.6110  190.4690  183.9410 C.ar   24  TRP24       0.0191
     13  CZ3      262.9790  188.3170  184.9400 C.ar   24  TRP24       0.0001
     14  CH2      262.8290  189.6990  185.0390 C.ar   24  TRP24       0.0015
     15  N        259.3150  186.1440  181.6670 N.am   25  ASP25      -0.1960
     16  CA       258.0250  186.8250  181.8030 C.3    25  ASP25       0.1825
     17  C        257.6220  186.8870  183.2580 C.2    25  ASP25       0.2464
     18  O        256.8540  186.0520  183.7450 O.2    25  ASP25      -0.2730
     19  CB       256.9250  186.1670  180.9820 C.3    25  ASP25       0.1450
     20  CG       256.8080  186.7550  179.6240 C.2    25  ASP25       0.3671
     21  OD1      257.3480  187.8560  179.4310 O.co2  25  ASP25      -0.2456
     22  OD2      256.1550  186.1490  178.7610 O.co2  25  ASP25      -0.2456
     23  N        258.1510  187.8440  184.0030 N.am   26  PRO26      -0.2715
     24  CA       257.5840  188.0970  185.3280 C.3    26  PRO26       0.1536
     25  C        256.0870  188.3150  185.2720 C.2    26  PRO26       0.2598
     26  O        255.3420  187.7130  186.0530 O.2    26  PRO26      -0.2715
     27  CB       258.3270  189.3540  185.7760 C.3    26  PRO26       0.0310
     28  CG       259.5720  189.3160  185.0460 C.3    26  PRO26       0.0237
     29  CD       259.2960  188.7110  183.7200 C.3    26  PRO26       0.0939
     30  N        255.6220  189.1480  184.3470 N.am   27  LEU27      -0.1964
     31  CA       254.2220  189.5370  184.3020 C.3    27  LEU27       0.1728
     32  C        253.3820  188.6780  183.3690 C.2    27  LEU27       0.2617
     33  O        252.1550  188.7950  183.3910 O.2    27  LEU27      -0.2715
     34  CB       254.1020  190.9980  183.8840 C.3    27  LEU27       0.0311
     35  CG       254.3210  192.0860  184.9270 C.3    27  LEU27       0.0022
     36  CD1      255.7520  192.1150  185.3740 C.3    27  LEU27       0.0001
     37  CD2      253.9370  193.4190  184.3480 C.3    27  LEU27       0.0001
     38  N        254.0040  187.8290  182.5610 N.am   28  GLY28      -0.1940
     39  CA       253.2690  186.9570  181.6680 C.3    28  GLY28       0.2014
     40  C        252.4250  187.6860  180.6470 C.2    28  GLY28       0.2638
     41  O        251.2200  187.4480  180.5480 O.2    28  GLY28      -0.2714
     42  N        253.0380  188.5860  179.8860 N.am   29  LEU29      -0.1977
     43  CA       252.3140  189.2750  178.8260 C.3    29  LEU29       0.1596
     44  C        252.2400  188.4640  177.5410 C.2    29  LEU29       0.2287
     45  O        251.4320  188.7870  176.6650 O.2    29  LEU29      -0.2864
     46  CB       252.9620  190.6290  178.5300 C.3    29  LEU29       0.0297
     47  CG       252.5520  191.8520  179.3460 C.3    29  LEU29       0.0022
     48  CD1      252.9530  191.6820  180.7660 C.3    29  LEU29       0.0001
     49  CD2      253.2000  193.0840  178.7850 C.3    29  LEU29       0.0001
     50  N        261.6240  198.9580  168.9170 N.3    46  ASN46      -0.1240
     51  CA       262.3980  199.6260  169.9550 C.3    46  ASN46       0.1653
     52  C        263.8660  199.2440  169.8680 C.2    46  ASN46       0.2266
     53  O        264.7460  200.1000  169.9930 O.2    46  ASN46      -0.2867
     54  CB       261.8320  199.2920  171.3280 C.3    46  ASN46       0.1155
     55  CG       260.5400  200.0040  171.6040 C.2    46  ASN46       0.2627
     56  OD1      260.5300  201.1700  171.9770 O.2    46  ASN46      -0.2716
     57  ND2      259.4360  199.3160  171.3960 N.am   46  ASN46      -0.0877
     58  N        265.6250  200.8230  166.5910 N.3    49  TRP49      -0.1227
     59  CA       265.9300  202.2430  166.6760 C.3    49  TRP49       0.1737
     60  C        267.0280  202.5100  167.6860 C.2    49  TRP49       0.2595
     61  O        267.9120  203.3330  167.4350 O.2    49  TRP49      -0.2718
     62  CB       264.6940  203.0590  167.0290 C.3    49  TRP49       0.0564
     63  CG       263.7370  203.2090  165.9150 C.ar   49  TRP49       0.0003
     64  CD1      262.5670  202.5470  165.7490 C.ar   49  TRP49       0.0946
     65  CD2      263.8860  204.0570  164.7780 C.ar   49  TRP49       0.0152
     66  NE1      261.9590  202.9480  164.5890 N.ar   49  TRP49      -0.2442
     67  CE2      262.7540  203.8760  163.9750 C.ar   49  TRP49       0.0810
     68  CE3      264.8670  204.9590  164.3660 C.ar   49  TRP49       0.0012
     69  CZ2      262.5740  204.5600  162.7860 C.ar   49  TRP49       0.0191
     70  CZ3      264.6840  205.6400  163.1870 C.ar   49  TRP49       0.0001
     71  CH2      263.5500  205.4360  162.4090 C.ar   49  TRP49       0.0015
     72  N        266.9940  201.8300  168.8310 N.am   50  ALA50      -0.1980
     73  CA       267.9960  202.0890  169.8570 C.3    50  ALA50       0.1597
     74  C        269.3870  201.7310  169.3590 C.2    50  ALA50       0.2287
     75  O        270.3190  202.5290  169.4850 O.2    50  ALA50      -0.2864
     76  CB       267.6600  201.3230  171.1310 C.3    50  ALA50       0.0319
     77  N        270.6330  201.6550  166.3380 N.3    52  MET52      -0.1230
     78  CA       271.0910  202.7180  165.4660 C.3    52  MET52       0.1702
     79  C        271.2370  204.0260  166.2230 C.2    52  MET52       0.2592
     80  O        272.0170  204.8860  165.8090 O.2    52  MET52      -0.2718
     81  CB       270.1220  202.8620  164.3000 C.3    52  MET52       0.0401
     82  CG       270.5660  203.8070  163.2170 C.3    52  MET52       0.0596
     83  SD       269.4470  203.7220  161.8120 S.3    52  MET52      -0.1393
     84  CE       270.1950  204.9200  160.7210 C.3    52  MET52       0.0692
     85  N        270.5110  204.1930  167.3200 N.am   53  GLY53      -0.1957
     86  CA       270.6500  205.3770  168.1370 C.3    53  GLY53       0.1869
     87  C        271.8650  205.3680  169.0370 C.2    53  GLY53       0.2309
     88  O        272.5970  206.3570  169.1040 O.2    53  GLY53      -0.2863
     89  N        274.7900  205.9970  167.3270 N.3    56  GLY56      -0.1210
     90  CA       274.8450  207.3870  166.9420 C.3    56  GLY56       0.1956
     91  C        275.5850  208.2230  167.9570 C.2    56  GLY56       0.2611
     92  O        276.5740  208.8720  167.6190 O.2    56  GLY56      -0.2717
     93  N        275.1340  208.1900  169.2120 N.am   57  ILE57      -0.1979
     94  CA       275.7300  209.0350  170.2420 C.3    57  ILE57       0.1595
     95  C        277.2210  208.7650  170.3540 C.2    57  ILE57       0.2287
     96  O        278.0360  209.6920  170.4030 O.2    57  ILE57      -0.2864
     97  CB       275.0330  208.8160  171.5930 C.3    57  ILE57       0.0276
     98  CG1      273.5780  209.2330  171.5190 C.3    57  ILE57       0.0022
     99  CG2      275.7020  209.6420  172.6470 C.3    57  ILE57       0.0022
    100  CD1      272.7940  208.8370  172.7290 C.3    57  ILE57       0.0001
    101  N        278.8720  210.1090  167.6450 N.3    60  GLN60      -0.1245
    102  CA       278.6120  211.5390  167.7560 C.3    60  GLN60       0.1566
    103  C        279.6230  212.2460  168.6430 C.2    60  GLN60       0.2260
    104  O        279.7490  213.4720  168.5690 O.2    60  GLN60      -0.2867
    105  CB       277.1970  211.7660  168.2950 C.3    60  GLN60       0.0367
    106  CG       276.7500  213.1980  168.3330 C.3    60  GLN60       0.0905
    107  CD       276.7280  213.7970  166.9580 C.2    60  GLN60       0.2608
    108  OE1      276.0250  213.3180  166.0670 O.2    60  GLN60      -0.2717
    109  NE2      277.5210  214.8370  166.7610 N.am   60  GLN60      -0.0878
    110  N        275.0650  215.0870  174.2270 N.3    69  TRP69      -0.1241
    111  CA       273.9390  215.3320  173.3420 C.3    69  TRP69       0.1605
    112  C        272.7820  215.8680  174.1640 C.2    69  TRP69       0.2264
    113  O        271.9670  215.1280  174.6980 O.2    69  TRP69      -0.2867
    114  CB       273.5850  214.0180  172.6580 C.3    69  TRP69       0.0550
    115  CG       273.4180  212.9270  173.6830 C.ar   69  TRP69       0.0003
    116  CD1      274.4140  212.2610  174.3290 C.ar   69  TRP69       0.0946
    117  CD2      272.1920  212.3780  174.1730 C.ar   69  TRP69       0.0152
    118  NE1      273.8900  211.3500  175.2050 N.ar   69  TRP69      -0.2442
    119  CE2      272.5260  211.3980  175.1260 C.ar   69  TRP69       0.0810
    120  CE3      270.8420  212.6230  173.9030 C.ar   69  TRP69       0.0012
    121  CZ2      271.5660  210.6610  175.8010 C.ar   69  TRP69       0.0191
    122  CZ3      269.8930  211.8990  174.5820 C.ar   69  TRP69       0.0001
    123  CH2      270.2560  210.9260  175.5160 C.ar   69  TRP69       0.0015
    124  N        272.2580  218.8460  172.2310 N.3    71  ASP71      -0.1239
    125  CA       272.5150  219.9690  171.3440 C.3    71  ASP71       0.1674
    126  C        271.4680  220.0920  170.2480 C.2    71  ASP71       0.2266
    127  O        271.2930  219.1870  169.4280 O.2    71  ASP71      -0.2867
    128  CB       273.9060  219.8240  170.7380 C.3    71  ASP71       0.1410
    129  CG       274.1310  218.4610  170.1230 C.2    71  ASP71       0.3668
    130  OD1      273.2640  217.5790  170.2970 O.co2  71  ASP71      -0.2456
    131  OD2      275.1820  218.2690  169.4780 O.co2  71  ASP71      -0.2456
    132  N        269.1080  198.8600  173.8040 N.3   156  MET156     -0.1230
    133  CA       268.0020  199.5020  174.5020 C.3   156  MET156      0.1702
    134  C        268.3330  199.6540  175.9730 C.2   156  MET156      0.2592
    135  O        268.2270  200.7410  176.5460 O.2   156  MET156     -0.2718
    136  CB       266.7230  198.6840  174.3480 C.3   156  MET156      0.0401
    137  CG       266.2070  198.5490  172.9470 C.3   156  MET156      0.0596
    138  SD       264.5950  197.7700  172.9710 S.3   156  MET156     -0.1393
    139  CE       265.0630  196.1230  173.4470 C.3   156  MET156      0.0692
    140  N        268.7630  198.5600  176.5900 N.am  157  LEU157     -0.1980
    141  CA       269.1870  198.6080  177.9760 C.3   157  LEU157      0.1596
    142  C        270.3730  199.5360  178.1450 C.2   157  LEU157      0.2287
    143  O        270.5210  200.1680  179.1930 O.2   157  LEU157     -0.2864
    144  CB       269.5360  197.2020  178.4450 C.3   157  LEU157      0.0297
    145  CG       269.6170  196.9540  179.9410 C.3   157  LEU157      0.0022
    146  CD1      269.2760  195.5140  180.1940 C.3   157  LEU157      0.0001
    147  CD2      270.9760  197.2640  180.4830 C.3   157  LEU157      0.0001
    148  N        270.9600  202.2390  176.2790 N.3   159  PHE159     -0.1227
    149  CA       270.5780  203.6210  176.0250 C.3   159  PHE159      0.1736
    150  C        270.1490  204.3220  177.3010 C.2   159  PHE159      0.2595
    151  O        270.5570  205.4590  177.5630 O.2   159  PHE159     -0.2718
    152  CB       269.4640  203.6840  174.9930 C.3   159  PHE159      0.0547
    153  CG       268.8820  205.0500  174.8370 C.ar  159  PHE159     -0.0202
    154  CD1      269.5550  206.0240  174.1330 C.ar  159  PHE159     -0.0042
    155  CD2      267.6630  205.3610  175.4000 C.ar  159  PHE159     -0.0042
    156  CE1      269.0210  207.2810  173.9940 C.ar  159  PHE159     -0.0003
    157  CE2      267.1270  206.6160  175.2650 C.ar  159  PHE159     -0.0003
    158  CZ       267.8060  207.5760  174.5610 C.ar  159  PHE159     -0.0000
    159  N        269.3180  203.6600  178.1080 N.am  160  VAL160     -0.1980
    160  CA       268.8770  204.2510  179.3670 C.3   160  VAL160      0.1595
    161  C        270.0650  204.7330  180.1740 C.2   160  VAL160      0.2287
    162  O        269.9860  205.7520  180.8700 O.2   160  VAL160     -0.2864
    163  CB       268.0260  203.2400  180.1550 C.3   160  VAL160      0.0276
    164  CG1      267.7320  203.7630  181.5340 C.3   160  VAL160      0.0022
    165  CG2      266.7420  202.9740  179.4200 C.3   160  VAL160      0.0022
@<TRIPOS>BOND
     1    84    83    1
     2    83    82    1
     3    71    69   ar
     4    71    70   ar
     5    69    67   ar
     6    70    68   ar
     7    82    81    1
     8    67    66   ar
     9    67    65   ar
    10    81    78    1
    11    68    65   ar
    12    66    64   ar
    13    65    63   ar
    14    78    79    1
    15    78    77    1
    16    64    63   ar
    17    80    79    2
    18    63    62    1
    19   108   107    2
    20    79    85   am
    21    58    59    1
    22    59    62    1
    23    59    60    1
    24   109   107   am
    25    90    89    1
    26    90    91    1
    27   107   106    1
    28    85    86    1
    29    61    60    2
    30    92    91    2
    31   101   102    1
    32    60    72   am
    33   102   105    1
    34   102   103    1
    35    91    93   am
    36    86    87    1
    37   105   106    1
    38   104   103    2
    39    72    73    1
    40    50    51    1
    41    87    88    2
    42    93    94    1
    43    74    75    2
    44    74    73    1
    45   127   126    2
    46   131   129   ar
    47    73    76    1
    48    52    51    1
    49    52    53    2
    50    51    54    1
    51   129   130   ar
    52   129   128    1
    53    94    95    1
    54    94    97    1
    55   126   125    1
    56    95    96    2
    57   128   125    1
    58    54    55    1
    59   125   124    1
    60    57    55   am
    61    98    97    1
    62    98   100    1
    63    97    99    1
    64    55    56    2
    65   114   111    1
    66   114   115    1
    67   137   138    1
    68   137   136    1
    69   138   139    1
    70   111   112    1
    71   111   110    1
    72   115   117   ar
    73   115   116   ar
    74   132   133    1
    75   120   117   ar
    76   120   122   ar
    77   156   154   ar
    78   156   158   ar
    79   154   153   ar
    80   112   113    2
    81   117   119   ar
    82   116   118   ar
    83   136   133    1
    84   133   134    1
    85   158   157   ar
    86   122   123   ar
    87   153   152    1
    88   153   155   ar
    89   152   149    1
    90   119   118   ar
    91   119   121   ar
    92   157   155   ar
    93   123   121   ar
    94   134   135    2
    95   134   140   am
    96   149   148    1
    97   149   150    1
    98   140   141    1
    99    45    44    2
   100   150   151    2
   101   150   159   am
   102    44    43    1
   103   141   142    1
   104   141   144    1
   105   159   160    1
   106   142   143    2
   107   144   145    1
   108    46    43    1
   109    46    47    1
   110    22    20   ar
   111    49    47    1
   112    43    42    1
   113    47    48    1
   114   160   163    1
   115   160   161    1
   116   165   163    1
   117    21    20   ar
   118    20    19    1
   119     4     3    2
   120    42    40   am
   121   145   146    1
   122   145   147    1
   123     1     2    1
   124   163   164    1
   125   161   162    2
   126    41    40    2
   127     5     2    1
   128     5     6    1
   129     7     6   ar
   130     7     9   ar
   131    40    39    1
   132     3     2    1
   133     3    15   am
   134    19    16    1
   135     6     8   ar
   136     9    10   ar
   137    15    16    1
   138    39    38    1
   139    16    17    1
   140    38    32   am
   141     8    10   ar
   142     8    11   ar
   143    10    12   ar
   144    17    18    2
   145    17    23   am
   146    32    33    2
   147    32    31    1
   148    29    23    1
   149    29    28    1
   150    11    13   ar
   151    34    31    1
   152    34    35    1
   153    12    14   ar
   154    23    24    1
   155    31    30    1
   156    30    25   am
   157    37    35    1
   158    35    36    1
   159    13    14   ar
   160    28    27    1
   161    25    24    1
   162    25    26    2
   163    24    27    1
