@<TRIPOS>MOLECULE
tmp/6igzM18.pdb
 144 136 0 0 0
SMALL
GASTEIGER

@<TRIPOS>ATOM
      1  N        158.3650  220.8240  170.3980 N.3    39  ARG39      -0.1245
      2  CA       157.9980  222.1180  170.9590 C.3    39  ARG39       0.1563
      3  C        159.0760  223.1510  170.7070 C.2    39  ARG39       0.2260
      4  O        158.7730  224.3300  170.5030 O.2    39  ARG39      -0.2867
      5  CB       157.7430  222.0220  172.4550 C.3    39  ARG39       0.0307
      6  CG       157.3070  223.3540  173.0170 C.3    39  ARG39       0.0489
      7  CD       157.0290  223.3250  174.4950 C.3    39  ARG39       0.2205
      8  NE       156.5080  224.6150  174.9250 N.pl3  39  ARG39      -0.0865
      9  CZ       157.2710  225.6520  175.2370 C.cat  39  ARG39       0.5346
     10  NH1      158.5860  225.5440  175.1680 N.pl3  39  ARG39       0.1354
     11  NH2      156.7230  226.7960  175.6140 N.pl3  39  ARG39       0.1354
     12  N        158.8280  224.3030  166.9730 N.3    42  GLU42      -0.1231
     13  CA       157.8060  225.3390  166.9260 C.3    42  GLU42       0.1699
     14  C        158.3070  226.6430  167.5140 C.2    42  GLU42       0.2592
     15  O        158.0180  227.7230  166.9910 O.2    42  GLU42      -0.2718
     16  CB       156.5600  224.8640  167.6720 C.3    42  GLU42       0.0402
     17  CG       155.4560  225.8970  167.7940 C.3    42  GLU42       0.1161
     18  CD       154.1870  225.3230  168.4030 C.2    42  GLU42       0.3649
     19  OE1      154.1540  224.1110  168.6870 O.co2  42  GLU42      -0.2457
     20  OE2      153.2220  226.0860  168.6070 O.co2  42  GLU42      -0.2457
     21  N        159.0750  226.5670  168.5910 N.am   43  CYS43      -0.1970
     22  CA       159.4180  227.7910  169.2920 C.3    43  CYS43       0.1712
     23  C        160.5720  228.5280  168.6250 C.2    43  CYS43       0.2296
     24  O        160.5690  229.7610  168.5720 O.2    43  CYS43      -0.2864
     25  CB       159.7450  227.4850  170.7440 C.3    43  CYS43       0.0983
     26  SG       159.8470  228.9780  171.6970 S.3    43  CYS43      -0.0798
     27  N        159.0800  230.8920  166.1800 N.3    46  MET46      -0.1230
     28  CA       158.4720  232.1150  166.6880 C.3    46  MET46       0.1702
     29  C        159.5340  233.1060  167.1300 C.2    46  MET46       0.2592
     30  O        159.5050  234.2770  166.7390 O.2    46  MET46      -0.2718
     31  CB       157.5430  231.7920  167.8490 C.3    46  MET46       0.0401
     32  CG       156.5230  230.7310  167.5380 C.3    46  MET46       0.0596
     33  SD       155.3880  231.1770  166.2310 S.3    46  MET46      -0.1393
     34  CE       154.4170  229.6780  166.1580 C.3    46  MET46       0.0692
     35  N        160.4820  232.6540  167.9560 N.am   47  ASN47      -0.1974
     36  CA       161.5510  233.5370  168.4050 C.3    47  ASN47       0.1688
     37  C        162.2610  234.1950  167.2390 C.2    47  ASN47       0.2292
     38  O        162.7950  235.2960  167.3840 O.2    47  ASN47      -0.2864
     39  CB       162.5620  232.7730  169.2530 C.3    47  ASN47       0.1181
     40  CG       162.0950  232.5650  170.6640 C.2    47  ASN47       0.2629
     41  OD1      161.2910  233.3330  171.1750 O.2    47  ASN47      -0.2716
     42  ND2      162.6030  231.5310  171.3130 N.am   47  ASN47      -0.0877
     43  N        159.6420  237.0970  165.4880 N.3    50  TRP50      -0.1241
     44  CA       159.7370  238.3520  166.2150 C.3    50  TRP50       0.1605
     45  C        161.1150  238.9630  166.0500 C.2    50  TRP50       0.2264
     46  O        161.2450  240.1790  165.8830 O.2    50  TRP50      -0.2867
     47  CB       159.4240  238.1560  167.6920 C.3    50  TRP50       0.0550
     48  CG       158.0040  237.8650  167.9500 C.ar   50  TRP50       0.0003
     49  CD1      157.4640  236.6680  168.2770 C.ar   50  TRP50       0.0946
     50  CD2      156.9150  238.7830  167.8430 C.ar   50  TRP50       0.0152
     51  NE1      156.1050  236.7860  168.4210 N.ar   50  TRP50      -0.2442
     52  CE2      155.7440  238.0770  168.1540 C.ar   50  TRP50       0.0810
     53  CE3      156.8210  240.1390  167.5300 C.ar   50  TRP50       0.0012
     54  CZ2      154.4960  238.6730  168.1530 C.ar   50  TRP50       0.0191
     55  CZ3      155.5830  240.7300  167.5330 C.ar   50  TRP50       0.0001
     56  CH2      154.4340  239.9990  167.8420 C.ar   50  TRP50       0.0015
     57  N        148.0400  246.9870  174.3540 N.3   101  GLU101     -0.1231
     58  CA       148.9470  245.9140  173.9810 C.3   101  GLU101      0.1699
     59  C        148.5160  244.5770  174.5620 C.2   101  GLU101      0.2592
     60  O        148.7810  243.5310  173.9640 O.2   101  GLU101     -0.2718
     61  CB       150.3540  246.2740  174.4380 C.3   101  GLU101      0.0402
     62  CG       151.4190  245.2750  174.0760 C.3   101  GLU101      0.1161
     63  CD       152.7930  245.7410  174.5020 C.2   101  GLU101      0.3649
     64  OE1      152.8890  246.8370  175.0940 O.co2 101  GLU101     -0.2457
     65  OE2      153.7730  245.0150  174.2460 O.co2 101  GLU101     -0.2457
     66  N        147.8550  244.5790  175.7160 N.am  102  LEU102     -0.1980
     67  CA       147.4250  243.3130  176.2960 C.3   102  LEU102      0.1596
     68  C        146.1590  242.7900  175.6320 C.2   102  LEU102      0.2287
     69  O        146.0370  241.5830  175.4000 O.2   102  LEU102     -0.2864
     70  CB       147.2100  243.4640  177.7970 C.3   102  LEU102      0.0297
     71  CG       148.4540  243.8360  178.5930 C.3   102  LEU102      0.0022
     72  CD1      148.0950  244.0060  180.0520 C.3   102  LEU102      0.0001
     73  CD2      149.5380  242.7930  178.4170 C.3   102  LEU102      0.0001
     74  N        147.5950  241.5110  171.8440 N.3   105  MET105     -0.1230
     75  CA       148.4740  240.3490  171.9110 C.3   105  MET105      0.1702
     76  C        147.7930  239.1900  172.6250 C.2   105  MET105      0.2592
     77  O        147.7150  238.0770  172.0930 O.2   105  MET105     -0.2718
     78  CB       149.7760  240.7280  172.6100 C.3   105  MET105      0.0401
     79  CG       150.5670  241.7760  171.8700 C.3   105  MET105      0.0596
     80  SD       150.9790  241.2380  170.2080 S.3   105  MET105     -0.1393
     81  CE       152.0820  239.8860  170.5650 C.3   105  MET105      0.0692
     82  N        147.2820  239.4380  173.8280 N.am  106  GLY106     -0.1957
     83  CA       146.5100  238.4190  174.5130 C.3   106  GLY106      0.1869
     84  C        145.3480  237.9070  173.6890 C.2   106  GLY106      0.2309
     85  O        144.9220  236.7640  173.8530 O.2   106  GLY106     -0.2863
     86  N        147.6850  236.1690  170.5120 N.3   109  GLU109     -0.1231
     87  CA       148.4420  234.9690  170.8520 C.3   109  GLU109      0.1699
     88  C        147.5380  233.8700  171.3870 C.2   109  GLU109      0.2592
     89  O        147.6270  232.7180  170.9490 O.2   109  GLU109     -0.2718
     90  CB       149.5440  235.3060  171.8570 C.3   109  GLU109      0.0402
     91  CG       150.7250  236.0620  171.2630 C.3   109  GLU109      0.1161
     92  CD       151.4670  235.2480  170.2240 C.2   109  GLU109      0.3649
     93  OE1      151.6280  234.0360  170.4400 O.co2 109  GLU109     -0.2457
     94  OE2      151.8920  235.8070  169.1960 O.co2 109  GLU109     -0.2457
     95  N        146.6600  234.1990  172.3330 N.am  110  ALA110     -0.1980
     96  CA       145.8220  233.1610  172.9250 C.3   110  ALA110      0.1597
     97  C        144.9420  232.5020  171.8770 C.2   110  ALA110      0.2287
     98  O        144.6820  231.2970  171.9460 O.2   110  ALA110     -0.2864
     99  CB       144.9700  233.7370  174.0490 C.3   110  ALA110      0.0319
    100  N        145.8780  231.9060  168.9520 N.3   112  ARG112     -0.1231
    101  CA       146.8020  230.9060  168.4410 C.3   112  ARG112      0.1694
    102  C        147.1290  229.8530  169.4870 C.2   112  ARG112      0.2591
    103  O        147.3710  228.6930  169.1410 O.2   112  ARG112     -0.2718
    104  CB       148.0850  231.5870  167.9760 C.3   112  ARG112      0.0321
    105  CG       149.1540  230.6450  167.4870 C.3   112  ARG112      0.0489
    106  CD       150.3920  231.4020  167.0470 C.3   112  ARG112      0.2205
    107  NE       151.0960  232.0610  168.1390 N.pl3 112  ARG112     -0.0865
    108  CZ       152.0110  231.4660  168.8940 C.cat 112  ARG112      0.5346
    109  NH1      152.3250  230.2000  168.6780 N.pl3 112  ARG112      0.1354
    110  NH2      152.6140  232.1340  169.8640 N.pl3 112  ARG112      0.1354
    111  N        147.1300  230.2370  170.7650 N.am  113  ALA113     -0.1980
    112  CA       147.5200  229.3170  171.8280 C.3   113  ALA113      0.1597
    113  C        146.6440  228.0800  171.8620 C.2   113  ALA113      0.2287
    114  O        147.0810  227.0260  172.3330 O.2   113  ALA113     -0.2864
    115  CB       147.4530  230.0100  173.1830 C.3   113  ALA113      0.0319
    116  N        149.9110  225.2050  163.4410 N.3   121  ARG121     -0.1245
    117  CA       150.3150  226.3900  164.1910 C.3   121  ARG121      0.1563
    118  C        151.5590  227.0210  163.5850 C.2   121  ARG121      0.2260
    119  O        151.5160  228.1540  163.1010 O.2   121  ARG121     -0.2867
    120  CB       150.5570  226.0400  165.6570 C.3   121  ARG121      0.0307
    121  CG       149.2970  225.7460  166.4070 C.3   121  ARG121      0.0489
    122  CD       149.5500  225.1830  167.8000 C.3   121  ARG121      0.2205
    123  NE       150.1970  226.0980  168.7290 N.pl3 121  ARG121     -0.0865
    124  CZ       150.5160  225.7560  169.9720 C.cat 121  ARG121      0.5346
    125  NH1      151.0980  226.6290  170.7800 N.pl3 121  ARG121      0.1354
    126  NH2      150.2370  224.5360  170.4080 N.pl3 121  ARG121      0.1354
    127  N        170.3550  239.9020  167.2020 N.3   156  PHE156     -0.1241
    128  CA       169.7760  240.6200  168.3300 C.3   156  PHE156      0.1605
    129  C        170.7520  240.7290  169.4900 C.2   156  PHE156      0.2264
    130  O        170.8520  241.7820  170.1280 O.2   156  PHE156     -0.2867
    131  CB       168.4790  239.9430  168.7600 C.3   156  PHE156      0.0534
    132  CG       167.9200  240.4740  170.0300 C.ar  156  PHE156     -0.0203
    133  CD1      167.3320  241.7180  170.0720 C.ar  156  PHE156     -0.0042
    134  CD2      167.9490  239.7130  171.1780 C.ar  156  PHE156     -0.0042
    135  CE1      166.8090  242.2070  171.2520 C.ar  156  PHE156     -0.0003
    136  CE2      167.4270  240.1910  172.3570 C.ar  156  PHE156     -0.0003
    137  CZ       166.8540  241.4400  172.3950 C.ar  156  PHE156     -0.0000
    138  N        172.3190  244.1260  171.4210 N.3   160  VAL160     -0.1245
    139  CA       172.3600  244.3900  172.8500 C.3   160  VAL160      0.1561
    140  C        173.7920  244.5510  173.3180 C.2   160  VAL160      0.2260
    141  O        174.1320  245.5010  174.0310 O.2   160  VAL160     -0.2867
    142  CB       171.6580  243.2620  173.6190 C.3   160  VAL160      0.0252
    143  CG1      171.8500  243.4520  175.1040 C.3   160  VAL160      0.0019
    144  CG2      170.1890  243.2240  173.2700 C.3   160  VAL160      0.0019
@<TRIPOS>BOND
     1   119   118    2
     2   116   117    1
     3   118   117    1
     4   117   120    1
     5    43    44    1
     6   120   121    1
     7    46    45    2
     8    45    44    1
     9    34    33    1
    10    27    28    1
    11    44    47    1
    12    33    32    1
    13   121   122    1
    14    28    29    1
    15    28    31    1
    16    30    29    2
    17    13    12    1
    18    13    14    1
    19    13    16    1
    20    15    14    2
    21   106   105    1
    22   106   107    1
    23    29    35   am
    24   127   128    1
    25    37    38    2
    26    37    36    1
    27   105   104    1
    28    14    21   am
    29    53    55   ar
    30    53    50   ar
    31    55    56   ar
    32    32    31    1
    33    16    17    1
    34    47    48    1
    35    17    18    1
    36   122   123    1
    37    56    54   ar
    38    50    48   ar
    39    50    52   ar
    40    48    49   ar
    41    35    36    1
    42   104   101    1
    43   107   108    2
    44    54    52   ar
    45    52    51   ar
    46    49    51   ar
    47   128   131    1
    48   128   129    1
    49    18    20   ar
    50    18    19   ar
    51    36    39    1
    52   101   100    1
    53   101   102    1
    54    24    23    2
    55    21    22    1
    56    23    22    1
    57   109   108    1
    58   123   124    2
    59   131   132    1
    60   108   110    1
    61   103   102    2
    62    94    92   ar
    63    39    40    1
    64    22    25    1
    65   102   111   am
    66   129   130    2
    67   124   126    1
    68   124   125    1
    69   132   133   ar
    70   132   134   ar
    71   133   135   ar
    72    80    81    1
    73    80    79    1
    74    92    93   ar
    75    92    91    1
    76     1     2    1
    77     4     3    2
    78    86    87    1
    79    40    41    2
    80    40    42   am
    81     3     2    1
    82    25    26    1
    83   111   112    1
    84    87    88    1
    85    87    90    1
    86    89    88    2
    87     2     5    1
    88   134   136   ar
    89   135   137   ar
    90    91    90    1
    91    88    95   am
    92   138   139    1
    93   112   113    1
    94   112   115    1
    95    74    75    1
    96   113   114    2
    97    79    78    1
    98    97    98    2
    99    97    96    1
   100    75    78    1
   101    75    76    1
   102    77    76    2
   103    95    96    1
   104   136   137   ar
   105     5     6    1
   106    76    82   am
   107   139   140    1
   108   139   142    1
   109    96    99    1
   110     6     7    1
   111   144   142    1
   112   140   141    2
   113   142   143    1
   114    84    85    2
   115    84    83    1
   116    82    83    1
   117    60    59    2
   118    58    57    1
   119    58    61    1
   120    58    59    1
   121    62    61    1
   122    62    63    1
   123    65    63   ar
   124     7     8    1
   125    63    64   ar
   126    59    66   am
   127     8     9    2
   128    10     9    1
   129     9    11    1
   130    69    68    2
   131    68    67    1
   132    66    67    1
   133    67    70    1
   134    70    71    1
   135    73    71    1
   136    71    72    1
