@<TRIPOS>MOLECULE
tmp/6igzU17.pdb
 139 132 0 0 0
SMALL
GASTEIGER

@<TRIPOS>ATOM
      1  N        113.8300  237.3070  215.4110 N.3    47  ARG47      -0.1245
      2  CA       112.8420  237.5910  216.4430 C.3    47  ARG47       0.1563
      3  C        113.3670  238.5580  217.4920 C.2    47  ARG47       0.2260
      4  O        112.5730  239.1950  218.1880 O.2    47  ARG47      -0.2867
      5  CB       112.4100  236.2750  217.0920 C.3    47  ARG47       0.0307
      6  CG       111.3640  236.3850  218.1490 C.3    47  ARG47       0.0489
      7  CD       110.8550  235.0210  218.5940 C.3    47  ARG47       0.2205
      8  NE       110.1190  234.3150  217.5510 N.pl3  47  ARG47      -0.0865
      9  CZ       110.5630  233.2300  216.9280 C.cat  47  ARG47       0.5346
     10  NH1      111.7390  232.7140  217.2530 N.pl3  47  ARG47       0.1354
     11  NH2      109.8270  232.6540  215.9880 N.pl3  47  ARG47       0.1354
     12  N        114.7450  242.4530  215.4450 N.3    50  MET50      -0.1230
     13  CA       113.6070  243.1280  214.8440 C.3    50  MET50       0.1702
     14  C        113.0250  244.1720  215.7840 C.2    50  MET50       0.2592
     15  O        112.5310  245.2120  215.3370 O.2    50  MET50      -0.2718
     16  CB       112.5650  242.0850  214.4640 C.3    50  MET50       0.0401
     17  CG       111.4330  242.6050  213.6590 C.3    50  MET50       0.0596
     18  SD       110.4390  241.2550  213.0280 S.3    50  MET50      -0.1393
     19  CE       109.1620  242.1740  212.1860 C.3    50  MET50       0.0692
     20  N        113.1020  243.9220  217.0880 N.am   51  ASN51      -0.1974
     21  CA       112.7000  244.9210  218.0650 C.3    51  ASN51       0.1688
     22  C        113.7290  246.0300  218.1690 C.2    51  ASN51       0.2292
     23  O        113.3750  247.2090  218.2490 O.2    51  ASN51      -0.2864
     24  CB       112.5220  244.2520  219.4160 C.3    51  ASN51       0.1181
     25  CG       111.4430  243.2240  219.3890 C.2    51  ASN51       0.2629
     26  OD1      110.5430  243.2960  218.5630 O.2    51  ASN51      -0.2716
     27  ND2      111.5320  242.2410  220.2720 N.am   51  ASN51      -0.0877
     28  N        113.0420  248.8750  215.9720 N.3    54  ALA54      -0.1245
     29  CA       111.9270  249.6620  216.4830 C.3    54  ALA54       0.1562
     30  C        112.2990  250.3290  217.7920 C.2    54  ALA54       0.2260
     31  O        111.8530  251.4430  218.0800 O.2    54  ALA54      -0.2867
     32  CB       110.6960  248.7790  216.6610 C.3    54  ALA54       0.0290
     33  N        110.0330  224.2470  219.1090 N.3   111  SER111     -0.1202
     34  CA       109.7400  225.6140  218.7260 C.3   111  SER111      0.2020
     35  C        110.1210  226.5620  219.8550 C.2   111  SER111      0.2619
     36  O        110.5680  226.1490  220.9260 O.2   111  SER111     -0.2717
     37  CB       108.2650  225.7570  218.3520 C.3   111  SER111      0.2103
     38  OG       107.9710  227.0910  217.9740 O.3   111  SER111     -0.2182
     39  N        109.9470  227.8500  219.5970 N.am  112  GLY112     -0.1942
     40  CA       110.1980  228.8340  220.6200 C.3   112  GLY112      0.2014
     41  C        109.1240  228.8240  221.6870 C.2   112  GLY112      0.2639
     42  O        108.0370  228.2710  221.5180 O.2   112  GLY112     -0.2714
     43  N        109.4450  229.4470  222.8090 N.am  113  LEU113     -0.1963
     44  CA       108.5180  229.5480  223.9300 C.3   113  LEU113      0.1728
     45  C        109.0920  230.5460  224.9240 C.2   113  LEU113      0.2616
     46  O        110.1510  231.1400  224.7020 O.2   113  LEU113     -0.2715
     47  CB       108.2480  228.1770  224.5750 C.3   113  LEU113      0.0311
     48  CG       109.3640  227.2320  225.0620 C.3   113  LEU113      0.0022
     49  CD1      109.9990  227.6490  226.3730 C.3   113  LEU113      0.0001
     50  CD2      108.8330  225.8140  225.1850 C.3   113  LEU113      0.0001
     51  N        108.3520  230.7530  226.0060 N.am  114  ASN114     -0.1972
     52  CA       108.8430  231.4300  227.1940 C.3   114  ASN114      0.1688
     53  C        107.9550  230.9930  228.3460 C.2   114  ASN114      0.2292
     54  O        106.8160  230.5690  228.1350 O.2   114  ASN114     -0.2864
     55  CB       108.8370  232.9490  227.0220 C.3   114  ASN114      0.1181
     56  CG       107.4600  233.4900  226.7050 C.2   114  ASN114      0.2629
     57  OD1      106.5700  232.7490  226.2850 O.2   114  ASN114     -0.2716
     58  ND2      107.2710  234.7870  226.9160 N.am  114  ASN114     -0.0877
     59  N        103.2000  229.4070  224.6220 N.3   119  TRP119     -0.1227
     60  CA       103.8310  230.2830  223.6460 C.3   119  TRP119      0.1737
     61  C        102.8350  231.2590  223.0280 C.2   119  TRP119      0.2595
     62  O        103.0230  232.4730  223.1420 O.2   119  TRP119     -0.2718
     63  CB       104.5520  229.4560  222.5830 C.3   119  TRP119      0.0564
     64  CG       103.7320  228.4570  221.8810 C.ar  119  TRP119      0.0003
     65  CD1      103.0500  228.6320  220.7230 C.ar  119  TRP119      0.0946
     66  CD2      103.5310  227.1000  222.2680 C.ar  119  TRP119      0.0152
     67  NE1      102.4180  227.4710  220.3660 N.ar  119  TRP119     -0.2442
     68  CE2      102.7010  226.5110  221.3000 C.ar  119  TRP119      0.0810
     69  CE3      103.9660  226.3260  223.3420 C.ar  119  TRP119      0.0012
     70  CZ2      102.2930  225.1840  221.3760 C.ar  119  TRP119      0.0191
     71  CZ3      103.5640  225.0120  223.4190 C.ar  119  TRP119      0.0001
     72  CH2      102.7340  224.4510  222.4420 C.ar  119  TRP119      0.0015
     73  N        101.7900  230.7580  222.3570 N.am  120  ASP120     -0.1974
     74  CA       100.7750  231.6360  221.7790 C.3   120  ASP120      0.1709
     75  C         99.5900  231.8450  222.7110 C.2   120  ASP120      0.2293
     76  O         98.7260  230.9680  222.8290 O.2   120  ASP120     -0.2864
     77  CB       100.2600  231.0730  220.4560 C.3   120  ASP120      0.1436
     78  CG       101.2250  231.2800  219.3300 C.2   120  ASP120      0.3671
     79  OD1      102.1350  232.1170  219.4910 O.co2 120  ASP120     -0.2456
     80  OD2      101.0690  230.6190  218.2840 O.co2 120  ASP120     -0.2456
     81  N         97.1590  232.6710  217.0070 N.3   124  MET124     -0.1230
     82  CA        96.8300  233.2510  215.7030 C.3   124  MET124      0.1702
     83  C         97.0690  232.2760  214.5530 C.2   124  MET124      0.2593
     84  O         96.1190  231.7260  213.9880 O.2   124  MET124     -0.2718
     85  CB        97.6230  234.5450  215.4860 C.3   124  MET124      0.0401
     86  CG        97.1820  235.6920  216.3680 C.3   124  MET124      0.0596
     87  SD        95.4810  236.1650  215.9900 S.3   124  MET124     -0.1393
     88  CE        95.2340  237.5350  217.1160 C.3   124  MET124      0.0692
     89  N         98.3250  232.0540  214.1770 N.am  125  THR125     -0.1939
     90  CA        98.5750  231.2700  212.9770 C.3   125  THR125      0.2028
     91  C         99.9110  230.5550  213.0880 C.2   125  THR125      0.2642
     92  O        100.8830  231.1120  213.6030 O.2   125  THR125     -0.2714
     93  CB        98.5600  232.1620  211.7280 C.3   125  THR125      0.1808
     94  OG1       97.3030  232.8440  211.6470 O.3   125  THR125     -0.2208
     95  CG2       98.7490  231.3350  210.4630 C.3   125  THR125      0.0379
     96  N         99.9420  229.3130  212.6110 N.am  126  SER126     -0.1949
     97  CA       101.1700  228.5430  212.4920 C.3   126  SER126      0.1924
     98  C        101.7370  228.4930  211.0770 C.2   126  SER126      0.2314
     99  O        102.7400  227.8090  210.8660 O.2   126  SER126     -0.2863
    100  CB       100.9500  227.1140  212.9940 C.3   126  SER126      0.2116
    101  OG       100.0390  226.4200  212.1630 O.3   126  SER126     -0.2180
    102  N        101.4340  233.6630  208.5170 N.3   129  VAL129     -0.1231
    103  CA       102.0950  234.5840  209.4310 C.3   129  VAL129      0.1692
    104  C        103.4040  233.9850  209.9220 C.2   129  VAL129      0.2591
    105  O        104.3960  234.6930  210.1300 O.2   129  VAL129     -0.2718
    106  CB       101.1560  234.9140  210.5990 C.3   129  VAL129      0.0266
    107  CG1      101.8320  235.8380  211.5740 C.3   129  VAL129      0.0020
    108  CG2       99.8780  235.5180  210.0790 C.3   129  VAL129      0.0020
    109  N        103.4260  232.6670  210.1070 N.am  130  GLU130     -0.1979
    110  CA       104.6430  231.9880  210.5300 C.3   130  GLU130      0.1602
    111  C        105.7280  232.0850  209.4710 C.2   130  GLU130      0.2287
    112  O        106.9180  232.0200  209.7910 O.2   130  GLU130     -0.2864
    113  CB       104.3010  230.5390  210.8630 C.3   130  GLU130      0.0415
    114  CG       105.4150  229.6740  211.3780 C.3   130  GLU130      0.1163
    115  CD       106.2020  229.0430  210.2730 C.2   130  GLU130      0.3649
    116  OE1      105.6560  228.9170  209.1580 O.co2 130  GLU130     -0.2457
    117  OE2      107.3590  228.6590  210.5250 O.co2 130  GLU130     -0.2457
    118  N        105.7240  234.8890  207.7080 N.3   132  ALA132     -0.1231
    119  CA       106.0610  236.2940  207.8760 C.3   132  ALA132      0.1694
    120  C        107.0760  236.4940  208.9880 C.2   132  ALA132      0.2591
    121  O        107.7220  237.5450  209.0410 O.2   132  ALA132     -0.2718
    122  CB       104.8050  237.1130  208.1560 C.3   132  ALA132      0.0304
    123  N        107.2160  235.5130  209.8770 N.am  133  GLU133     -0.1979
    124  CA       108.3110  235.4690  210.8350 C.3   133  GLU133      0.1602
    125  C        109.6320  235.7630  210.1550 C.2   133  GLU133      0.2287
    126  O        110.2030  236.8420  210.3240 O.2   133  GLU133     -0.2864
    127  CB       108.3700  234.0890  211.4980 C.3   133  GLU133      0.0415
    128  CG       109.6220  233.7730  212.3310 C.3   133  GLU133      0.1163
    129  CD       109.7460  234.5690  213.6050 C.2   133  GLU133      0.3649
    130  OE1      108.7550  235.1880  214.0270 O.co2 133  GLU133     -0.2457
    131  OE2      110.8460  234.5650  214.1940 O.co2 133  GLU133     -0.2457
    132  N        110.2160  238.9020  207.6300 N.3   136  ASN136     -0.1240
    133  CA       110.4480  240.1260  208.3810 C.3   136  ASN136      0.1653
    134  C        111.7320  240.0400  209.1900 C.2   136  ASN136      0.2266
    135  O        112.4150  241.0500  209.3890 O.2   136  ASN136     -0.2867
    136  CB       109.2580  240.4010  209.2860 C.3   136  ASN136      0.1155
    137  CG       108.0170  240.7480  208.5160 C.2   136  ASN136      0.2627
    138  OD1      106.9680  240.1440  208.7030 O.2   136  ASN136     -0.2716
    139  ND2      108.1190  241.7510  207.6620 N.am  136  ASN136     -0.0877
@<TRIPOS>BOND
     1   132   133    1
     2   139   137   am
     3   118   119    1
     4   119   122    1
     5   119   120    1
     6   133   134    1
     7   133   136    1
     8   137   138    2
     9   137   136    1
    10   102   103    1
    11   120   121    2
    12   120   123   am
    13   116   115   ar
    14   134   135    2
    15   103   104    1
    16   103   106    1
    17   111   112    2
    18   111   110    1
    19   123   124    1
    20   104   109   am
    21   104   105    2
    22   108   106    1
    23   109   110    1
    24   125   126    2
    25   125   124    1
    26   115   117   ar
    27   115   114    1
    28    95    93    1
    29   110   113    1
    30   106   107    1
    31   124   127    1
    32   113   114    1
    33    99    98    2
    34    98    97    1
    35   127   128    1
    36    94    93    1
    37    93    90    1
    38   101   100    1
    39    19    18    1
    40   128   129    1
    41    97    96    1
    42    97   100    1
    43    96    91   am
    44    90    91    1
    45    90    89    1
    46    18    17    1
    47    91    92    2
    48   129   130   ar
    49   129   131   ar
    50    17    16    1
    51    84    83    2
    52    89    83   am
    53    16    13    1
    54    83    82    1
    55    13    12    1
    56    13    14    1
    57    15    14    2
    58     1     2    1
    59    85    82    1
    60    85    86    1
    61    82    81    1
    62    14    20   am
    63    28    29    1
    64    11     9    1
    65    87    86    1
    66    87    88    1
    67     2     5    1
    68     2     3    1
    69    29    32    1
    70    29    30    1
    71     9    10    1
    72     9     8    2
    73    20    21    1
    74     5     6    1
    75     3     4    2
    76     8     7    1
    77    30    31    2
    78    38    37    1
    79    21    22    1
    80    21    24    1
    81     6     7    1
    82    22    23    2
    83    80    78   ar
    84    37    34    1
    85    26    25    2
    86    34    33    1
    87    34    35    1
    88    78    79   ar
    89    78    77    1
    90    25    24    1
    91    25    27   am
    92    39    35   am
    93    39    40    1
    94    35    36    2
    95    67    65   ar
    96    67    68   ar
    97    77    74    1
    98    40    41    1
    99    65    64   ar
   100    68    70   ar
   101    68    66   ar
   102    70    72   ar
   103    42    41    2
   104    41    43   am
   105    74    73    1
   106    74    75    1
   107    64    66   ar
   108    64    63    1
   109    66    69   ar
   110    73    61   am
   111    72    71   ar
   112    63    60    1
   113    75    76    2
   114    43    44    1
   115    61    62    2
   116    61    60    1
   117    69    71   ar
   118    60    59    1
   119    44    47    1
   120    44    45    1
   121    47    48    1
   122    46    45    2
   123    45    51   am
   124    48    50    1
   125    48    49    1
   126    51    52    1
   127    57    56    2
   128    56    58   am
   129    56    55    1
   130    55    52    1
   131    52    53    1
   132    54    53    2
