@<TRIPOS>MOLECULE
tmp/6igzV02.pdb
 151 143 0 0 0
SMALL
GASTEIGER

@<TRIPOS>ATOM
      1  N        123.0510  229.2180  262.5960 N.3    51  MET51      -0.1230
      2  CA       121.7950  229.9580  262.5780 C.3    51  MET51       0.1702
      3  C        121.5830  230.6890  263.8940 C.2    51  MET51       0.2592
      4  O        121.1320  231.8390  263.9100 O.2    51  MET51      -0.2718
      5  CB       120.6180  229.0290  262.2760 C.3    51  MET51       0.0401
      6  CG       120.3050  228.0120  263.3550 C.3    51  MET51       0.0596
      7  SD       118.9130  226.9280  262.9750 S.3    51  MET51      -0.1393
      8  CE       119.6770  225.5830  262.0820 C.3    51  MET51       0.0692
      9  N        121.9460  230.0560  265.0050 N.am   52  LEU52      -0.1980
     10  CA       121.8990  230.7500  266.2770 C.3    52  LEU52       0.1596
     11  C        122.9880  231.8020  266.3950 C.2    52  LEU52       0.2287
     12  O        122.9490  232.6050  267.3310 O.2    52  LEU52      -0.2864
     13  CB       121.9900  229.7360  267.4190 C.3    52  LEU52       0.0297
     14  CG       123.2110  228.8220  267.5600 C.3    52  LEU52       0.0022
     15  CD1      124.3540  229.5250  268.2620 C.3    52  LEU52       0.0001
     16  CD2      122.8470  227.5590  268.3140 C.3    52  LEU52       0.0001
     17  N        123.8090  234.4470  264.2870 N.3    54  VAL54      -0.1231
     18  CA       123.3650  235.7960  263.9370 C.3    54  VAL54       0.1692
     19  C        122.7190  236.4810  265.1320 C.2    54  VAL54       0.2591
     20  O        122.9560  237.6660  265.3940 O.2    54  VAL54      -0.2718
     21  CB       122.3980  235.7400  262.7400 C.3    54  VAL54       0.0266
     22  CG1      121.8360  237.1110  262.4530 C.3    54  VAL54       0.0020
     23  CG2      123.0980  235.1840  261.5190 C.3    54  VAL54       0.0020
     24  N        121.9210  235.7260  265.8890 N.am   55  MET55      -0.1979
     25  CA       121.1030  236.2900  266.9550 C.3    55  MET55       0.1605
     26  C        121.9310  237.1510  267.8950 C.2    55  MET55       0.2287
     27  O        121.4800  238.2130  268.3390 O.2    55  MET55      -0.2864
     28  CB       120.4340  235.1520  267.7200 C.3    55  MET55       0.0413
     29  CG       119.6240  234.2260  266.8340 C.3    55  MET55       0.0598
     30  SD       118.2570  235.0500  266.0110 S.3    55  MET55      -0.1393
     31  CE       117.1840  235.3340  267.4110 C.3    55  MET55       0.0692
     32  N        123.1170  240.1020  265.6640 N.3    58  ALA58      -0.1231
     33  CA       121.9590  240.7990  265.1270 C.3    58  ALA58       0.1694
     34  C        121.4110  241.8190  266.1150 C.2    58  ALA58       0.2592
     35  O        121.5180  243.0260  265.8900 O.2    58  ALA58      -0.2718
     36  CB       120.8640  239.8070  264.7380 C.3    58  ALA58       0.0304
     37  N        120.8410  241.3470  267.2250 N.am   59  PHE59      -0.1976
     38  CA       120.0220  242.2250  268.0540 C.3    59  PHE59       0.1639
     39  C        120.8530  243.2760  268.7660 C.2    59  PHE59       0.2290
     40  O        120.3130  244.2850  269.2320 O.2    59  PHE59      -0.2864
     41  CB       119.2340  241.4060  269.0720 C.3    59  PHE59       0.0560
     42  CG       118.2480  240.4640  268.4530 C.ar   59  PHE59      -0.0200
     43  CD1      117.8620  240.6110  267.1300 C.ar   59  PHE59      -0.0042
     44  CD2      117.6900  239.4400  269.1970 C.ar   59  PHE59      -0.0042
     45  CE1      116.9540  239.7460  266.5570 C.ar   59  PHE59      -0.0003
     46  CE2      116.7770  238.5740  268.6300 C.ar   59  PHE59      -0.0003
     47  CZ       116.4090  238.7280  267.3080 C.ar   59  PHE59      -0.0000
     48  N        113.7340  216.8970  273.9070 N.3   119  PRO119     -0.2102
     49  CA       112.8430  218.0010  273.5600 C.3   119  PRO119      0.1504
     50  C        111.4080  217.6370  273.9090 C.2   119  PRO119      0.2575
     51  O        111.1220  216.5670  274.4400 O.2   119  PRO119     -0.2718
     52  CB       113.0270  218.1260  272.0500 C.3   119  PRO119      0.0282
     53  CG       113.3410  216.7540  271.6160 C.3   119  PRO119      0.0208
     54  CD       114.1700  216.1590  272.7130 C.3   119  PRO119      0.0893
     55  N        110.4970  218.5510  273.5850 N.am  120  LEU120     -0.1980
     56  CA       109.0830  218.2170  273.6480 C.3   120  LEU120      0.1596
     57  C        108.6890  217.2100  272.5810 C.2   120  LEU120      0.2287
     58  O        107.6300  216.5930  272.7050 O.2   120  LEU120     -0.2864
     59  CB       108.2370  219.4800  273.5120 C.3   120  LEU120      0.0297
     60  CG       108.0160  220.2830  274.7930 C.3   120  LEU120      0.0022
     61  CD1      109.3110  220.8820  275.3090 C.3   120  LEU120      0.0001
     62  CD2      106.9750  221.3660  274.5640 C.3   120  LEU120      0.0001
     63  N        114.2510  222.8330  259.6960 N.3   131  GLU131     -0.1245
     64  CA       115.3830  223.2210  260.5330 C.3   131  GLU131      0.1567
     65  C        116.6390  223.4120  259.7010 C.2   131  GLU131      0.2260
     66  O        117.1900  224.5140  259.6110 O.2   131  GLU131     -0.2867
     67  CB       115.6400  222.1540  261.5960 C.3   131  GLU131      0.0388
     68  CG       116.9460  222.3730  262.3560 C.3   131  GLU131      0.1160
     69  CD       117.2280  221.2860  263.3730 C.2   131  GLU131      0.3649
     70  OE1      116.3690  220.4010  263.5520 O.co2 131  GLU131     -0.2457
     71  OE2      118.3240  221.2990  263.9740 O.co2 131  GLU131     -0.2457
     72  N        116.1960  226.2620  257.2860 N.3   134  ASN134     -0.1240
     73  CA       116.1760  227.6140  257.8310 C.3   134  ASN134      0.1653
     74  C        117.5380  228.0570  258.3550 C.2   134  ASN134      0.2266
     75  O        117.8100  229.2610  258.3870 O.2   134  ASN134     -0.2867
     76  CB       115.1240  227.7350  258.9400 C.3   134  ASN134      0.1155
     77  CG       113.6920  227.6000  258.4230 C.2   134  ASN134      0.2627
     78  OD1      112.8980  226.8310  258.9620 O.2   134  ASN134     -0.2716
     79  ND2      113.3540  228.3670  257.3960 N.am  134  ASN134     -0.0877
     80  N        120.1110  228.9490  255.3720 N.3   137  LEU137     -0.1231
     81  CA       119.8740  230.3040  254.9060 C.3   137  LEU137      0.1693
     82  C        120.5800  231.3140  255.7980 C.2   137  LEU137      0.2591
     83  O        121.2710  232.2110  255.3050 O.2   137  LEU137     -0.2718
     84  CB       118.3720  230.5700  254.8560 C.3   137  LEU137      0.0284
     85  CG       117.9380  231.9370  254.3500 C.3   137  LEU137      0.0019
     86  CD1      118.4050  232.1090  252.9270 C.3   137  LEU137      0.0001
     87  CD2      116.4380  232.0560  254.4210 C.3   137  LEU137      0.0001
     88  N        120.4310  231.1760  257.1140 N.am  138  ALA138     -0.1980
     89  CA       121.1570  232.0340  258.0400 C.3   138  ALA138      0.1597
     90  C        122.6590  231.8610  257.9190 C.2   138  ALA138      0.2287
     91  O        123.4070  232.7900  258.2390 O.2   138  ALA138     -0.2864
     92  CB       120.7260  231.7500  259.4760 C.3   138  ALA138      0.0319
     93  N        123.8000  234.5200  255.2920 N.3   141  ALA141     -0.1245
     94  CA       123.8170  235.8830  255.8100 C.3   141  ALA141      0.1562
     95  C        124.9760  236.0880  256.7680 C.2   141  ALA141      0.2260
     96  O        125.5680  237.1710  256.8120 O.2   141  ALA141     -0.2867
     97  CB       122.4980  236.2010  256.5040 C.3   141  ALA141      0.0290
     98  N        127.6650  237.5490  255.2550 N.3   144  GLY144     -0.1210
     99  CA       127.4360  238.9580  254.9890 C.3   144  GLY144      0.1956
    100  C        127.8060  239.8390  256.1620 C.2   144  GLY144      0.2611
    101  O        128.4770  240.8590  255.9930 O.2   144  GLY144     -0.2717
    102  N        127.3960  239.4460  257.3690 N.am  145  PHE145     -0.1976
    103  CA       127.7170  240.2420  258.5440 C.3   145  PHE145      0.1639
    104  C        129.2080  240.5030  258.6520 C.2   145  PHE145      0.2290
    105  O        129.6190  241.5540  259.1540 O.2   145  PHE145     -0.2864
    106  CB       127.2150  239.5510  259.8050 C.3   145  PHE145      0.0560
    107  CG       125.7370  239.3960  259.8490 C.ar  145  PHE145     -0.0200
    108  CD1      124.9350  240.4560  260.1970 C.ar  145  PHE145     -0.0042
    109  CD2      125.1490  238.1900  259.5580 C.ar  145  PHE145     -0.0042
    110  CE1      123.5770  240.3210  260.2390 C.ar  145  PHE145     -0.0003
    111  CE2      123.7880  238.0480  259.6000 C.ar  145  PHE145     -0.0003
    112  CZ       123.0010  239.1150  259.9420 C.ar  145  PHE145     -0.0000
    113  N        129.7150  243.0560  255.9790 N.3   148  GLN148     -0.1245
    114  CA       129.0720  244.2720  256.4620 C.3   148  GLN148      0.1566
    115  C        130.0400  245.0890  257.2990 C.2   148  GLN148      0.2260
    116  O        130.0830  246.3190  257.1930 O.2   148  GLN148     -0.2867
    117  CB       127.8230  243.9380  257.2740 C.3   148  GLN148      0.0367
    118  CG       126.7120  243.2760  256.4810 C.3   148  GLN148      0.0905
    119  CD       126.2210  244.1250  255.3420 C.2   148  GLN148      0.2608
    120  OE1      126.0930  245.3400  255.4730 O.2   148  GLN148     -0.2717
    121  NE2      125.9400  243.4910  254.2090 N.am  148  GLN148     -0.0878
    122  N        124.8100  245.6970  261.2180 N.3   156  PRO156     -0.2102
    123  CA       123.8940  245.0610  260.2610 C.3   156  PRO156      0.1504
    124  C        122.6240  245.8570  260.0410 C.2   156  PRO156      0.2575
    125  O        122.1790  246.0140  258.8980 O.2   156  PRO156     -0.2718
    126  CB       123.6130  243.7040  260.9070 C.3   156  PRO156      0.0282
    127  CG       124.8030  243.4370  261.7480 C.3   156  PRO156      0.0208
    128  CD       125.2850  244.7580  262.2470 C.3   156  PRO156      0.0893
    129  N        122.0320  246.3780  261.1160 N.am  157  VAL157     -0.1980
    130  CA       120.8280  247.1900  260.9970 C.3   157  VAL157      0.1595
    131  C        121.1650  248.5990  260.5350 C.2   157  VAL157      0.2287
    132  O        120.4360  249.1910  259.7310 O.2   157  VAL157     -0.2864
    133  CB       120.0680  247.1890  262.3350 C.3   157  VAL157      0.0276
    134  CG1      118.9780  248.2390  262.3310 C.3   157  VAL157      0.0022
    135  CG2      119.4610  245.8190  262.5700 C.3   157  VAL157      0.0022
    136  N        123.3030  249.1410  258.5060 N.3   159  ASN159     -0.1225
    137  CA       123.3870  248.9440  257.0660 C.3   159  ASN159      0.1785
    138  C        122.0020  248.8260  256.4530 C.2   159  ASN159      0.2597
    139  O        121.7600  249.3500  255.3620 O.2   159  ASN159     -0.2718
    140  CB       124.2140  247.6990  256.7410 C.3   159  ASN159      0.1169
    141  CG       125.6750  247.8480  257.1210 C.2   159  ASN159      0.2627
    142  OD1      126.4220  248.5770  256.4760 O.2   159  ASN159     -0.2716
    143  ND2      126.0950  247.1300  258.1530 N.am  159  ASN159     -0.0877
    144  N        121.0870  248.1380  257.1390 N.am  160  LEU160     -0.1980
    145  CA       119.7170  248.0180  256.6500 C.3   160  LEU160      0.1596
    146  C        119.1080  249.3840  256.3840 C.2   160  LEU160      0.2287
    147  O        118.6310  249.6570  255.2780 O.2   160  LEU160     -0.2864
    148  CB       118.8640  247.2560  257.6600 C.3   160  LEU160      0.0297
    149  CG       119.2100  245.7870  257.8660 C.3   160  LEU160      0.0022
    150  CD1      118.4340  245.2150  259.0360 C.3   160  LEU160      0.0001
    151  CD2      118.9010  245.0260  256.5950 C.3   160  LEU160      0.0001
@<TRIPOS>BOND
     1    86    85    1
     2   121   119   am
     3    85    87    1
     4    85    84    1
     5    84    81    1
     6    81    80    1
     7    81    82    1
     8    99    98    1
     9    99   100    1
    10   147   146    2
    11    93    94    1
    12    83    82    2
    13   119   120    2
    14   119   118    1
    15   139   138    2
    16    82    88   am
    17    94    97    1
    18    94    95    1
    19   113   114    1
    20   101   100    2
    21   100   102   am
    22   146   145    1
    23   138   137    1
    24   138   144   am
    25   114   117    1
    26   114   115    1
    27   142   141    2
    28   118   117    1
    29   151   149    1
    30   145   144    1
    31   145   148    1
    32   140   137    1
    33   140   141    1
    34    95    96    2
    35   137   136    1
    36    88    89    1
    37   141   143   am
    38   116   115    2
    39    72    73    1
    40   102   103    1
    41    79    77   am
    42   148   149    1
    43    73    74    1
    44    73    76    1
    45   149   150    1
    46    90    89    1
    47    90    91    2
    48    89    92    1
    49    74    75    2
    50    77    76    1
    51    77    78    2
    52   103   104    1
    53   103   106    1
    54   104   105    2
    55   125   124    2
    56   109   111   ar
    57   109   107   ar
    58   111   112   ar
    59    66    65    2
    60    63    64    1
    61    65    64    1
    62   132   131    2
    63   106   107    1
    64   107   108   ar
    65   112   110   ar
    66   124   123    1
    67   124   129   am
    68   108   110   ar
    69   123   126    1
    70   123   122    1
    71    64    67    1
    72   131   130    1
    73   126   127    1
    74   130   129    1
    75   130   133    1
    76   122   128    1
    77    23    21    1
    78    67    68    1
    79   127   128    1
    80     8     7    1
    81     5     2    1
    82     5     6    1
    83   134   133    1
    84   133   135    1
    85    68    69    1
    86    22    21    1
    87     2     1    1
    88     2     3    1
    89    21    18    1
    90     7     6    1
    91    69    70   ar
    92    69    71   ar
    93     3     4    2
    94     3     9   am
    95    18    17    1
    96    18    19    1
    97    36    33    1
    98     9    10    1
    99    33    32    1
   100    33    34    1
   101    19    20    2
   102    19    24   am
   103    24    25    1
   104    35    34    2
   105    30    29    1
   106    30    31    1
   107    34    37   am
   108    10    11    1
   109    10    13    1
   110    11    12    2
   111    45    43   ar
   112    45    47   ar
   113    29    28    1
   114    25    28    1
   115    25    26    1
   116    43    42   ar
   117    37    38    1
   118    47    46   ar
   119    13    14    1
   120    14    15    1
   121    14    16    1
   122    26    27    2
   123    38    39    1
   124    38    41    1
   125    42    41    1
   126    42    44   ar
   127    46    44   ar
   128    39    40    2
   129    53    52    1
   130    53    54    1
   131    52    49    1
   132    57    58    2
   133    57    56    1
   134    54    48    1
   135    59    56    1
   136    59    60    1
   137    49    48    1
   138    49    50    1
   139    55    56    1
   140    55    50   am
   141    50    51    2
   142    62    60    1
   143    60    61    1
