@<TRIPOS>MOLECULE
tmp/6igzO00.pdb
 152 149 0 0 0
SMALL
GASTEIGER

@<TRIPOS>ATOM
      1  N        229.0390  181.4920  232.2710 N.3    40  PHE40      -0.1241
      2  CA       230.2950  181.5410  232.9870 C.3    40  PHE40       0.1605
      3  C        230.2210  180.8380  234.3270 C.2    40  PHE40       0.2264
      4  O        231.1680  180.9200  235.1080 O.2    40  PHE40      -0.2867
      5  CB       230.7400  182.9850  233.1660 C.3    40  PHE40       0.0534
      6  CG       231.0900  183.6670  231.8830 C.ar   40  PHE40      -0.0203
      7  CD1      231.3210  182.9360  230.7400 C.ar   40  PHE40      -0.0042
      8  CD2      231.2070  185.0350  231.8240 C.ar   40  PHE40      -0.0042
      9  CE1      231.6450  183.5560  229.5670 C.ar   40  PHE40      -0.0003
     10  CE2      231.5330  185.6570  230.6490 C.ar   40  PHE40      -0.0003
     11  CZ       231.7530  184.9180  229.5220 C.ar   40  PHE40      -0.0000
     12  N        233.7840  175.8960  232.8570 N.3    45  TRP45      -0.1241
     13  CA       234.4140  177.2050  232.9310 C.3    45  TRP45       0.1605
     14  C        235.1130  177.4020  234.2680 C.2    45  TRP45       0.2264
     15  O        236.3270  177.6100  234.3150 O.2    45  TRP45      -0.2867
     16  CB       233.3730  178.3030  232.7100 C.3    45  TRP45       0.0550
     17  CG       233.9470  179.6550  232.6580 C.ar   45  TRP45       0.0003
     18  CD1      233.9710  180.5660  233.6520 C.ar   45  TRP45       0.0946
     19  CD2      234.5640  180.2720  231.5320 C.ar   45  TRP45       0.0152
     20  NE1      234.5810  181.7160  233.2290 N.ar   45  TRP45      -0.2442
     21  CE2      234.9500  181.5580  231.9230 C.ar   45  TRP45       0.0810
     22  CE3      234.8330  179.8580  230.2320 C.ar   45  TRP45       0.0012
     23  CZ2      235.5920  182.4310  231.0650 C.ar   45  TRP45       0.0191
     24  CZ3      235.4690  180.7260  229.3830 C.ar   45  TRP45       0.0001
     25  CH2      235.8400  181.9980  229.7990 C.ar   45  TRP45       0.0015
     26  N        238.3470  176.3640  234.8180 N.3    48  TYR48      -0.1227
     27  CA       239.3550  176.8850  233.9140 C.3    48  TYR48       0.1736
     28  C        239.7320  178.3200  234.2310 C.2    48  TYR48       0.2596
     29  O        240.8450  178.7430  233.9120 O.2    48  TYR48      -0.2718
     30  CB       238.8650  176.7000  232.4830 C.3    48  TYR48       0.0548
     31  CG       239.7250  177.2900  231.4170 C.ar   48  TYR48      -0.0200
     32  CD1      241.0620  176.9820  231.3370 C.ar   48  TYR48      -0.0009
     33  CD2      239.1690  178.0390  230.4070 C.ar   48  TYR48      -0.0009
     34  CE1      241.8410  177.4860  230.3330 C.ar   48  TYR48       0.0417
     35  CE2      239.9320  178.5360  229.3990 C.ar   48  TYR48       0.0417
     36  CZ       241.2660  178.2530  229.3620 C.ar   48  TYR48       0.1957
     37  OH       242.0330  178.7570  228.3500 O.3    48  TYR48      -0.2866
     38  N        238.8440  179.0830  234.8600 N.am   49  SER49      -0.1952
     39  CA       239.2680  180.3790  235.3700 C.3    49  SER49       0.1924
     40  C        240.0150  180.2350  236.6820 C.2    49  SER49       0.2314
     41  O        240.8680  181.0670  237.0010 O.2    49  SER49      -0.2863
     42  CB       238.0740  181.3010  235.5650 C.3    49  SER49       0.2116
     43  OG       237.2440  180.8080  236.5940 O.3    49  SER49      -0.2180
     44  N        243.5970  179.5860  235.6840 N.3    52  ILE52      -0.1231
     45  CA       244.2160  180.7620  235.0860 C.3    52  ILE52       0.1692
     46  C        244.4550  181.8370  236.1380 C.2    52  ILE52       0.2592
     47  O        245.5440  182.4130  236.2110 O.2    52  ILE52      -0.2718
     48  CB       243.3660  181.2810  233.9190 C.3    52  ILE52       0.0266
     49  CG1      243.4340  180.3030  232.7600 C.3    52  ILE52       0.0019
     50  CG2      243.8500  182.6210  233.4720 C.3    52  ILE52       0.0020
     51  CD1      242.5160  180.6530  231.6410 C.3    52  ILE52       0.0001
     52  N        243.4500  182.1290  236.9680 N.am   53  HIS53      -0.1976
     53  CA       243.6820  183.0450  238.0770 C.3    53  HIS53       0.1656
     54  C        244.8400  182.5800  238.9300 C.2    53  HIS53       0.2291
     55  O        245.6050  183.3960  239.4490 O.2    53  HIS53      -0.2864
     56  CB       242.4470  183.1820  238.9560 C.3    53  HIS53       0.0771
     57  CG       241.3760  184.0380  238.3770 C.ar   53  HIS53       0.0820
     58  ND1      240.4610  183.5690  237.4660 N.ar   53  HIS53      -0.2267
     59  CD2      241.0510  185.3280  238.6110 C.ar   53  HIS53       0.1154
     60  CE1      239.6260  184.5400  237.1520 C.ar   53  HIS53       0.1986
     61  NE2      239.9630  185.6180  237.8320 N.ar   53  HIS53      -0.2212
     62  N        248.3660  183.4970  236.8780 N.3    56  PHE56      -0.1241
     63  CA       248.6720  184.9210  236.9690 C.3    56  PHE56       0.1605
     64  C        249.0540  185.3180  238.3840 C.2    56  PHE56       0.2264
     65  O        250.0120  186.0690  238.5920 O.2    56  PHE56      -0.2867
     66  CB       247.4940  185.7640  236.4940 C.3    56  PHE56       0.0534
     67  CG       247.3080  185.7700  235.0140 C.ar   56  PHE56      -0.0203
     68  CD1      248.0600  186.6110  234.2260 C.ar   56  PHE56      -0.0042
     69  CD2      246.3730  184.9670  234.4110 C.ar   56  PHE56      -0.0042
     70  CE1      247.8920  186.6350  232.8660 C.ar   56  PHE56      -0.0003
     71  CE2      246.2060  184.9960  233.0540 C.ar   56  PHE56      -0.0003
     72  CZ       246.9640  185.8280  232.2840 C.ar   56  PHE56      -0.0000
     73  N        251.2710  200.1740  226.5290 N.3   107  PHE107     -0.1241
     74  CA       249.9520  199.5830  226.6300 C.3   107  PHE107      0.1605
     75  C        249.3420  199.3200  225.2690 C.2   107  PHE107      0.2264
     76  O        248.3870  198.5520  225.1730 O.2   107  PHE107     -0.2867
     77  CB       249.0370  200.4790  227.4540 C.3   107  PHE107      0.0534
     78  CG       247.6620  199.9340  227.6320 C.ar  107  PHE107     -0.0203
     79  CD1      247.4220  198.9200  228.5290 C.ar  107  PHE107     -0.0042
     80  CD2      246.6020  200.4510  226.9210 C.ar  107  PHE107     -0.0042
     81  CE1      246.1520  198.4150  228.6990 C.ar  107  PHE107     -0.0003
     82  CE2      245.3280  199.9530  227.0900 C.ar  107  PHE107     -0.0003
     83  CZ       245.1050  198.9360  227.9800 C.ar  107  PHE107     -0.0000
     84  N        251.2440  195.9670  224.2930 N.3   110  GLU110     -0.1231
     85  CA       250.5880  194.9770  225.1310 C.3   110  GLU110      0.1699
     86  C        249.2670  194.5460  224.5220 C.2   110  GLU110      0.2592
     87  O        249.1160  193.4040  224.0830 O.2   110  GLU110     -0.2718
     88  CB       250.3710  195.5530  226.5200 C.3   110  GLU110      0.0402
     89  CG       249.6360  194.6520  227.4550 C.3   110  GLU110      0.1161
     90  CD       249.4440  195.3030  228.7970 C.2   110  GLU110      0.3649
     91  OE1      249.8770  196.4580  228.9570 O.co2 110  GLU110     -0.2457
     92  OE2      248.8540  194.6730  229.6920 O.co2 110  GLU110     -0.2457
     93  N        248.3080  195.4700  224.4540 N.am  111  VAL111     -0.1980
     94  CA       246.9480  195.1230  224.0580 C.3   111  VAL111      0.1595
     95  C        246.9350  194.3810  222.7340 C.2   111  VAL111      0.2287
     96  O        246.1990  193.4060  222.5690 O.2   111  VAL111     -0.2864
     97  CB       246.0730  196.3800  224.0040 C.3   111  VAL111      0.0276
     98  CG1      244.7690  196.0620  223.3450 C.3   111  VAL111      0.0022
     99  CG2      245.8120  196.8590  225.3920 C.3   111  VAL111      0.0022
    100  N        249.1730  191.0210  223.5350 N.3   114  MET114     -0.1230
    101  CA       248.5300  190.1960  224.5480 C.3   114  MET114      0.1702
    102  C        247.2080  189.6480  224.0550 C.2   114  MET114      0.2592
    103  O        246.7480  188.6180  224.5500 O.2   114  MET114     -0.2718
    104  CB       248.3290  190.9860  225.8380 C.3   114  MET114      0.0401
    105  CG       247.7210  190.1790  226.9390 C.3   114  MET114      0.0596
    106  SD       248.8070  188.8140  227.3430 S.3   114  MET114     -0.1393
    107  CE       247.8490  187.9770  228.5920 C.3   114  MET114      0.0692
    108  N        246.6140  190.2880  223.0590 N.am  115  GLN115     -0.1979
    109  CA       245.3510  189.8120  222.5270 C.3   115  GLN115      0.1601
    110  C        245.5530  188.6330  221.5880 C.2   115  GLN115      0.2287
    111  O        244.7340  187.7110  221.5700 O.2   115  GLN115     -0.2864
    112  CB       244.6480  190.9490  221.8170 C.3   115  GLN115      0.0394
    113  CG       243.2550  190.6820  221.4590 C.3   115  GLN115      0.0908
    114  CD       242.6230  191.9140  220.9180 C.2   115  GLN115      0.2608
    115  OE1      243.2340  192.9730  220.9010 O.2   115  GLN115     -0.2717
    116  NE2      241.4010  191.7940  220.4670 N.am  115  GLN115     -0.0878
    117  N        245.5060  185.6770  224.1150 N.3   118  GLU118     -0.1231
    118  CA       244.3080  185.1440  224.7530 C.3   118  GLU118      0.1699
    119  C        243.1650  184.8460  223.7940 C.2   118  GLU118      0.2592
    120  O        242.4800  183.8360  223.9690 O.2   118  GLU118     -0.2718
    121  CB       243.8810  186.0660  225.8810 C.3   118  GLU118      0.0402
    122  CG       244.4610  185.5730  227.1820 C.3   118  GLU118      0.1161
    123  CD       244.4210  186.5670  228.2810 C.2   118  GLU118      0.3649
    124  OE1      244.4680  187.7620  227.9790 O.co2 118  GLU118     -0.2457
    125  OE2      244.3000  186.1530  229.4470 O.co2 118  GLU118     -0.2457
    126  N        242.9030  185.6920  222.8000 N.am  119  LEU119     -0.1980
    127  CA       241.9330  185.2940  221.7790 C.3   119  LEU119      0.1596
    128  C        242.3330  183.9780  221.1350 C.2   119  LEU119      0.2287
    129  O        241.4780  183.1480  220.8180 O.2   119  LEU119     -0.2864
    130  CB       241.7830  186.3810  220.7240 C.3   119  LEU119      0.0297
    131  CG       240.6020  187.3270  220.8650 C.3   119  LEU119      0.0022
    132  CD1      240.6440  187.9910  222.1770 C.3   119  LEU119      0.0001
    133  CD2      240.6790  188.3640  219.7770 C.3   119  LEU119      0.0001
    134  N        243.6180  181.7050  222.7600 N.3   121  ARG121     -0.1231
    135  CA       243.4090  180.6690  223.7570 C.3   121  ARG121      0.1694
    136  C        241.9520  180.2250  223.8240 C.2   121  ARG121      0.2591
    137  O        241.6780  179.0460  224.0670 O.2   121  ARG121     -0.2718
    138  CB       243.8840  181.1630  225.1150 C.3   121  ARG121      0.0321
    139  CG       243.9400  180.0960  226.1610 C.3   121  ARG121      0.0489
    140  CD       244.3700  180.6850  227.4680 C.3   121  ARG121      0.2205
    141  NE       243.3370  181.5560  227.9850 N.pl3 121  ARG121     -0.0865
    142  CZ       243.5460  182.5090  228.8750 C.cat 121  ARG121      0.5346
    143  NH1      244.7620  182.7330  229.3280 N.pl3 121  ARG121      0.1354
    144  NH2      242.5410  183.2520  229.2980 N.pl3 121  ARG121      0.1354
    145  N        241.0020  181.1430  223.6300 N.am  122  LEU122     -0.1980
    146  CA       239.5950  180.7490  223.6470 C.3   122  LEU122      0.1596
    147  C        239.2820  179.7620  222.5450 C.2   122  LEU122      0.2287
    148  O        238.6530  178.7260  222.7820 O.2   122  LEU122     -0.2864
    149  CB       238.6740  181.9490  223.4980 C.3   122  LEU122      0.0297
    150  CG       238.4530  182.7950  224.7190 C.3   122  LEU122      0.0022
    151  CD1      237.5270  183.9320  224.3580 C.3   122  LEU122      0.0001
    152  CD2      237.8600  181.9250  225.7910 C.3   122  LEU122      0.0001
@<TRIPOS>BOND
     1   133   131    1
     2   116   114   am
     3   130   131    1
     4   130   127    1
     5   129   128    2
     6   131   132    1
     7   115   114    2
     8   114   113    1
     9   128   127    1
    10   113   112    1
    11   111   110    2
    12   110   109    1
    13   127   126    1
    14   112   109    1
    15   109   108    1
    16   147   148    2
    17   147   146    1
    18    96    95    2
    19    95    94    1
    20   134   135    1
    21   126   119   am
    22   108   102   am
    23    98    97    1
    24   149   146    1
    25   149   150    1
    26   100   101    1
    27   145   146    1
    28   145   136   am
    29   135   136    1
    30   135   138    1
    31   119   120    2
    32   119   118    1
    33   136   137    2
    34    97    94    1
    35    97    99    1
    36   102   101    1
    37   102   103    2
    38    94    93    1
    39    87    86    2
    40   117   118    1
    41    84    85    1
    42   151   150    1
    43    93    86   am
    44    86    85    1
    45   101   104    1
    46   150   152    1
    47   118   121    1
    48   138   139    1
    49    85    88    1
    50    76    75    2
    51    75    74    1
    52   104   105    1
    53   121   122    1
    54   139   140    1
    55    88    89    1
    56    73    74    1
    57    74    77    1
    58    80    82   ar
    59    80    78   ar
    60   105   106    1
    61    82    83   ar
    62   122   123    1
    63   106   107    1
    64    77    78    1
    65    89    90    1
    66   140   141    1
    67    78    79   ar
    68   124   123   ar
    69    83    81   ar
    70   141   142    2
    71   123   125   ar
    72    37    36    1
    73    79    81   ar
    74    90    91   ar
    75    90    92   ar
    76   142   144    1
    77   142   143    1
    78    36    35   ar
    79    36    34   ar
    80    24    25   ar
    81    24    22   ar
    82    35    33   ar
    83    11     9   ar
    84    11    10   ar
    85     9     7   ar
    86    25    23   ar
    87    22    19   ar
    88    34    32   ar
    89    33    31   ar
    90    10     8   ar
    91     7     6   ar
    92    23    21   ar
    93    32    31   ar
    94    31    30    1
    95    19    21   ar
    96    19    17   ar
    97    51    49    1
    98     8     6   ar
    99     6     5    1
   100    21    20   ar
   101     1     2    1
   102    72    70   ar
   103    72    71   ar
   104    30    27    1
   105    17    16    1
   106    17    18   ar
   107    16    13    1
   108    49    48    1
   109    12    13    1
   110    70    68   ar
   111    13    14    1
   112     2     5    1
   113     2     3    1
   114    71    69   ar
   115    20    18   ar
   116    50    48    1
   117    29    28    2
   118    27    28    1
   119    27    26    1
   120    48    45    1
   121    68    67   ar
   122    28    38   am
   123    14    15    2
   124     3     4    2
   125    69    67   ar
   126    38    39    1
   127    67    66    1
   128    45    44    1
   129    45    46    1
   130    39    42    1
   131    39    40    1
   132    42    43    1
   133    46    47    2
   134    46    52   am
   135    66    63    1
   136    40    41    2
   137    62    63    1
   138    52    53    1
   139    63    64    1
   140    60    58   ar
   141    60    61   ar
   142    58    57   ar
   143    61    59   ar
   144    53    54    1
   145    53    56    1
   146    57    59   ar
   147    57    56    1
   148    64    65    2
   149    54    55    2
