@<TRIPOS>MOLECULE
tmp/6igzS25.pdb
 183 181 0 0 0
SMALL
GASTEIGER

@<TRIPOS>ATOM
      1  N        279.5030  181.8860  208.9550 N.3    51  TRP51      -0.1241
      2  CA       279.9040  183.2810  209.1000 C.3    51  TRP51       0.1605
      3  C        280.2540  183.6170  210.5350 C.2    51  TRP51       0.2264
      4  O        281.0700  184.5100  210.7820 O.2    51  TRP51      -0.2867
      5  CB       278.8030  184.2170  208.6170 C.3    51  TRP51       0.0550
      6  CG       278.6380  184.2340  207.1600 C.ar   51  TRP51       0.0003
      7  CD1      277.6610  183.6380  206.4410 C.ar   51  TRP51       0.0946
      8  CD2      279.5140  184.8480  206.2220 C.ar   51  TRP51       0.0152
      9  NE1      277.8520  183.8650  205.1040 N.ar   51  TRP51      -0.2442
     10  CE2      278.9910  184.6050  204.9450 C.ar   51  TRP51       0.0810
     11  CE3      280.6870  185.5910  206.3390 C.ar   51  TRP51       0.0012
     12  CZ2      279.6000  185.0770  203.7910 C.ar   51  TRP51       0.0191
     13  CZ3      281.2890  186.0560  205.1970 C.ar   51  TRP51       0.0001
     14  CH2      280.7470  185.8010  203.9380 C.ar   51  TRP51       0.0015
     15  N        286.9220  196.8970  218.4460 N.3    71  TRP71      -0.1227
     16  CA       286.4150  196.0160  217.4020 C.3    71  TRP71       0.1737
     17  C        285.0470  196.4350  216.8860 C.2    71  TRP71       0.2595
     18  O        284.8220  196.4850  215.6730 O.2    71  TRP71      -0.2718
     19  CB       286.3550  194.5840  217.9110 C.3    71  TRP71       0.0564
     20  CG       285.4820  193.8230  217.0390 C.ar   71  TRP71       0.0003
     21  CD1      285.7810  193.3350  215.8140 C.ar   71  TRP71       0.0946
     22  CD2      284.1270  193.4650  217.3020 C.ar   71  TRP71       0.0152
     23  NE1      284.6920  192.6930  215.2880 N.ar   71  TRP71      -0.2442
     24  CE2      283.6640  192.7540  216.1900 C.ar   71  TRP71       0.0810
     25  CE3      283.2640  193.6720  218.3760 C.ar   71  TRP71       0.0012
     26  CZ2      282.3700  192.2560  216.1140 C.ar   71  TRP71       0.0191
     27  CZ3      281.9860  193.1720  218.3000 C.ar   71  TRP71       0.0001
     28  CH2      281.5510  192.4710  217.1800 C.ar   71  TRP71       0.0015
     29  N        284.1110  196.7160  217.7890 N.am   72  TYR72      -0.1962
     30  CA       282.7280  196.9370  217.3850 C.3    72  TYR72       0.1771
     31  C        282.5820  198.1080  216.4360 C.2    72  TYR72       0.2619
     32  O        281.5140  198.2740  215.8470 O.2    72  TYR72      -0.2715
     33  CB       281.8590  197.1490  218.6240 C.3    72  TYR72       0.0574
     34  CG       280.4020  197.4740  218.3880 C.ar   72  TYR72      -0.0198
     35  CD1      279.4800  196.4770  218.1390 C.ar   72  TYR72      -0.0009
     36  CD2      279.9510  198.7800  218.4390 C.ar   72  TYR72      -0.0009
     37  CE1      278.1570  196.7700  217.9400 C.ar   72  TYR72       0.0417
     38  CE2      278.6310  199.0810  218.2370 C.ar   72  TYR72       0.0417
     39  CZ       277.7350  198.0720  217.9880 C.ar   72  TYR72       0.1957
     40  OH       276.4070  198.3690  217.7840 O.3    72  TYR72      -0.2866
     41  N        283.6270  198.9000  216.2440 N.am   73  GLU73      -0.1977
     42  CA       283.5180  199.9890  215.2940 C.3    73  GLU73       0.1602
     43  C        284.1510  199.6050  213.9670 C.2    73  GLU73       0.2287
     44  O        283.4560  199.1390  213.0620 O.2    73  GLU73      -0.2864
     45  CB       284.2090  201.2180  215.8700 C.3    73  GLU73       0.0415
     46  CG       284.2790  202.4160  214.9670 C.3    73  GLU73       0.1163
     47  CD       285.0530  203.5230  215.6230 C.2    73  GLU73       0.3649
     48  OE1      285.4790  203.3310  216.7810 O.co2  73  GLU73      -0.2457
     49  OE2      285.2640  204.5700  214.9900 O.co2  73  GLU73      -0.2457
     50  N        284.5440  200.1510  211.2880 N.3    75  GLY75      -0.1210
     51  CA       283.9470  200.4340  210.0040 C.3    75  GLY75       0.1956
     52  C        284.3760  201.7340  209.3680 C.2    75  GLY75       0.2611
     53  O        284.7940  201.7630  208.2110 O.2    75  GLY75      -0.2717
     54  N        284.3050  202.8120  210.1310 N.am   76  LEU76      -0.1979
     55  CA       284.4110  204.1300  209.5440 C.3    76  LEU76       0.1596
     56  C        285.8450  204.4290  209.1100 C.2    76  LEU76       0.2287
     57  O        286.8020  203.9460  209.7180 O.2    76  LEU76      -0.2864
     58  CB       283.8850  205.1620  210.5300 C.3    76  LEU76       0.0297
     59  CG       284.3620  205.0410  211.9720 C.3    76  LEU76       0.0022
     60  CD1      285.7060  205.6860  212.1700 C.3    76  LEU76       0.0001
     61  CD2      283.3210  205.6460  212.8940 C.3    76  LEU76       0.0001
     62  N        284.2060  204.3610  200.9150 N.3    89  LEU89      -0.1245
     63  CA       283.4320  203.1620  201.2290 C.3    89  LEU89       0.1561
     64  C        282.2470  202.9680  200.3000 C.2    89  LEU89       0.2260
     65  O        281.9380  201.8380  199.9130 O.2    89  LEU89      -0.2867
     66  CB       282.8880  203.2180  202.6550 C.3    89  LEU89       0.0270
     67  CG       283.8180  203.2480  203.8550 C.3    89  LEU89       0.0019
     68  CD1      282.9750  203.3780  205.1040 C.3    89  LEU89       0.0001
     69  CD2      284.6570  201.9980  203.8970 C.3    89  LEU89       0.0001
     70  N        283.5900  201.0940  197.9920 N.3    92  ILE92      -0.1231
     71  CA       283.9540  199.7860  198.5170 C.3    92  ILE92       0.1692
     72  C        282.7290  198.8970  198.5940 C.2    92  ILE92       0.2591
     73  O        282.7510  197.7400  198.1600 O.2    92  ILE92      -0.2718
     74  CB       284.6280  199.9210  199.8880 C.3    92  ILE92       0.0266
     75  CG1      285.9980  200.5590  199.7240 C.3    92  ILE92       0.0019
     76  CG2      284.7270  198.5740  200.5640 C.3    92  ILE92       0.0020
     77  CD1      286.6500  200.8990  201.0230 C.3    92  ILE92       0.0001
     78  N        281.6390  199.4240  199.1470 N.am   93  LEU93      -0.1980
     79  CA       280.4060  198.6530  199.1990 C.3    93  LEU93       0.1596
     80  C        279.9470  198.2910  197.8000 C.2    93  LEU93       0.2287
     81  O        279.4180  197.1990  197.5710 O.2    93  LEU93      -0.2864
     82  CB       279.3240  199.4360  199.9310 C.3    93  LEU93       0.0297
     83  CG       277.9960  198.6970  200.0130 C.3    93  LEU93       0.0022
     84  CD1      278.1670  197.4150  200.8030 C.3    93  LEU93       0.0001
     85  CD2      276.9480  199.5730  200.6420 C.3    93  LEU93       0.0001
     86  N        281.5440  195.1680  196.7550 N.3    96  GLU96      -0.1245
     87  CA       281.0760  193.9710  197.4350 C.3    96  GLU96       0.1567
     88  C        279.7590  193.4830  196.8590 C.2    96  GLU96       0.2260
     89  O        279.5900  192.2870  196.6010 O.2    96  GLU96      -0.2867
     90  CB       280.9240  194.2480  198.9230 C.3    96  GLU96       0.0388
     91  CG       280.3750  193.0800  199.7030 C.3    96  GLU96       0.1160
     92  CD       280.3060  193.3870  201.1690 C.2    96  GLU96       0.3649
     93  OE1      280.6350  194.5290  201.5270 O.co2  96  GLU96      -0.2457
     94  OE2      279.9470  192.4970  201.9600 O.co2  96  GLU96      -0.2457
     95  N        280.0210  184.5490  219.2410 N.3   169  TRP169     -0.1241
     96  CA       280.0330  185.8080  218.5090 C.3   169  TRP169      0.1605
     97  C        278.9870  186.7580  219.0590 C.2   169  TRP169      0.2264
     98  O        279.2250  187.9640  219.1550 O.2   169  TRP169     -0.2867
     99  CB       279.7910  185.5700  217.0250 C.3   169  TRP169      0.0550
    100  CG       279.9080  186.8110  216.2210 C.ar  169  TRP169      0.0003
    101  CD1      281.0160  187.2720  215.5850 C.ar  169  TRP169      0.0946
    102  CD2      278.8830  187.7770  215.9870 C.ar  169  TRP169      0.0152
    103  NE1      280.7450  188.4560  214.9530 N.ar  169  TRP169     -0.2442
    104  CE2      279.4410  188.7920  215.1930 C.ar  169  TRP169      0.0810
    105  CE3      277.5460  187.8820  216.3720 C.ar  169  TRP169      0.0012
    106  CZ2      278.7110  189.8920  214.7740 C.ar  169  TRP169      0.0191
    107  CZ3      276.8250  188.9780  215.9590 C.ar  169  TRP169      0.0001
    108  CH2      277.4070  189.9680  215.1680 C.ar  169  TRP169      0.0015
    109  N        279.2500  190.8330  220.5010 N.3   173  ALA173     -0.1245
    110  CA       278.5090  192.0250  220.1130 C.3   173  ALA173      0.1562
    111  C        277.8500  192.6820  221.3110 C.2   173  ALA173      0.2260
    112  O        277.7020  193.9040  221.3440 O.2   173  ALA173     -0.2867
    113  CB       277.4660  191.6750  219.0590 C.3   173  ALA173      0.0290
    114  N        277.1530  203.8840  223.7510 N.3   208  ILE208     -0.1231
    115  CA       277.3600  203.9940  222.3090 C.3   208  ILE208      0.1678
    116  C        276.8100  205.3170  221.7920 C.2   208  ILE208      0.2434
    117  O        275.7280  205.7500  222.2070 O.2   208  ILE208     -0.2733
    118  CB       276.7270  202.8030  221.5720 C.3   208  ILE208      0.0265
    119  CG1      277.5230  201.5280  221.8440 C.3   208  ILE208      0.0019
    120  CG2      276.6280  203.0670  220.0970 C.3   208  ILE208      0.0020
    121  CD1      278.9710  201.6140  221.4070 C.3   208  ILE208      0.0001
    122  N        277.5210  205.9860  220.8910 N.am  209  PRO209     -0.2729
    123  CA       276.9960  207.2170  220.3010 C.3   209  PRO209      0.1401
    124  C        275.9070  206.9160  219.2890 C.2   209  PRO209      0.2269
    125  O        275.8940  205.8650  218.6470 O.2   209  PRO209     -0.2865
    126  CB       278.2230  207.8330  219.6230 C.3   209  PRO209      0.0296
    127  CG       279.3870  207.2340  220.3480 C.3   209  PRO209      0.0237
    128  CD       278.9610  205.8310  220.6350 C.3   209  PRO209      0.0939
    129  N        277.5570  208.7540  214.7300 N.3   212  VAL212     -0.1245
    130  CA       278.5970  207.9890  214.0540 C.3   212  VAL212      0.1561
    131  C        278.4210  208.1310  212.5520 C.2   212  VAL212      0.2260
    132  O        277.9690  207.2050  211.8710 O.2   212  VAL212     -0.2867
    133  CB       278.5740  206.5190  214.4880 C.3   212  VAL212      0.0252
    134  CG1      279.6840  205.7520  213.8020 C.3   212  VAL212      0.0019
    135  CG2      278.7040  206.4260  215.9970 C.3   212  VAL212      0.0019
    136  N        279.6960  209.5150  208.5840 N.3   214  VAL214     -0.1245
    137  CA       280.8960  209.5240  207.7600 C.3   214  VAL214      0.1561
    138  C        280.8660  210.6900  206.7830 C.2   214  VAL214      0.2260
    139  O        281.5500  211.6980  206.9820 O.2   214  VAL214     -0.2867
    140  CB       281.0490  208.1920  207.0120 C.3   214  VAL214      0.0252
    141  CG1      282.3010  208.2130  206.1600 C.3   214  VAL214      0.0019
    142  CG2      281.0760  207.0440  207.9980 C.3   214  VAL214      0.0019
    143  N        273.8460  206.8530  209.6140 N.3   219  ILE219     -0.1231
    144  CA       274.0720  205.6150  210.3510 C.3   219  ILE219      0.1678
    145  C        273.6020  205.7390  211.7950 C.2   219  ILE219      0.2434
    146  O        274.4340  205.9000  212.6910 O.2   219  ILE219     -0.2733
    147  CB       275.5560  205.2350  210.3020 C.3   219  ILE219      0.0265
    148  CG1      276.0150  205.1530  208.8550 C.3   219  ILE219      0.0019
    149  CG2      275.7790  203.8810  210.9310 C.3   219  ILE219      0.0020
    150  CD1      277.5070  205.0520  208.7030 C.3   219  ILE219      0.0001
    151  N        272.3060  205.7300  212.0750 N.am  220  PRO220     -0.2718
    152  CA       271.8720  205.6920  213.4750 C.3   220  PRO220      0.1535
    153  C        272.2070  204.3530  214.1100 C.2   220  PRO220      0.2598
    154  O        272.0640  203.3010  213.4870 O.2   220  PRO220     -0.2715
    155  CB       270.3600  205.9000  213.3790 C.3   220  PRO220      0.0310
    156  CG       270.0150  205.3600  212.0380 C.3   220  PRO220      0.0237
    157  CD       271.1690  205.7080  211.1450 C.3   220  PRO220      0.0939
    158  N        272.6590  204.3970  215.3610 N.am  221  LEU221     -0.1964
    159  CA       273.0660  203.2040  216.0970 C.3   221  LEU221      0.1728
    160  C        272.0590  202.9690  217.2120 C.2   221  LEU221      0.2616
    161  O        272.0240  203.7230  218.1880 O.2   221  LEU221     -0.2715
    162  CB       274.4720  203.3570  216.6680 C.3   221  LEU221      0.0311
    163  CG       275.6790  203.1170  215.7630 C.3   221  LEU221      0.0022
    164  CD1      275.7910  204.2010  214.7420 C.3   221  LEU221      0.0001
    165  CD2      276.9470  203.0510  216.5710 C.3   221  LEU221      0.0001
    166  N        271.2570  201.9160  217.0750 N.am  222  TYR222     -0.1960
    167  CA       270.1430  201.6450  217.9740 C.3   222  TYR222      0.1771
    168  C        270.4790  200.6850  219.0960 C.2   222  TYR222      0.2619
    169  O        269.5640  200.2440  219.7950 O.2   222  TYR222     -0.2715
    170  CB       268.9400  201.1260  217.1960 C.3   222  TYR222      0.0574
    171  CG       268.3380  202.2080  216.3670 C.ar  222  TYR222     -0.0198
    172  CD1      267.4930  203.1360  216.9440 C.ar  222  TYR222     -0.0009
    173  CD2      268.6200  202.3190  215.0200 C.ar  222  TYR222     -0.0009
    174  CE1      266.9410  204.1470  216.2070 C.ar  222  TYR222      0.0417
    175  CE2      268.0680  203.3260  214.2670 C.ar  222  TYR222      0.0417
    176  CZ       267.2260  204.2400  214.8700 C.ar  222  TYR222      0.1957
    177  OH       266.6590  205.2580  214.1430 O.3   222  TYR222     -0.2866
    178  N        271.7460  200.3150  219.2470 N.am  223  CYS223     -0.1968
    179  CA       272.2120  199.4050  220.2860 C.3   223  CYS223      0.1712
    180  C        271.3320  198.1650  220.3330 C.2   223  CYS223      0.2296
    181  O        270.9500  197.6490  219.2820 O.2   223  CYS223     -0.2864
    182  CB       272.2860  200.0880  221.6600 C.3   223  CYS223      0.0983
    183  SG       270.7850  200.8060  222.3600 S.3   223  CYS223     -0.0798
@<TRIPOS>BOND
     1    89    88    2
     2    86    87    1
     3    88    87    1
     4    87    90    1
     5    81    80    2
     6    80    79    1
     7    70    71    1
     8    73    72    2
     9    71    72    1
    10    71    74    1
    11    72    78   am
    12    90    91    1
    13    78    79    1
    14    79    82    1
    15    91    92    1
    16    75    74    1
    17    75    77    1
    18    74    76    1
    19    65    64    2
    20    82    83    1
    21    83    85    1
    22    83    84    1
    23    64    63    1
    24    62    63    1
    25    92    93   ar
    26    92    94   ar
    27    63    66    1
    28    66    67    1
    29    12    14   ar
    30    12    10   ar
    31    67    69    1
    32    67    68    1
    33    14    13   ar
    34    10     9   ar
    35    10     8   ar
    36     9     7   ar
    37    13    11   ar
    38   141   140    1
    39     8    11   ar
    40     8     6   ar
    41     7     6   ar
    42   138   139    2
    43   138   137    1
    44   140   137    1
    45   140   142    1
    46     6     5    1
    47   137   136    1
    48    53    52    2
    49     5     2    1
    50   150   148    1
    51   148   147    1
    52     1     2    1
    53     2     3    1
    54    56    55    1
    55    56    57    2
    56    52    51    1
    57    52    54   am
    58    55    54    1
    59    55    58    1
    60   143   144    1
    61    51    50    1
    62   147   144    1
    63   147   149    1
    64   144   145    1
    65    58    59    1
    66     3     4    2
    67   157   156    1
    68   157   151    1
    69   145   151   am
    70   145   146    2
    71   132   131    2
    72    59    60    1
    73    59    61    1
    74   156   155    1
    75   151   152    1
    76   131   130    1
    77    44    43    2
    78   155   152    1
    79   152   153    1
    80   154   153    2
    81   134   133    1
    82    43    42    1
    83   130   133    1
    84   130   129    1
    85   153   158   am
    86   177   176    1
    87   175   176   ar
    88   175   173   ar
    89   133   135    1
    90   164   163    1
    91   106   108   ar
    92   106   104   ar
    93   176   174   ar
    94   103   104   ar
    95   103   101   ar
    96    46    47    1
    97    46    45    1
    98    49    47   ar
    99   173   171   ar
   100   108   107   ar
   101   104   102   ar
   102    23    21   ar
   103    23    24   ar
   104    42    45    1
   105    42    41    1
   106   158   159    1
   107   101   100   ar
   108    47    48   ar
   109    18    17    2
   110   163   165    1
   111   163   162    1
   112    21    20   ar
   113    32    31    2
   114   107   105   ar
   115   102   100   ar
   116   102   105   ar
   117   159   162    1
   118   159   160    1
   119    26    24   ar
   120    26    28   ar
   121    24    22   ar
   122   174   172   ar
   123   100    99    1
   124    41    31   am
   125   171   172   ar
   126   171   170    1
   127    31    30    1
   128    17    16    1
   129    17    29   am
   130    99    96    1
   131    20    22   ar
   132    20    19    1
   133   166   160   am
   134   166   167    1
   135    28    27   ar
   136   170   167    1
   137   160   161    2
   138    22    25   ar
   139    30    29    1
   140    30    33    1
   141    16    19    1
   142    16    15    1
   143    40    39    1
   144    37    39   ar
   145    37    35   ar
   146   167   168    1
   147    39    38   ar
   148    35    34   ar
   149    38    36   ar
   150    27    25   ar
   151    34    36   ar
   152    34    33    1
   153    96    97    1
   154    96    95    1
   155   125   124    2
   156    97    98    2
   157   113   110    1
   158   168   178   am
   159   168   169    2
   160   178   179    1
   161   181   180    2
   162   124   123    1
   163   126   123    1
   164   126   127    1
   165   120   118    1
   166   110   109    1
   167   110   111    1
   168   179   180    1
   169   179   182    1
   170   123   122    1
   171   127   128    1
   172   128   122    1
   173   122   116   am
   174   111   112    2
   175   121   119    1
   176   118   119    1
   177   118   115    1
   178   182   183    1
   179   116   117    2
   180   116   115    1
   181   115   114    1
