@<TRIPOS>MOLECULE
tmp/6igzO17.pdb
 190 185 0 0 0
SMALL
GASTEIGER

@<TRIPOS>ATOM
      1  N        236.9640  170.8770  255.5490 N.3     5  PHE5       -0.1241
      2  CA       236.8590  172.0570  254.6870 C.3     5  PHE5        0.1605
      3  C        235.4210  172.3270  254.2720 C.2     5  PHE5        0.2264
      4  O        235.1090  172.5410  253.1020 O.2     5  PHE5       -0.2867
      5  CB       237.7670  171.9400  253.4700 C.3     5  PHE5        0.0534
      6  CG       239.2050  172.2440  253.7600 C.ar    5  PHE5       -0.0203
      7  CD1      239.5530  172.9990  254.8610 C.ar    5  PHE5       -0.0042
      8  CD2      240.2050  171.7940  252.9260 C.ar    5  PHE5       -0.0042
      9  CE1      240.8750  173.2890  255.1260 C.ar    5  PHE5       -0.0003
     10  CE2      241.5240  172.0790  253.1840 C.ar    5  PHE5       -0.0003
     11  CZ       241.8610  172.8270  254.2860 C.ar    5  PHE5       -0.0000
     12  N        231.0210  166.2340  243.5550 N.3    15  LEU15      -0.1245
     13  CA       232.4210  166.6070  243.6870 C.3    15  LEU15       0.1561
     14  C        233.0290  165.7750  244.8030 C.2    15  LEU15       0.2260
     15  O        232.7460  166.0070  245.9810 O.2    15  LEU15      -0.2867
     16  CB       232.5390  168.0970  243.9850 C.3    15  LEU15       0.0270
     17  CG       233.9320  168.6980  244.0280 C.3    15  LEU15       0.0019
     18  CD1      233.8560  170.1080  243.5180 C.3    15  LEU15       0.0001
     19  CD2      234.4590  168.6890  245.4420 C.3    15  LEU15       0.0001
     20  N        238.6890  166.2640  240.7000 N.3    19  LEU19      -0.1231
     21  CA       239.4110  167.4200  240.1950 C.3    19  LEU19       0.1678
     22  C        240.6490  167.6880  241.0400 C.2    19  LEU19       0.2434
     23  O        240.5700  167.6470  242.2710 O.2    19  LEU19      -0.2733
     24  CB       238.4880  168.6270  240.2040 C.3    19  LEU19       0.0284
     25  CG       237.3240  168.3950  239.2520 C.3    19  LEU19       0.0019
     26  CD1      236.2730  169.4660  239.4140 C.3    19  LEU19       0.0001
     27  CD2      237.8500  168.3640  237.8320 C.3    19  LEU19       0.0001
     28  N        241.8000  167.9500  240.4260 N.am   20  PRO20      -0.2718
     29  CA       243.0050  168.2280  241.2100 C.3    20  PRO20       0.1535
     30  C        242.7830  169.3730  242.1820 C.2    20  PRO20       0.2599
     31  O        242.3150  170.4470  241.8090 O.2    20  PRO20      -0.2715
     32  CB       244.0410  168.5840  240.1410 C.3    20  PRO20       0.0310
     33  CG       243.5940  167.8280  238.9470 C.3    20  PRO20       0.0237
     34  CD       242.0950  167.8530  238.9860 C.3    20  PRO20       0.0939
     35  N        243.1320  169.1310  243.4390 N.am   21  GLY21      -0.1941
     36  CA       242.9290  170.1200  244.4730 C.3    21  GLY21       0.2014
     37  C        241.5100  170.2310  244.9710 C.2    21  GLY21       0.2639
     38  O        241.0890  171.3160  245.3730 O.2    21  GLY21      -0.2714
     39  N        240.7520  169.1390  244.9640 N.am   22  ASP22      -0.1957
     40  CA       239.3710  169.1770  245.4220 C.3    22  ASP22       0.1840
     41  C        239.3240  168.7970  246.8950 C.2    22  ASP22       0.2622
     42  O        239.5870  167.6510  247.2680 O.2    22  ASP22      -0.2715
     43  CB       238.4750  168.2640  244.5870 C.3    22  ASP22       0.1450
     44  CG       238.9320  166.8160  244.5830 C.2    22  ASP22       0.3671
     45  OD1      240.0690  166.5240  245.0150 O.co2  22  ASP22      -0.2456
     46  OD2      238.1320  165.9580  244.1550 O.co2  22  ASP22      -0.2456
     47  N        239.0080  169.7660  247.7360 N.am   23  TYR23      -0.1974
     48  CA       238.8190  169.5180  249.1510 C.3    23  TYR23       0.1639
     49  C        237.3630  169.3640  249.5270 C.2    23  TYR23       0.2290
     50  O        237.0490  169.2450  250.7120 O.2    23  TYR23      -0.2864
     51  CB       239.4770  170.6170  249.9590 C.3    23  TYR23       0.0560
     52  CG       240.9640  170.5280  249.8420 C.ar   23  TYR23      -0.0198
     53  CD1      241.5780  169.2950  249.7660 C.ar   23  TYR23      -0.0009
     54  CD2      241.7520  171.6550  249.8150 C.ar   23  TYR23      -0.0009
     55  CE1      242.9250  169.1840  249.6620 C.ar   23  TYR23       0.0417
     56  CE2      243.1110  171.5550  249.7100 C.ar   23  TYR23       0.0417
     57  CZ       243.6930  170.3130  249.6340 C.ar   23  TYR23       0.1957
     58  OH       245.0560  170.1980  249.5290 O.3    23  TYR23      -0.2866
     59  N        235.2720  171.6710  249.3650 N.3    25  PHE25      -0.1227
     60  CA       234.7670  172.9580  249.8150 C.3    25  PHE25       0.1736
     61  C        234.0910  173.6020  248.6220 C.2    25  PHE25       0.2595
     62  O        234.7490  174.1410  247.7340 O.2    25  PHE25      -0.2718
     63  CB       235.9040  173.8150  250.3490 C.3    25  PHE25       0.0547
     64  CG       235.5070  175.2100  250.6680 C.ar   25  PHE25      -0.0202
     65  CD1      234.8050  175.4920  251.8130 C.ar   25  PHE25      -0.0042
     66  CD2      235.8610  176.2440  249.8390 C.ar   25  PHE25      -0.0042
     67  CE1      234.4450  176.7770  252.1110 C.ar   25  PHE25      -0.0003
     68  CE2      235.5100  177.5310  250.1370 C.ar   25  PHE25      -0.0003
     69  CZ       234.8000  177.7980  251.2710 C.ar   25  PHE25      -0.0000
     70  N        232.7630  173.5520  248.6110 N.am   26  ASP26      -0.1960
     71  CA       231.9660  174.1580  247.5500 C.3    26  ASP26       0.1825
     72  C        230.6540  174.6160  248.1640 C.2    26  ASP26       0.2464
     73  O        229.5840  174.0690  247.8780 O.2    26  ASP26      -0.2730
     74  CB       231.7560  173.1640  246.4110 C.3    26  ASP26       0.1450
     75  CG       230.9840  173.7470  245.2630 C.2    26  ASP26       0.3671
     76  OD1      231.3920  174.8020  244.7460 O.co2  26  ASP26      -0.2456
     77  OD2      229.9960  173.1170  244.8400 O.co2  26  ASP26      -0.2456
     78  N        230.6820  175.6510  249.0300 N.am   27  PRO27      -0.2727
     79  CA       229.4990  176.0490  249.8010 C.3    27  PRO27       0.1402
     80  C        228.2670  176.4490  248.9790 C.2    27  PRO27       0.2269
     81  O        227.1720  176.1040  249.3790 O.2    27  PRO27      -0.2865
     82  CB       229.9890  177.2460  250.6320 C.3    27  PRO27       0.0296
     83  CG       231.2040  177.7490  249.8840 C.3    27  PRO27       0.0237
     84  CD       231.8370  176.5070  249.2940 C.3    27  PRO27       0.0939
     85  N        228.5040  175.8600  243.0840 N.3    30  LEU30      -0.1231
     86  CA       228.6050  176.4470  241.7510 C.3    30  LEU30       0.1693
     87  C        228.9410  175.3810  240.7190 C.2    30  LEU30       0.2591
     88  O        228.1180  175.0530  239.8620 O.2    30  LEU30      -0.2718
     89  CB       229.6260  177.5830  241.7460 C.3    30  LEU30       0.0284
     90  CG       228.9700  178.9500  241.9190 C.3    30  LEU30       0.0019
     91  CD1      228.2160  179.0400  243.2090 C.3    30  LEU30       0.0001
     92  CD2      230.0210  180.0280  241.8680 C.3    30  LEU30       0.0001
     93  N        230.1490  174.8390  240.7760 N.am   31  LEU31      -0.1980
     94  CA       230.4160  173.6170  240.0390 C.3    31  LEU31       0.1596
     95  C        229.3840  172.5820  240.4620 C.2    31  LEU31       0.2287
     96  O        229.1470  172.3850  241.6540 O.2    31  LEU31      -0.2864
     97  CB       231.8340  173.1350  240.3200 C.3    31  LEU31       0.0297
     98  CG       232.3730  172.0020  239.4590 C.3    31  LEU31       0.0022
     99  CD1      233.8600  172.1660  239.3030 C.3    31  LEU31       0.0001
    100  CD2      232.0610  170.6670  240.0810 C.3    31  LEU31       0.0001
    101  N        229.1040  180.1930  234.6330 N.3    41  ILE41      -0.1245
    102  CA       228.9840  179.3480  235.8130 C.3    41  ILE41       0.1561
    103  C        228.6080  177.9490  235.3530 C.2    41  ILE41       0.2260
    104  O        227.4820  177.7190  234.8940 O.2    41  ILE41      -0.2867
    105  CB       227.9610  179.8970  236.8080 C.3    41  ILE41       0.0252
    106  CG1      228.4960  181.1930  237.3990 C.3    41  ILE41       0.0019
    107  CG2      227.6850  178.8820  237.8890 C.3    41  ILE41       0.0019
    108  CD1      227.5160  181.9140  238.2220 C.3    41  ILE41       0.0001
    109  N        234.3480  177.3470  235.3570 N.3    46  LEU46      -0.1231
    110  CA       234.8530  177.7480  236.6630 C.3    46  LEU46       0.1693
    111  C        236.1630  177.0590  237.0100 C.2    46  LEU46       0.2591
    112  O        237.0400  177.6620  237.6350 O.2    46  LEU46      -0.2718
    113  CB       233.8000  177.4590  237.7190 C.3    46  LEU46       0.0284
    114  CG       232.5490  178.2810  237.4540 C.3    46  LEU46       0.0019
    115  CD1      231.4400  177.8970  238.3950 C.3    46  LEU46       0.0001
    116  CD2      232.8700  179.7450  237.5890 C.3    46  LEU46       0.0001
    117  N        236.3240  175.8010  236.6080 N.am   47  ARG47      -0.1980
    118  CA       237.6150  175.1490  236.7810 C.3    47  ARG47       0.1597
    119  C        238.6950  175.8680  235.9960 C.2    47  ARG47       0.2287
    120  O        239.8460  175.9550  236.4340 O.2    47  ARG47      -0.2864
    121  CB       237.5360  173.7000  236.3240 C.3    47  ARG47       0.0334
    122  CG       236.6260  172.8470  237.1400 C.3    47  ARG47       0.0492
    123  CD       236.5820  171.4510  236.5850 C.3    47  ARG47       0.2205
    124  NE       235.9680  171.3920  235.2650 N.pl3  47  ARG47      -0.0865
    125  CZ       236.6470  171.2760  234.1290 C.cat  47  ARG47       0.5346
    126  NH1      237.9720  171.2150  234.1480 N.pl3  47  ARG47       0.1354
    127  NH2      236.0020  171.2240  232.9720 N.pl3  47  ARG47       0.1354
    128  N        238.8440  179.0830  234.8600 N.3    49  SER49      -0.1202
    129  CA       239.2680  180.3790  235.3700 C.3    49  SER49       0.2020
    130  C        240.0150  180.2350  236.6820 C.2    49  SER49       0.2618
    131  O        240.8680  181.0670  237.0010 O.2    49  SER49      -0.2717
    132  CB       238.0740  181.3010  235.5650 C.3    49  SER49       0.2103
    133  OG       237.2440  180.8080  236.5940 O.3    49  SER49      -0.2182
    134  N        239.7020  179.2000  237.4560 N.am   50  GLU50      -0.1979
    135  CA       240.4180  178.9740  238.7010 C.3    50  GLU50       0.1602
    136  C        241.8900  178.7320  238.4290 C.2    50  GLU50       0.2287
    137  O        242.7580  179.3140  239.0840 O.2    50  GLU50      -0.2864
    138  CB       239.7910  177.7980  239.4400 C.3    50  GLU50       0.0415
    139  CG       240.3420  177.4980  240.8160 C.3    50  GLU50       0.1163
    140  CD       241.5670  176.6370  240.7860 C.2    50  GLU50       0.3649
    141  OE1      241.7970  175.9700  239.7590 O.co2  50  GLU50      -0.2457
    142  OE2      242.2780  176.5990  241.8070 O.co2  50  GLU50      -0.2457
    143  N        243.4500  182.1290  236.9680 N.3    53  HIS53      -0.1241
    144  CA       243.6820  183.0450  238.0770 C.3    53  HIS53       0.1621
    145  C        244.8400  182.5800  238.9300 C.2    53  HIS53       0.2264
    146  O        245.6050  183.3960  239.4490 O.2    53  HIS53      -0.2867
    147  CB       242.4470  183.1820  238.9560 C.3    53  HIS53       0.0745
    148  CG       241.3760  184.0380  238.3770 C.ar   53  HIS53       0.0817
    149  ND1      240.4610  183.5690  237.4660 N.ar   53  HIS53      -0.2268
    150  CD2      241.0510  185.3280  238.6110 C.ar   53  HIS53       0.1154
    151  CE1      239.6260  184.5400  237.1520 C.ar   53  HIS53       0.1986
    152  NE2      239.9630  185.6180  237.8320 N.ar   53  HIS53      -0.2212
    153  N        246.1080  178.7690  244.4800 N.3   181  ARG181     -0.1245
    154  CA       245.2010  179.2930  245.4910 C.3   181  ARG181      0.1563
    155  C        245.9500  180.1220  246.5230 C.2   181  ARG181      0.2260
    156  O        245.5240  181.2230  246.8800 O.2   181  ARG181     -0.2867
    157  CB       244.4650  178.1340  246.1500 C.3   181  ARG181      0.0307
    158  CG       243.5770  177.3840  245.1970 C.3   181  ARG181      0.0489
    159  CD       242.9490  176.2010  245.8660 C.3   181  ARG181      0.2205
    160  NE       242.1250  175.4560  244.9320 N.pl3 181  ARG181     -0.0865
    161  CZ       241.6070  174.2670  245.1930 C.cat 181  ARG181      0.5346
    162  NH1      241.8440  173.6860  246.3570 N.pl3 181  ARG181      0.1354
    163  NH2      240.8650  173.6510  244.2870 N.pl3 181  ARG181      0.1354
    164  N        246.9500  183.4630  244.9540 N.3   184  MET184     -0.1230
    165  CA       245.8960  184.4620  244.8430 C.3   184  MET184      0.1702
    166  C        245.7630  185.2410  246.1390 C.2   184  MET184      0.2592
    167  O        245.8580  186.4710  246.1540 O.2   184  MET184     -0.2718
    168  CB       244.5660  183.8050  244.5040 C.3   184  MET184      0.0401
    169  CG       244.5260  183.0170  243.2340 C.3   184  MET184      0.0596
    170  SD       242.8710  182.3370  243.0800 S.3   184  MET184     -0.1393
    171  CE       243.0630  181.2110  241.7180 C.3   184  MET184      0.0692
    172  N        245.5280  184.5300  247.2440 N.am  185  MET185     -0.1979
    173  CA       245.3660  185.1920  248.5320 C.3   185  MET185      0.1605
    174  C        246.5230  186.1380  248.8050 C.2   185  MET185      0.2287
    175  O        246.3250  187.2430  249.3180 O.2   185  MET185     -0.2864
    176  CB       245.2500  184.1550  249.6440 C.3   185  MET185      0.0413
    177  CG       244.0410  183.2550  249.5280 C.3   185  MET185      0.0598
    178  SD       242.4860  184.1550  249.5160 S.3   185  MET185     -0.1393
    179  CE       242.5040  184.8780  251.1480 C.3   185  MET185      0.0692
    180  N        245.7020  189.0560  246.8590 N.3   188  PHE188     -0.1241
    181  CA       244.5620  189.7030  247.4910 C.3   188  PHE188      0.1605
    182  C        244.9830  190.4710  248.7270 C.2   188  PHE188      0.2264
    183  O        244.3590  191.4750  249.0750 O.2   188  PHE188     -0.2867
    184  CB       243.5030  188.6730  247.8520 C.3   188  PHE188      0.0534
    185  CG       242.3010  189.2560  248.5150 C.ar  188  PHE188     -0.0203
    186  CD1      241.3390  189.8990  247.7730 C.ar  188  PHE188     -0.0042
    187  CD2      242.1190  189.1430  249.8720 C.ar  188  PHE188     -0.0042
    188  CE1      240.2290  190.4280  248.3750 C.ar  188  PHE188     -0.0003
    189  CE2      241.0090  189.6690  250.4790 C.ar  188  PHE188     -0.0003
    190  CZ       240.0630  190.3120  249.7290 C.ar  188  PHE188     -0.0000
@<TRIPOS>BOND
     1   127   125    1
     2   125   126    1
     3   125   124    2
     4   101   102    1
     5   128   129    1
     6   104   103    2
     7   124   123    1
     8   103   102    1
     9   109   110    1
    10   129   132    1
    11   129   130    1
    12   132   133    1
    13   102   105    1
    14   119   120    2
    15   119   118    1
    16   121   118    1
    17   121   122    1
    18   123   122    1
    19   117   118    1
    20   117   111   am
    21   110   111    1
    22   110   113    1
    23   130   131    2
    24   130   134   am
    25   105   106    1
    26   105   107    1
    27   143   144    1
    28   111   112    2
    29   151   149   ar
    30   151   152   ar
    31   106   108    1
    32   114   116    1
    33   114   113    1
    34   114   115    1
    35   134   135    1
    36   149   148   ar
    37    27    25    1
    38   152   150   ar
    39   144   145    1
    40   144   147    1
    41   148   150   ar
    42   148   147    1
    43   136   135    1
    44   136   137    2
    45   135   138    1
    46   145   146    2
    47    33    34    1
    48    33    32    1
    49    34    28    1
    50    25    26    1
    51    25    24    1
    52    99    98    1
    53   138   139    1
    54    98   100    1
    55    98    97    1
    56   141   140   ar
    57    88    87    2
    58    94    97    1
    59    94    95    1
    60    94    93    1
    61    32    29    1
    62    21    24    1
    63    21    20    1
    64    21    22    1
    65    28    22   am
    66    28    29    1
    67    95    96    2
    68    87    93   am
    69    87    86    1
    70   140   139    1
    71   140   142   ar
    72    22    23    2
    73    29    30    1
    74   171   170    1
    75    89    86    1
    76    89    90    1
    77    86    85    1
    78    31    30    2
    79    92    90    1
    80    90    91    1
    81    30    35   am
    82   170   169    1
    83   169   168    1
    84    35    36    1
    85    18    17    1
    86    12    13    1
    87    13    16    1
    88    13    14    1
    89    16    17    1
    90    17    19    1
    91    46    44   ar
    92   163   161    1
    93    36    37    1
    94   153   154    1
    95   168   165    1
    96    44    43    1
    97    44    45   ar
    98    43    40    1
    99    76    75   ar
   100    14    15    2
   101    77    75   ar
   102   165   164    1
   103   165   166    1
   104   160   161    2
   105   160   159    1
   106    39    37   am
   107    39    40    1
   108    37    38    2
   109   161   162    1
   110   158   159    1
   111   158   157    1
   112    75    74    1
   113    40    41    1
   114   154   157    1
   115   154   155    1
   116   166   167    2
   117   166   172   am
   118    74    71    1
   119   155   156    2
   120   180   181    1
   121    41    42    2
   122    41    47   am
   123   172   173    1
   124   181   184    1
   125   181   182    1
   126    71    72    1
   127    71    70    1
   128    62    61    2
   129    47    48    1
   130   186   188   ar
   131   186   185   ar
   132   184   185    1
   133    73    72    2
   134    72    78   am
   135   188   190   ar
   136   185   187   ar
   137   173   174    1
   138   173   176    1
   139    70    61   am
   140    61    60    1
   141   182   183    2
   142   174   175    2
   143    80    81    2
   144    80    79    1
   145    78    84    1
   146    78    79    1
   147    48    49    1
   148    48    51    1
   149    84    83    1
   150    59    60    1
   151   178   177    1
   152   178   179    1
   153    49    50    2
   154   177   176    1
   155    58    57    1
   156    57    55   ar
   157    57    56   ar
   158    55    53   ar
   159    56    54   ar
   160   190   189   ar
   161    53    52   ar
   162    79    82    1
   163    60    63    1
   164    54    52   ar
   165    66    68   ar
   166    66    64   ar
   167    52    51    1
   168   187   189   ar
   169    83    82    1
   170    68    69   ar
   171    63    64    1
   172    64    65   ar
   173    69    67   ar
   174    65    67   ar
   175     8    10   ar
   176     8     6   ar
   177     4     3    2
   178    10    11   ar
   179     5     6    1
   180     5     2    1
   181     6     7   ar
   182     3     2    1
   183    11     9   ar
   184     2     1    1
   185     7     9   ar
