@<TRIPOS>MOLECULE
tmp/6igzQ17.pdb
 184 179 0 0 0
SMALL
GASTEIGER

@<TRIPOS>ATOM
      1  N        267.2920  182.7450  181.0760 N.3     4  TRP4       -0.1241
      2  CA       267.8190  183.9220  181.7510 C.3     4  TRP4        0.1605
      3  C        268.3170  183.5510  183.1340 C.2     4  TRP4        0.2264
      4  O        269.3710  184.0130  183.5650 O.2     4  TRP4       -0.2867
      5  CB       266.7570  185.0120  181.8330 C.3     4  TRP4        0.0550
      6  CG       265.5760  184.6000  182.5980 C.ar    4  TRP4        0.0003
      7  CD1      264.5590  183.8280  182.1570 C.ar    4  TRP4        0.0946
      8  CD2      265.2570  184.9640  183.9390 C.ar    4  TRP4        0.0152
      9  NE1      263.6280  183.6640  183.1480 N.ar    4  TRP4       -0.2442
     10  CE2      264.0380  184.3570  184.2540 C.ar    4  TRP4        0.0810
     11  CE3      265.8890  185.7380  184.9050 C.ar    4  TRP4        0.0012
     12  CZ2      263.4380  184.5000  185.4880 C.ar    4  TRP4        0.0191
     13  CZ3      265.2920  185.8760  186.1290 C.ar    4  TRP4        0.0001
     14  CH2      264.0830  185.2600  186.4120 C.ar    4  TRP4        0.0015
     15  N        255.4060  179.9730  177.2380 N.3    14  LEU14      -0.1245
     16  CA       256.6040  180.3070  176.4800 C.3    14  LEU14       0.1561
     17  C        257.5530  179.1190  176.5290 C.2    14  LEU14       0.2260
     18  O        258.2060  178.8950  177.5520 O.2    14  LEU14      -0.2867
     19  CB       257.2560  181.5420  177.0870 C.3    14  LEU14       0.0270
     20  CG       258.3940  182.2820  176.4150 C.3    14  LEU14       0.0019
     21  CD1      258.3660  183.6830  176.9570 C.3    14  LEU14       0.0001
     22  CD2      259.7210  181.6230  176.6980 C.3    14  LEU14       0.0001
     23  N        259.8550  181.3430  169.9900 N.3    18  MET18      -0.1230
     24  CA       260.2540  182.5770  169.3350 C.3    18  MET18       0.1702
     25  C        261.7690  182.6630  169.2750 C.2    18  MET18       0.2593
     26  O        262.4810  181.9990  170.0310 O.2    18  MET18      -0.2718
     27  CB       259.6940  183.7800  170.0880 C.3    18  MET18       0.0401
     28  CG       258.1890  183.7850  170.1900 C.3    18  MET18       0.0596
     29  SD       257.3750  183.7830  168.5890 S.3    18  MET18      -0.1393
     30  CE       257.8150  185.4080  167.9910 C.3    18  MET18       0.0692
     31  N        262.2650  183.4580  168.3400 N.am   19  THR19      -0.1939
     32  CA       263.7010  183.6490  168.2490 C.3    19  THR19       0.2028
     33  C        264.2040  184.2530  169.5490 C.2    19  THR19       0.2643
     34  O        263.7090  185.2910  169.9910 O.2    19  THR19      -0.2714
     35  CB       264.0350  184.5550  167.0670 C.3    19  THR19       0.1808
     36  OG1      263.5160  183.9790  165.8640 O.3    19  THR19      -0.2208
     37  CG2      265.5320  184.7000  166.9260 C.3    19  THR19       0.0379
     38  N        265.1680  183.5900  170.1740 N.am   20  GLY20      -0.1939
     39  CA       265.7510  184.1020  171.3970 C.3    20  GLY20       0.2014
     40  C        264.7910  184.2230  172.5600 C.2    20  GLY20       0.2639
     41  O        264.6550  185.3000  173.1450 O.2    20  GLY20      -0.2714
     42  N        264.1190  183.1330  172.9090 N.am   21  ASP21      -0.1957
     43  CA       263.2420  183.1070  174.0720 C.3    21  ASP21       0.1840
     44  C        263.9460  182.3760  175.2090 C.2    21  ASP21       0.2622
     45  O        264.1170  181.1560  175.1720 O.2    21  ASP21      -0.2715
     46  CB       261.8920  182.4790  173.7320 C.3    21  ASP21       0.1450
     47  CG       262.0210  181.1190  173.1000 C.2    21  ASP21       0.3671
     48  OD1      263.1590  180.7120  172.7910 O.co2  21  ASP21      -0.2456
     49  OD2      260.9790  180.4600  172.8950 O.co2  21  ASP21      -0.2456
     50  N        264.3620  183.1380  176.2100 N.am   22  PHE22      -0.1960
     51  CA       265.0940  182.6340  177.3550 C.3    22  PHE22       0.1771
     52  C        264.1950  182.3900  178.5540 C.2    22  PHE22       0.2620
     53  O        264.6930  182.0830  179.6380 O.2    22  PHE22      -0.2715
     54  CB       266.2100  183.6070  177.6990 C.3    22  PHE22       0.0574
     55  CG       267.2050  183.7760  176.5980 C.ar   22  PHE22      -0.0200
     56  CD1      267.4150  182.7710  175.6790 C.ar   22  PHE22      -0.0042
     57  CD2      267.8970  184.9540  176.4520 C.ar   22  PHE22      -0.0042
     58  CE1      268.3250  182.9280  174.6590 C.ar   22  PHE22      -0.0003
     59  CE2      268.7980  185.1150  175.4340 C.ar   22  PHE22      -0.0003
     60  CZ       269.0110  184.1030  174.5360 C.ar   22  PHE22      -0.0000
     61  N        262.8880  182.5420  178.3890 N.am   23  GLY23      -0.1940
     62  CA       261.9590  182.3090  179.4770 C.3    23  GLY23       0.2014
     63  C        261.8120  183.4390  180.4650 C.2    23  GLY23       0.2639
     64  O        261.7720  183.1970  181.6750 O.2    23  GLY23      -0.2714
     65  N        261.7140  184.6720  179.9920 N.am   24  TRP24      -0.1959
     66  CA       261.5790  185.8240  180.8760 C.3    24  TRP24       0.1771
     67  C        260.1950  186.4420  180.7140 C.2    24  TRP24       0.2619
     68  O        259.9360  187.1710  179.7590 O.2    24  TRP24      -0.2715
     69  CB       262.6960  186.8130  180.5660 C.3    24  TRP24       0.0590
     70  CG       262.5980  188.1420  181.1990 C.ar   24  TRP24       0.0006
     71  CD1      262.3840  189.3130  180.5680 C.ar   24  TRP24       0.0946
     72  CD2      262.7100  188.4460  182.5840 C.ar   24  TRP24       0.0152
     73  NE1      262.3640  190.3410  181.4650 N.ar   24  TRP24      -0.2442
     74  CE2      262.5590  189.8310  182.7170 C.ar   24  TRP24       0.0810
     75  CE3      262.9260  187.6820  183.7260 C.ar   24  TRP24       0.0012
     76  CZ2      262.6110  190.4690  183.9410 C.ar   24  TRP24       0.0191
     77  CZ3      262.9790  188.3170  184.9400 C.ar   24  TRP24       0.0001
     78  CH2      262.8290  189.6990  185.0390 C.ar   24  TRP24       0.0015
     79  N        259.3150  186.1440  181.6670 N.am   25  ASP25      -0.1971
     80  CA       258.0250  186.8250  181.8030 C.3    25  ASP25       0.1709
     81  C        257.6220  186.8870  183.2580 C.2    25  ASP25       0.2293
     82  O        256.8540  186.0520  183.7450 O.2    25  ASP25      -0.2864
     83  CB       256.9250  186.1670  180.9820 C.3    25  ASP25       0.1436
     84  CG       256.8080  186.7550  179.6240 C.2    25  ASP25       0.3671
     85  OD1      257.3480  187.8560  179.4310 O.co2  25  ASP25      -0.2456
     86  OD2      256.1550  186.1490  178.7610 O.co2  25  ASP25      -0.2456
     87  N        253.0380  188.5860  179.8860 N.3    29  LEU29      -0.1231
     88  CA       252.3140  189.2750  178.8260 C.3    29  LEU29       0.1693
     89  C        252.2400  188.4640  177.5410 C.2    29  LEU29       0.2592
     90  O        251.4320  188.7870  176.6650 O.2    29  LEU29      -0.2718
     91  CB       252.9620  190.6290  178.5300 C.3    29  LEU29       0.0284
     92  CG       252.5520  191.8520  179.3460 C.3    29  LEU29       0.0019
     93  CD1      252.9530  191.6820  180.7660 C.3    29  LEU29       0.0001
     94  CD2      253.2000  193.0840  178.7850 C.3    29  LEU29       0.0001
     95  N        253.0590  187.4310  177.4030 N.am   30  GLY30      -0.1957
     96  CA       253.0760  186.6490  176.1910 C.3    30  GLY30       0.1869
     97  C        252.0580  185.5440  176.1080 C.2    30  GLY30       0.2309
     98  O        251.9820  184.8630  175.0840 O.2    30  GLY30      -0.2863
     99  N        250.9610  189.1130  171.9690 N.3    36  MET36      -0.1245
    100  CA       252.3830  188.7940  171.9240 C.3    36  MET36       0.1570
    101  C        252.9480  189.0100  170.5330 C.2    36  MET36       0.2261
    102  O        254.1020  189.4220  170.3890 O.2    36  MET36      -0.2867
    103  CB       252.6290  187.3600  172.3670 C.3    36  MET36       0.0387
    104  CG       254.0960  186.9780  172.3830 C.3    36  MET36       0.0595
    105  SD       254.3730  185.3650  173.1290 S.3    36  MET36      -0.1393
    106  CE       256.1360  185.1940  172.9260 C.3    36  MET36       0.0692
    107  N        253.5540  192.7250  170.4690 N.3    39  PHE39      -0.1227
    108  CA       254.7570  192.9630  171.2540 C.3    39  PHE39       0.1736
    109  C        255.9880  192.4550  170.5390 C.2    39  PHE39       0.2595
    110  O        257.0760  193.0130  170.6980 O.2    39  PHE39      -0.2718
    111  CB       254.6340  192.2870  172.6150 C.3    39  PHE39       0.0547
    112  CG       253.5550  192.8560  173.4690 C.ar   39  PHE39      -0.0202
    113  CD1      253.1250  194.1430  173.2820 C.ar   39  PHE39      -0.0042
    114  CD2      252.9480  192.0920  174.4370 C.ar   39  PHE39      -0.0042
    115  CE1      252.1350  194.6630  174.0550 C.ar   39  PHE39      -0.0003
    116  CE2      251.9490  192.6110  175.2120 C.ar   39  PHE39      -0.0003
    117  CZ       251.5410  193.8940  175.0210 C.ar   39  PHE39      -0.0000
    118  N        255.8350  191.4040  169.7410 N.am   40  ARG40      -0.1980
    119  CA       256.9690  190.8720  169.0060 C.3    40  ARG40       0.1597
    120  C        257.5200  191.8860  168.0220 C.2    40  ARG40       0.2287
    121  O        258.7290  191.9270  167.7810 O.2    40  ARG40      -0.2864
    122  CB       256.5610  189.6020  168.2820 C.3    40  ARG40       0.0334
    123  CG       257.6800  189.0080  167.5050 C.3    40  ARG40       0.0492
    124  CD       258.8400  188.7390  168.4260 C.3    40  ARG40       0.2205
    125  NE       259.9410  188.1150  167.7140 N.pl3  40  ARG40      -0.0865
    126  CZ       261.1610  187.9960  168.2090 C.cat  40  ARG40       0.5346
    127  NH1      261.4290  188.4570  169.4220 N.pl3  40  ARG40       0.1354
    128  NH2      262.1060  187.4100  167.4910 N.pl3  40  ARG40       0.1354
    129  N        257.2120  195.2510  168.4860 N.3    42  ALA42      -0.1231
    130  CA       257.7420  196.3640  169.2570 C.3    42  ALA42       0.1694
    131  C        259.1730  196.0980  169.6930 C.2    42  ALA42       0.2591
    132  O        260.0280  196.9860  169.6100 O.2    42  ALA42      -0.2718
    133  CB       256.8480  196.6270  170.4640 C.3    42  ALA42       0.0304
    134  N        259.4560  194.8760  170.1460 N.am   43  GLU43      -0.1979
    135  CA       260.8010  194.5520  170.6000 C.3    43  GLU43       0.1602
    136  C        261.8110  194.7930  169.4960 C.2    43  GLU43       0.2287
    137  O        262.9150  195.2840  169.7480 O.2    43  GLU43      -0.2864
    138  CB       260.8540  193.1050  171.0720 C.3    43  GLU43       0.0415
    139  CG       262.1420  192.7300  171.7540 C.3    43  GLU43       0.1163
    140  CD       262.0880  191.3420  172.3370 C.2    43  GLU43       0.3649
    141  OE1      261.1030  190.6330  172.0800 O.co2  43  GLU43      -0.2457
    142  OE2      263.0060  190.9710  173.0860 O.co2  43  GLU43      -0.2457
    143  N        261.6240  198.9580  168.9170 N.3    46  ASN46      -0.1240
    144  CA       262.3980  199.6260  169.9550 C.3    46  ASN46       0.1653
    145  C        263.8660  199.2440  169.8680 C.2    46  ASN46       0.2266
    146  O        264.7460  200.1000  169.9930 O.2    46  ASN46      -0.2867
    147  CB       261.8320  199.2920  171.3280 C.3    46  ASN46       0.1155
    148  CG       260.5400  200.0040  171.6040 C.2    46  ASN46       0.2627
    149  OD1      260.5300  201.1700  171.9770 O.2    46  ASN46      -0.2716
    150  ND2      259.4360  199.3160  171.3960 N.am   46  ASN46      -0.0877
    151  N        268.5830  194.1520  172.5100 N.3   153  ARG153     -0.1245
    152  CA       268.1610  194.0620  173.8970 C.3   153  ARG153      0.1563
    153  C        269.2340  194.5320  174.8520 C.2   153  ARG153      0.2260
    154  O        268.9240  194.9190  175.9790 O.2   153  ARG153     -0.2867
    155  CB       267.7490  192.6250  174.1580 C.3   153  ARG153      0.0307
    156  CG       266.4330  192.3480  173.5170 C.3   153  ARG153      0.0489
    157  CD       266.1940  190.9040  173.2350 C.3   153  ARG153      0.2205
    158  NE       266.3390  190.0370  174.3820 N.pl3 153  ARG153     -0.0865
    159  CZ       266.1820  188.7300  174.3100 C.cat 153  ARG153      0.5346
    160  NH1      265.8590  188.1800  173.1480 N.pl3 153  ARG153      0.1354
    161  NH2      266.3470  187.9710  175.3740 N.pl3 153  ARG153      0.1354
    162  N        269.1080  198.8600  173.8040 N.3   156  MET156     -0.1230
    163  CA       268.0020  199.5020  174.5020 C.3   156  MET156      0.1702
    164  C        268.3330  199.6540  175.9730 C.2   156  MET156      0.2592
    165  O        268.2270  200.7410  176.5460 O.2   156  MET156     -0.2718
    166  CB       266.7230  198.6840  174.3480 C.3   156  MET156      0.0401
    167  CG       266.2070  198.5490  172.9470 C.3   156  MET156      0.0596
    168  SD       264.5950  197.7700  172.9710 S.3   156  MET156     -0.1393
    169  CE       265.0630  196.1230  173.4470 C.3   156  MET156      0.0692
    170  N        268.7630  198.5600  176.5900 N.am  157  LEU157     -0.1980
    171  CA       269.1870  198.6080  177.9760 C.3   157  LEU157      0.1596
    172  C        270.3730  199.5360  178.1450 C.2   157  LEU157      0.2287
    173  O        270.5210  200.1680  179.1930 O.2   157  LEU157     -0.2864
    174  CB       269.5360  197.2020  178.4450 C.3   157  LEU157      0.0297
    175  CG       269.6170  196.9540  179.9410 C.3   157  LEU157      0.0022
    176  CD1      269.2760  195.5140  180.1940 C.3   157  LEU157      0.0001
    177  CD2      270.9760  197.2640  180.4830 C.3   157  LEU157      0.0001
    178  N        269.3180  203.6600  178.1080 N.3   160  VAL160     -0.1245
    179  CA       268.8770  204.2510  179.3670 C.3   160  VAL160      0.1561
    180  C        270.0650  204.7330  180.1740 C.2   160  VAL160      0.2260
    181  O        269.9860  205.7520  180.8700 O.2   160  VAL160     -0.2867
    182  CB       268.0260  203.2400  180.1550 C.3   160  VAL160      0.0252
    183  CG1      267.7320  203.7630  181.5340 C.3   160  VAL160      0.0019
    184  CG2      266.7420  202.9740  179.4200 C.3   160  VAL160      0.0019
@<TRIPOS>BOND
     1    36    35    1
     2    37    35    1
     3    35    32    1
     4   128   126    1
     5   123   122    1
     6   123   124    1
     7   125   126    2
     8   125   124    1
     9   121   120    2
    10    30    29    1
    11   120   119    1
    12   126   127    1
    13    32    31    1
    14    32    33    1
    15   122   119    1
    16    31    25   am
    17   129   130    1
    18    29    28    1
    19   143   144    1
    20   119   118    1
    21   130   131    1
    22   130   133    1
    23    25    24    1
    24    25    26    2
    25    24    23    1
    26    24    27    1
    27   136   137    2
    28   136   135    1
    29    33    34    2
    30    33    38   am
    31   132   131    2
    32   131   134   am
    33   118   109   am
    34   145   144    1
    35   145   146    2
    36   144   147    1
    37    27    28    1
    38   134   135    1
    39    38    39    1
    40   102   101    2
    41   107   108    1
    42   101   100    1
    43   109   110    2
    44   109   108    1
    45   135   138    1
    46   138   139    1
    47   108   111    1
    48   147   148    1
    49   150   148   am
    50    39    40    1
    51   148   149    2
    52   139   140    1
    53   100    99    1
    54   100   103    1
    55   141   140   ar
    56   140   142   ar
    57   103   104    1
    58   104   105    1
    59   151   152    1
    60    40    42   am
    61    40    41    2
    62   111   112    1
    63    48    47   ar
    64    49    47   ar
    65    42    43    1
    66   106   105    1
    67   167   168    1
    68   167   166    1
    69   168   169    1
    70    47    46    1
    71   160   159    1
    72   157   156    1
    73   157   158    1
    74   113   112   ar
    75   113   115   ar
    76   112   114   ar
    77   156   155    1
    78    46    43    1
    79   162   163    1
    80   152   155    1
    81   152   153    1
    82   115   117   ar
    83    43    44    1
    84   159   158    2
    85   159   161    1
    86   166   163    1
    87   114   116   ar
    88   163   164    1
    89    60    58   ar
    90    60    59   ar
    91    58    56   ar
    92   153   154    2
    93   117   116   ar
    94    98    97    2
    95    45    44    2
    96    44    50   am
    97    59    57   ar
    98    56    55   ar
    99   164   165    2
   100   164   170   am
   101    97    96    1
   102    96    95    1
   103    50    51    1
   104    20    22    1
   105    20    21    1
   106    20    19    1
   107    57    55   ar
   108    16    17    1
   109    16    19    1
   110    16    15    1
   111    17    18    2
   112   170   171    1
   113    55    54    1
   114    90    89    2
   115    51    54    1
   116    51    52    1
   117    95    89   am
   118    89    88    1
   119   171   172    1
   120   171   174    1
   121   178   179    1
   122   172   173    2
   123    61    52   am
   124    61    62    1
   125   174   175    1
   126    91    88    1
   127    91    92    1
   128    52    53    2
   129    86    84   ar
   130    94    92    1
   131    88    87    1
   132    92    93    1
   133   179   182    1
   134   179   180    1
   135   184   182    1
   136    85    84   ar
   137    62    63    1
   138    84    83    1
   139    68    67    2
   140   175   176    1
   141   175   177    1
   142    65    63   am
   143    65    66    1
   144   182   183    1
   145   180   181    2
   146    63    64    2
   147    69    66    1
   148    69    70    1
   149    71    70   ar
   150    71    73   ar
   151    67    66    1
   152    67    79   am
   153    83    80    1
   154     1     2    1
   155    70    72   ar
   156    73    74   ar
   157    79    80    1
   158     2     5    1
   159     2     3    1
   160    80    81    1
   161     5     6    1
   162     7     6   ar
   163     7     9   ar
   164    72    74   ar
   165    72    75   ar
   166     6     8   ar
   167    74    76   ar
   168     3     4    2
   169     9    10   ar
   170    81    82    2
   171    75    77   ar
   172     8    10   ar
   173     8    11   ar
   174    76    78   ar
   175    10    12   ar
   176    11    13   ar
   177    77    78   ar
   178    12    14   ar
   179    13    14   ar
