@<TRIPOS>MOLECULE
tmp/6igzQ19.pdb
 126 123 0 0 0
SMALL
GASTEIGER

@<TRIPOS>ATOM
      1  N        265.6250  200.8230  166.5910 N.3    49  TRP49      -0.1241
      2  CA       265.9300  202.2430  166.6760 C.3    49  TRP49       0.1605
      3  C        267.0280  202.5100  167.6860 C.2    49  TRP49       0.2264
      4  O        267.9120  203.3330  167.4350 O.2    49  TRP49      -0.2867
      5  CB       264.6940  203.0590  167.0290 C.3    49  TRP49       0.0550
      6  CG       263.7370  203.2090  165.9150 C.ar   49  TRP49       0.0003
      7  CD1      262.5670  202.5470  165.7490 C.ar   49  TRP49       0.0946
      8  CD2      263.8860  204.0570  164.7780 C.ar   49  TRP49       0.0152
      9  NE1      261.9590  202.9480  164.5890 N.ar   49  TRP49      -0.2442
     10  CE2      262.7540  203.8760  163.9750 C.ar   49  TRP49       0.0810
     11  CE3      264.8670  204.9590  164.3660 C.ar   49  TRP49       0.0012
     12  CZ2      262.5740  204.5600  162.7860 C.ar   49  TRP49       0.0191
     13  CZ3      264.6840  205.6400  163.1870 C.ar   49  TRP49       0.0001
     14  CH2      263.5500  205.4360  162.4090 C.ar   49  TRP49       0.0015
     15  N        270.6330  201.6550  166.3380 N.3    52  MET52      -0.1230
     16  CA       271.0910  202.7180  165.4660 C.3    52  MET52       0.1702
     17  C        271.2370  204.0260  166.2230 C.2    52  MET52       0.2592
     18  O        272.0170  204.8860  165.8090 O.2    52  MET52      -0.2718
     19  CB       270.1220  202.8620  164.3000 C.3    52  MET52       0.0401
     20  CG       270.5660  203.8070  163.2170 C.3    52  MET52       0.0596
     21  SD       269.4470  203.7220  161.8120 S.3    52  MET52      -0.1393
     22  CE       270.1950  204.9200  160.7210 C.3    52  MET52       0.0692
     23  N        270.5110  204.1930  167.3200 N.am   53  GLY53      -0.1957
     24  CA       270.6500  205.3770  168.1370 C.3    53  GLY53       0.1869
     25  C        271.8650  205.3680  169.0370 C.2    53  GLY53       0.2309
     26  O        272.5970  206.3570  169.1040 O.2    53  GLY53      -0.2863
     27  N        274.5750  203.6600  168.6780 N.3    55  PHE55      -0.1227
     28  CA       275.7540  203.8240  167.8440 C.3    55  PHE55       0.1736
     29  C        275.8920  205.2600  167.3730 C.2    55  PHE55       0.2596
     30  O        276.9970  205.7050  167.0550 O.2    55  PHE55      -0.2718
     31  CB       275.6940  202.8760  166.6530 C.3    55  PHE55       0.0547
     32  CG       276.8760  202.9770  165.7470 C.ar   55  PHE55      -0.0202
     33  CD1      278.0640  202.3560  166.0720 C.ar   55  PHE55      -0.0042
     34  CD2      276.8010  203.6850  164.5690 C.ar   55  PHE55      -0.0042
     35  CE1      279.1530  202.4450  165.2440 C.ar   55  PHE55      -0.0003
     36  CE2      277.8930  203.7750  163.7340 C.ar   55  PHE55      -0.0003
     37  CZ       279.0680  203.1540  164.0730 C.ar   55  PHE55      -0.0000
     38  N        274.7900  205.9970  167.3270 N.am   56  GLY56      -0.1957
     39  CA       274.8450  207.3870  166.9420 C.3    56  GLY56       0.1869
     40  C        275.5850  208.2230  167.9570 C.2    56  GLY56       0.2309
     41  O        276.5740  208.8720  167.6190 O.2    56  GLY56      -0.2863
     42  N        279.4810  207.4910  168.2170 N.3    59  VAL59      -0.1231
     43  CA       280.1760  208.1260  167.1070 C.3    59  VAL59       0.1692
     44  C        280.0340  209.6360  167.1940 C.2    59  VAL59       0.2591
     45  O        280.9740  210.3820  166.8990 O.2    59  VAL59      -0.2718
     46  CB       279.6470  207.5730  165.7750 C.3    59  VAL59       0.0266
     47  CG1      280.2400  208.3300  164.6170 C.3    59  VAL59       0.0020
     48  CG2      279.9830  206.1030  165.6650 C.3    59  VAL59       0.0020
     49  N        278.8720  210.1090  167.6450 N.am   60  GLN60      -0.1979
     50  CA       278.6120  211.5390  167.7560 C.3    60  GLN60       0.1601
     51  C        279.6230  212.2460  168.6430 C.2    60  GLN60       0.2287
     52  O        279.7490  213.4720  168.5690 O.2    60  GLN60      -0.2864
     53  CB       277.1970  211.7660  168.2950 C.3    60  GLN60       0.0394
     54  CG       276.7500  213.1980  168.3330 C.3    60  GLN60       0.0908
     55  CD       276.7280  213.7970  166.9580 C.2    60  GLN60       0.2608
     56  OE1      276.0250  213.3180  166.0670 O.2    60  GLN60      -0.2717
     57  NE2      277.5210  214.8370  166.7610 N.am   60  GLN60      -0.0878
     58  N        283.7290  212.2040  166.3940 N.3    64  LYS64      -0.1231
     59  CA       283.1610  213.4760  165.9900 C.3    64  LYS64       0.1678
     60  C        283.5470  214.5860  166.9610 C.2    64  LYS64       0.2434
     61  O        284.2840  214.3750  167.9270 O.2    64  LYS64      -0.2733
     62  CB       281.6540  213.3340  165.8750 C.3    64  LYS64       0.0284
     63  CG       281.2340  212.5510  164.6820 C.3    64  LYS64       0.0035
     64  CD       279.7620  212.7300  164.5150 C.3    64  LYS64       0.0206
     65  CE       279.5110  214.1920  164.2130 C.3    64  LYS64       0.1093
     66  NZ       280.1330  214.6110  162.9260 N.3    64  LYS64      -0.1314
     67  N        283.0830  215.8130  166.7110 N.am   65  PRO65      -0.2729
     68  CA       283.2280  216.8720  167.7110 C.3    65  PRO65       0.1401
     69  C        282.5960  216.4700  169.0320 C.2    65  PRO65       0.2269
     70  O        281.7460  215.5840  169.0930 O.2    65  PRO65      -0.2865
     71  CB       282.4890  218.0550  167.0760 C.3    65  PRO65       0.0296
     72  CG       282.6740  217.8460  165.6100 C.3    65  PRO65       0.0237
     73  CD       282.7120  216.3620  165.3890 C.3    65  PRO65       0.0939
     74  N        280.3620  217.4880  171.9370 N.3    67  VAL67      -0.1245
     75  CA       279.3300  218.0980  172.7680 C.3    67  VAL67       0.1561
     76  C        278.3670  216.9880  173.1600 C.2    67  VAL67       0.2260
     77  O        277.7590  216.3630  172.2850 O.2    67  VAL67      -0.2867
     78  CB       278.5930  219.2470  172.0490 C.3    67  VAL67       0.0252
     79  CG1      279.4790  220.4630  171.9610 C.3    67  VAL67       0.0019
     80  CG2      278.2000  218.8320  170.6440 C.3    67  VAL67       0.0019
     81  N        275.0650  215.0870  174.2270 N.3    69  TRP69      -0.1241
     82  CA       273.9390  215.3320  173.3420 C.3    69  TRP69       0.1605
     83  C        272.7820  215.8680  174.1640 C.2    69  TRP69       0.2264
     84  O        271.9670  215.1280  174.6980 O.2    69  TRP69      -0.2867
     85  CB       273.5850  214.0180  172.6580 C.3    69  TRP69       0.0550
     86  CG       273.4180  212.9270  173.6830 C.ar   69  TRP69       0.0003
     87  CD1      274.4140  212.2610  174.3290 C.ar   69  TRP69       0.0946
     88  CD2      272.1920  212.3780  174.1730 C.ar   69  TRP69       0.0152
     89  NE1      273.8900  211.3500  175.2050 N.ar   69  TRP69      -0.2442
     90  CE2      272.5260  211.3980  175.1260 C.ar   69  TRP69       0.0810
     91  CE3      270.8420  212.6230  173.9030 C.ar   69  TRP69       0.0012
     92  CZ2      271.5660  210.6610  175.8010 C.ar   69  TRP69       0.0191
     93  CZ3      269.8930  211.8990  174.5820 C.ar   69  TRP69       0.0001
     94  CH2      270.2560  210.9260  175.5160 C.ar   69  TRP69       0.0015
     95  N        272.2580  218.8460  172.2310 N.3    71  ASP71      -0.1239
     96  CA       272.5150  219.9690  171.3440 C.3    71  ASP71       0.1674
     97  C        271.4680  220.0920  170.2480 C.2    71  ASP71       0.2266
     98  O        271.2930  219.1870  169.4280 O.2    71  ASP71      -0.2867
     99  CB       273.9060  219.8240  170.7380 C.3    71  ASP71       0.1410
    100  CG       274.1310  218.4610  170.1230 C.2    71  ASP71       0.3668
    101  OD1      273.2640  217.5790  170.2970 O.co2  71  ASP71      -0.2456
    102  OD2      275.1820  218.2690  169.4780 O.co2  71  ASP71      -0.2456
    103  N        274.7930  222.6680  166.2270 N.3    74  THR74      -0.1203
    104  CA       275.6560  221.6390  165.6690 C.3    74  THR74       0.1994
    105  C        276.7120  222.2880  164.7800 C.2    74  THR74       0.2618
    106  O        276.7130  223.5030  164.5680 O.2    74  THR74      -0.2717
    107  CB       274.8460  220.6270  164.8510 C.3    74  THR74       0.1784
    108  OG1      274.2920  221.2840  163.7100 O.3    74  THR74      -0.2211
    109  CG2      273.6990  220.0760  165.6680 C.3    74  THR74       0.0376
    110  N        277.6220  221.4650  164.2550 N.am   75  LYS75      -0.1965
    111  CA       278.5270  221.8690  163.1880 C.3    75  LYS75       0.1728
    112  C        278.0500  221.4250  161.8170 C.2    75  LYS75       0.2616
    113  O        278.7220  221.6970  160.8180 O.2    75  LYS75      -0.2715
    114  CB       279.9320  221.3420  163.4480 C.3    75  LYS75       0.0311
    115  CG       280.5360  221.9250  164.6980 C.3    75  LYS75       0.0038
    116  CD       280.5550  223.4420  164.6230 C.3    75  LYS75       0.0206
    117  CE       281.6080  223.9280  163.6470 C.3    75  LYS75       0.1093
    118  NZ       281.7510  225.4040  163.6810 N.3    75  LYS75      -0.1314
    119  N        276.9240  220.7270  161.7570 N.am   76  ILE76      -0.1977
    120  CA       276.1200  220.6370  160.5480 C.3    76  ILE76       0.1596
    121  C        275.1310  221.7920  160.6100 C.2    76  ILE76       0.2287
    122  O        274.1840  221.8540  159.8210 O.2    76  ILE76      -0.2864
    123  CB       275.4140  219.2750  160.4140 C.3    76  ILE76       0.0276
    124  CG1      274.4710  219.0350  161.5940 C.3    76  ILE76       0.0022
    125  CG2      276.4390  218.1550  160.3040 C.3    76  ILE76       0.0022
    126  CD1      273.0200  219.3820  161.3280 C.3    76  ILE76       0.0001
@<TRIPOS>BOND
     1   122   121    2
     2   125   123    1
     3   123   120    1
     4   123   124    1
     5   120   121    1
     6   120   119    1
     7    22    21    1
     8   113   112    2
     9   126   124    1
    10   119   112   am
    11    21    20    1
    12   112   111    1
    13    14    12   ar
    14    14    13   ar
    15    12    10   ar
    16    66    65    1
    17    13    11   ar
    18   111   114    1
    19   111   110    1
    20    20    19    1
    21   114   115    1
    22   117   118    1
    23   117   116    1
    24   108   107    1
    25    36    37   ar
    26    36    34   ar
    27    10     9   ar
    28    10     8   ar
    29    37    35   ar
    30    65    64    1
    31   110   105   am
    32    19    16    1
    33    11     8   ar
    34    64    63    1
    35   106   105    2
    36    34    32   ar
    37     9     7   ar
    38    47    46    1
    39   116   115    1
    40    63    62    1
    41     8     6   ar
    42   105   104    1
    43   107   109    1
    44   107   104    1
    45    35    33   ar
    46    73    72    1
    47    73    67    1
    48    16    17    1
    49    16    15    1
    50    72    71    1
    51    48    46    1
    52   104   103    1
    53    32    33   ar
    54    32    31    1
    55     7     6   ar
    56    46    43    1
    57    18    17    2
    58    62    59    1
    59     6     5    1
    60    59    58    1
    61    59    60    1
    62    56    55    2
    63    17    23   am
    64     1     2    1
    65    31    28    1
    66     2     5    1
    67     2     3    1
    68    67    60   am
    69    67    68    1
    70    57    55   am
    71    45    44    2
    72    39    38    1
    73    39    40    1
    74    55    54    1
    75    60    61    2
    76    30    29    2
    77    71    68    1
    78    43    44    1
    79    43    42    1
    80    44    49   am
    81    23    24    1
    82    38    29   am
    83    29    28    1
    84     4     3    2
    85    41    40    2
    86    49    50    1
    87    68    69    1
    88    50    53    1
    89    50    51    1
    90    28    27    1
    91    24    25    1
    92    53    54    1
    93    52    51    2
    94    69    70    2
    95    25    26    2
    96    98    97    2
    97   102   100   ar
    98   100   101   ar
    99   100    99    1
   100    97    96    1
   101    80    78    1
   102    99    96    1
   103    96    95    1
   104    74    75    1
   105    79    78    1
   106    78    75    1
   107    77    76    2
   108    85    82    1
   109    85    86    1
   110    75    76    1
   111    82    83    1
   112    82    81    1
   113    86    88   ar
   114    86    87   ar
   115    91    88   ar
   116    91    93   ar
   117    83    84    2
   118    88    90   ar
   119    87    89   ar
   120    93    94   ar
   121    90    89   ar
   122    90    92   ar
   123    94    92   ar
