@<TRIPOS>MOLECULE
tmp/6igzF01.pdb
 76 70 0 0 0
SMALL
GASTEIGER

@<TRIPOS>ATOM
      1  N        198.7430  206.8040  195.1050 N.3   105  GLY105     -0.1225
      2  CA       198.1680  205.8520  196.0260 C.3   105  GLY105      0.1811
      3  C        197.2050  204.9320  195.3190 C.2   105  GLY105      0.2280
      4  O        196.9310  203.8290  195.7900 O.2   105  GLY105     -0.2866
      5  N        199.3880  202.0580  193.1930 N.3   108  TYR108     -0.1227
      6  CA       199.9210  201.0330  194.0800 C.3   108  TYR108      0.1736
      7  C        198.8490  200.0310  194.4540 C.2   108  TYR108      0.2595
      8  O        199.0940  198.8230  194.4660 O.2   108  TYR108     -0.2718
      9  CB       200.4970  201.6580  195.3420 C.3   108  TYR108      0.0548
     10  CG       201.0030  200.6280  196.3200 C.ar  108  TYR108     -0.0200
     11  CD1      202.2580  200.0730  196.1790 C.ar  108  TYR108     -0.0009
     12  CD2      200.2170  200.1890  197.3670 C.ar  108  TYR108     -0.0009
     13  CE1      202.7200  199.1340  197.0630 C.ar  108  TYR108      0.0417
     14  CE2      200.6720  199.2450  198.2490 C.ar  108  TYR108      0.0417
     15  CZ       201.9210  198.7250  198.0930 C.ar  108  TYR108      0.1957
     16  OH       202.3790  197.7810  198.9720 O.3   108  TYR108     -0.2866
     17  N        197.6500  200.5120  194.7620 N.am  109  LEU109     -0.1980
     18  CA       196.5740  199.5860  195.0770 C.3   109  LEU109      0.1596
     19  C        196.1740  198.7670  193.8660 C.2   109  LEU109      0.2287
     20  O        195.7110  197.6350  194.0150 O.2   109  LEU109     -0.2864
     21  CB       195.3760  200.3390  195.6340 C.3   109  LEU109      0.0297
     22  CG       195.6340  200.9270  197.0110 C.3   109  LEU109      0.0022
     23  CD1      194.4740  201.7740  197.4150 C.3   109  LEU109      0.0001
     24  CD2      195.8410  199.8120  198.0020 C.3   109  LEU109      0.0001
     25  N        199.5770  195.1670  201.5760 N.3   122  GLU122     -0.1231
     26  CA       199.2940  196.5040  202.0830 C.3   122  GLU122      0.1699
     27  C        200.0590  196.8050  203.3610 C.2   122  GLU122      0.2592
     28  O        200.5690  197.9160  203.5240 O.2   122  GLU122     -0.2718
     29  CB       197.8020  196.6930  202.3310 C.3   122  GLU122      0.0402
     30  CG       196.9680  196.7540  201.0820 C.3   122  GLU122      0.1161
     31  CD       195.5280  197.1090  201.3750 C.2   122  GLU122      0.3649
     32  OE1      195.1510  197.1390  202.5590 O.co2 122  GLU122     -0.2457
     33  OE2      194.7750  197.3850  200.4220 O.co2 122  GLU122     -0.2457
     34  N        200.1220  195.8570  204.2930 N.am  123  ILE123     -0.1980
     35  CA       200.9590  196.0390  205.4720 C.3   123  ILE123      0.1595
     36  C        202.3830  196.2890  205.0280 C.2   123  ILE123      0.2287
     37  O        202.9200  197.3850  205.2050 O.2   123  ILE123     -0.2864
     38  CB       200.9530  194.8230  206.4030 C.3   123  ILE123      0.0276
     39  CG1      199.6250  194.6390  207.0880 C.3   123  ILE123      0.0022
     40  CG2      202.0430  194.9600  207.4350 C.3   123  ILE123      0.0022
     41  CD1      199.6540  193.4100  207.8950 C.3   123  ILE123      0.0001
     42  N        204.9790  196.9350  202.4440 N.3   125  ILE125     -0.1245
     43  CA       205.1500  197.4790  201.1090 C.3   125  ILE125      0.1561
     44  C        206.4000  196.8710  200.5030 C.2   125  ILE125      0.2260
     45  O        207.4090  196.6980  201.1900 O.2   125  ILE125     -0.2867
     46  CB       205.2730  199.0080  201.1820 C.3   125  ILE125      0.0252
     47  CG1      204.0110  199.6190  201.7660 C.3   125  ILE125      0.0019
     48  CG2      205.5770  199.5800  199.8220 C.3   125  ILE125      0.0019
     49  CD1      204.1340  199.9170  203.2170 C.3   125  ILE125      0.0001
     50  N        209.0330  198.3030  198.4550 N.3   127  VAL127     -0.1245
     51  CA       209.3590  199.6740  198.0730 C.3   127  VAL127      0.1561
     52  C        209.6670  199.7810  196.5890 C.2   127  VAL127      0.2260
     53  O        209.2880  200.7850  195.9760 O.2   127  VAL127     -0.2867
     54  CB       210.4810  200.2170  198.9660 C.3   127  VAL127      0.0252
     55  CG1      210.7740  201.6620  198.6170 C.3   127  VAL127      0.0019
     56  CG2      210.1100  200.0630  200.4230 C.3   127  VAL127      0.0019
     57  N        206.5000  200.2770  195.0040 N.3   130  ALA130     -0.1231
     58  CA       206.0250  201.5980  195.3710 C.3   130  ALA130      0.1694
     59  C        206.8530  202.6850  194.7060 C.2   130  ALA130      0.2591
     60  O        206.3220  203.7500  194.3840 O.2   130  ALA130     -0.2718
     61  CB       206.0380  201.7550  196.8840 C.3   130  ALA130      0.0304
     62  N        208.1440  202.4390  194.4780 N.am  131  LEU131     -0.1980
     63  CA       208.9520  203.4190  193.7590 C.3   131  LEU131      0.1596
     64  C        208.5160  203.5350  192.3080 C.2   131  LEU131      0.2287
     65  O        208.4520  204.6410  191.7640 O.2   131  LEU131     -0.2864
     66  CB       210.4350  203.0590  193.8290 C.3   131  LEU131      0.0297
     67  CG       211.1920  203.1700  195.1490 C.3   131  LEU131      0.0022
     68  CD1      212.5900  202.6190  194.9790 C.3   131  LEU131      0.0001
     69  CD2      211.2430  204.6110  195.5940 C.3   131  LEU131      0.0001
     70  N        205.6210  205.8150  192.4570 N.3   134  VAL134     -0.1245
     71  CA       205.9850  207.1980  192.7540 C.3   134  VAL134      0.1561
     72  C        206.5890  207.8590  191.5290 C.2   134  VAL134      0.2260
     73  O        206.3550  209.0410  191.2590 O.2   134  VAL134     -0.2867
     74  CB       206.9440  207.2520  193.9520 C.3   134  VAL134      0.0252
     75  CG1      207.4660  208.6480  194.1430 C.3   134  VAL134      0.0019
     76  CG2      206.2340  206.8000  195.1920 C.3   134  VAL134      0.0019
@<TRIPOS>BOND
     1    73    72    2
     2    72    71    1
     3    65    64    2
     4    64    63    1
     5    70    71    1
     6    71    74    1
     7     5     6    1
     8    63    66    1
     9    63    62    1
    10    66    67    1
    11    19    20    2
    12    19    18    1
    13    74    75    1
    14    74    76    1
    15     6     7    1
    16     6     9    1
    17    60    59    2
    18     7     8    2
    19     7    17   am
    20    62    59   am
    21    59    58    1
    22    17    18    1
    23    68    67    1
    24    57    58    1
    25    18    21    1
    26     1     2    1
    27    67    69    1
    28     3     4    2
    29     3     2    1
    30     9    10    1
    31    58    61    1
    32    21    22    1
    33    53    52    2
    34    11    10   ar
    35    11    13   ar
    36    10    12   ar
    37    52    51    1
    38    22    23    1
    39    22    24    1
    40    13    15   ar
    41    12    14   ar
    42    51    50    1
    43    51    54    1
    44    15    14   ar
    45    15    16    1
    46    55    54    1
    47    54    56    1
    48    48    46    1
    49    33    31   ar
    50    44    43    1
    51    44    45    2
    52    30    31    1
    53    30    29    1
    54    43    46    1
    55    43    42    1
    56    46    47    1
    57    31    32   ar
    58    25    26    1
    59    47    49    1
    60    26    29    1
    61    26    27    1
    62    27    28    2
    63    27    34   am
    64    34    35    1
    65    36    37    2
    66    36    35    1
    67    35    38    1
    68    38    39    1
    69    38    40    1
    70    39    41    1
