@<TRIPOS>MOLECULE
tmp/6igzP06.pdb
 78 75 0 0 0
SMALL
GASTEIGER

@<TRIPOS>ATOM
      1  N        216.0640  229.8430  178.8870 N.3   173  CYS173     -0.1235
      2  CA       216.7570  229.8900  180.1710 C.3   173  CYS173      0.1677
      3  C        218.0390  230.7030  180.1000 C.2   173  CYS173      0.2270
      4  O        218.3670  231.4220  181.0470 O.2   173  CYS173     -0.2867
      5  CB       217.0510  228.4780  180.6600 C.3   173  CYS173      0.0956
      6  SG       215.5740  227.5210  181.0620 S.3   173  CYS173     -0.0801
      7  N        217.0660  234.3510  180.0250 N.3   176  VAL176     -0.1231
      8  CA       216.5120  234.6650  181.3370 C.3   176  VAL176      0.1692
      9  C        217.6240  234.9430  182.3340 C.2   176  VAL176      0.2591
     10  O        217.4340  235.6970  183.2970 O.2   176  VAL176     -0.2718
     11  CB       215.5880  233.5270  181.8080 C.3   176  VAL176      0.0266
     12  CG1      215.2040  233.7120  183.2510 C.3   176  VAL176      0.0020
     13  CG2      214.3290  233.4810  180.9590 C.3   176  VAL176      0.0020
     14  N        218.8080  234.3840  182.1090 N.am  177  VAL177     -0.1980
     15  CA       219.9110  234.6060  183.0320 C.3   177  VAL177      0.1595
     16  C        220.8910  235.6160  182.4600 C.2   177  VAL177      0.2287
     17  O        220.9490  236.7650  182.9090 O.2   177  VAL177     -0.2864
     18  CB       220.6370  233.2980  183.3640 C.3   177  VAL177      0.0276
     19  CG1      221.7840  233.5970  184.2800 C.3   177  VAL177      0.0022
     20  CG2      219.6920  232.3390  184.0110 C.3   177  VAL177      0.0022
     21  N        228.1530  227.8460  182.3370 N.3   198  VAL198     -0.1231
     22  CA       227.0610  227.8760  183.2930 C.3   198  VAL198      0.1692
     23  C        227.6700  227.7020  184.6640 C.2   198  VAL198      0.2592
     24  O        228.8890  227.5600  184.8060 O.2   198  VAL198     -0.2718
     25  CB       226.0390  226.7540  183.0610 C.3   198  VAL198      0.0266
     26  CG1      225.2690  226.9780  181.8660 C.3   198  VAL198      0.0020
     27  CG2      226.7530  225.4500  182.9090 C.3   198  VAL198      0.0020
     28  N        226.8240  227.7130  185.6840 N.am  199  TRP199     -0.1976
     29  CA       227.1180  227.1400  186.9860 C.3   199  TRP199      0.1640
     30  C        228.2500  227.9030  187.6530 C.2   199  TRP199      0.2290
     31  O        228.5860  227.6270  188.8080 O.2   199  TRP199     -0.2864
     32  CB       227.4060  225.6350  186.8550 C.3   199  TRP199      0.0576
     33  CG       226.2170  224.9570  186.1390 C.ar  199  TRP199      0.0006
     34  CD1      225.0460  225.5570  185.7950 C.ar  199  TRP199      0.0946
     35  CD2      226.1160  223.6080  185.6560 C.ar  199  TRP199      0.0152
     36  NE1      224.2300  224.6850  185.1390 N.ar  199  TRP199     -0.2442
     37  CE2      224.8600  223.4770  185.0480 C.ar  199  TRP199      0.0810
     38  CE3      226.9560  222.5050  185.6850 C.ar  199  TRP199      0.0012
     39  CZ2      224.4250  222.2890  184.4870 C.ar  199  TRP199      0.0191
     40  CZ3      226.5230  221.3240  185.1280 C.ar  199  TRP199      0.0001
     41  CH2      225.2710  221.2250  184.5330 C.ar  199  TRP199      0.0015
     42  N        224.8870  232.6050  188.9720 N.3   202  GLU202     -0.1231
     43  CA       223.4970  232.8970  189.3050 C.3   202  GLU202      0.1699
     44  C        222.5800  231.6970  189.5310 C.2   202  GLU202      0.2592
     45  O        221.5440  231.8380  190.1850 O.2   202  GLU202     -0.2718
     46  CB       222.9230  233.7740  188.1860 C.3   202  GLU202      0.0402
     47  CG       221.4610  234.1620  188.3030 C.3   202  GLU202      0.1161
     48  CD       220.5200  233.0740  187.8210 C.2   202  GLU202      0.3649
     49  OE1      220.9450  232.2350  187.0110 O.co2 202  GLU202     -0.2457
     50  OE2      219.3620  233.0400  188.2730 O.co2 202  GLU202     -0.2457
     51  N        222.9480  230.5040  189.0820 N.am  203  LEU203     -0.1966
     52  CA       221.9120  229.4780  188.9970 C.3   203  LEU203      0.1728
     53  C        222.3130  228.2010  189.7250 C.2   203  LEU203      0.2616
     54  O        221.6350  227.7950  190.6710 O.2   203  LEU203     -0.2715
     55  CB       221.5590  229.2520  187.5320 C.3   203  LEU203      0.0311
     56  CG       222.5910  228.7160  186.5540 C.3   203  LEU203      0.0022
     57  CD1      222.3770  227.2510  186.3920 C.3   203  LEU203      0.0001
     58  CD2      222.5190  229.4260  185.2340 C.3   203  LEU203      0.0001
     59  N        223.3840  227.5410  189.3030 N.am  204  ALA204     -0.1977
     60  CA       224.0100  226.5890  190.2040 C.3   204  ALA204      0.1597
     61  C        224.9140  227.2970  191.1890 C.2   204  ALA204      0.2287
     62  O        225.2370  226.7270  192.2330 O.2   204  ALA204     -0.2864
     63  CB       224.8050  225.5450  189.4290 C.3   204  ALA204      0.0319
     64  N        224.3540  229.2650  193.3260 N.3   206  VAL206     -0.1231
     65  CA       223.8220  229.1530  194.6760 C.3   206  VAL206      0.1692
     66  C        224.5920  228.1000  195.4540 C.2   206  VAL206      0.2591
     67  O        224.7830  228.2290  196.6700 O.2   206  VAL206     -0.2718
     68  CB       222.3180  228.8420  194.6160 C.3   206  VAL206      0.0266
     69  CG1      221.5810  230.0100  194.0000 C.3   206  VAL206      0.0020
     70  CG2      222.0850  227.5930  193.8010 C.3   206  VAL206      0.0020
     71  N        225.0610  227.0590  194.7690 N.am  207  ILE207     -0.1980
     72  CA       225.9570  226.0700  195.3430 C.3   207  ILE207      0.1595
     73  C        225.2930  225.3970  196.5280 C.2   207  ILE207      0.2287
     74  O        224.1020  225.1080  196.4830 O.2   207  ILE207     -0.2864
     75  CB       227.3030  226.7120  195.7260 C.3   207  ILE207      0.0276
     76  CG1      228.0420  227.1620  194.4680 C.3   207  ILE207      0.0022
     77  CG2      228.1610  225.7430  196.5120 C.3   207  ILE207      0.0022
     78  CD1      229.2360  228.0320  194.7430 C.3   207  ILE207      0.0001
@<TRIPOS>BOND
     1     1     2    1
     2     7     8    1
     3     3     2    1
     4     3     4    2
     5     2     5    1
     6     5     6    1
     7    13    11    1
     8     8    11    1
     9     8     9    1
    10    11    12    1
    11    26    25    1
    12    14     9   am
    13    14    15    1
    14     9    10    2
    15    21    22    1
    16    16    17    2
    17    16    15    1
    18    27    25    1
    19    15    18    1
    20    25    22    1
    21    22    23    1
    22    18    20    1
    23    18    19    1
    24    39    41   ar
    25    39    37   ar
    26    41    40   ar
    27    23    24    2
    28    23    28   am
    29    37    36   ar
    30    37    35   ar
    31    40    38   ar
    32    36    34   ar
    33    58    56    1
    34    35    38   ar
    35    35    33   ar
    36    28    29    1
    37    34    33   ar
    38    33    32    1
    39    57    56    1
    40    56    55    1
    41    32    29    1
    42    29    30    1
    43    49    48   ar
    44    55    52    1
    45    30    31    2
    46    48    50   ar
    47    48    47    1
    48    46    47    1
    49    46    43    1
    50    42    43    1
    51    52    51    1
    52    52    53    1
    53    51    44   am
    54    59    53   am
    55    59    60    1
    56    43    44    1
    57    63    60    1
    58    44    45    2
    59    53    54    2
    60    60    61    1
    61    61    62    2
    62    64    65    1
    63    70    68    1
    64    69    68    1
    65    76    78    1
    66    76    75    1
    67    68    65    1
    68    65    66    1
    69    71    72    1
    70    71    66   am
    71    72    75    1
    72    72    73    1
    73    66    67    2
    74    75    77    1
    75    74    73    2
