@<TRIPOS>MOLECULE
tmp/6igzU15.pdb
 114 115 0 0 0
SMALL
GASTEIGER

@<TRIPOS>ATOM
      1  N        121.2610  257.1980  220.1090 N.3    68  TRP68      -0.1227
      2  CA       121.0780  255.7730  220.4010 C.3    68  TRP68       0.1737
      3  C        122.3550  254.9660  220.6000 C.2    68  TRP68       0.2595
      4  O        122.3090  253.9220  221.2560 O.2    68  TRP68      -0.2718
      5  CB       120.2630  255.0310  219.3310 C.3    68  TRP68       0.0564
      6  CG       120.8940  254.9010  217.9810 C.ar   68  TRP68       0.0003
      7  CD1      120.6340  255.6660  216.8920 C.ar   68  TRP68       0.0946
      8  CD2      121.9120  253.9720  217.5820 C.ar   68  TRP68       0.0152
      9  NE1      121.4090  255.2680  215.8350 N.ar   68  TRP68      -0.2442
     10  CE2      122.2030  254.2290  216.2330 C.ar   68  TRP68       0.0810
     11  CE3      122.5960  252.9430  218.2310 C.ar   68  TRP68       0.0012
     12  CZ2      123.1510  253.5010  215.5200 C.ar   68  TRP68       0.0191
     13  CZ3      123.5400  252.2200  217.5220 C.ar   68  TRP68       0.0001
     14  CH2      123.8070  252.5010  216.1820 C.ar   68  TRP68       0.0015
     15  N        123.4950  255.3970  220.0620 N.am   69  TRP69      -0.1962
     16  CA       124.7290  254.7120  220.4340 C.3    69  TRP69       0.1771
     17  C        125.3090  255.3070  221.7040 C.2    69  TRP69       0.2620
     18  O        125.7910  254.5810  222.5800 O.2    69  TRP69      -0.2715
     19  CB       125.7530  254.7190  219.2970 C.3    69  TRP69       0.0590
     20  CG       126.2230  256.0460  218.8090 C.ar   69  TRP69       0.0006
     21  CD1      127.2160  256.8050  219.3430 C.ar   69  TRP69       0.0946
     22  CD2      125.7920  256.7250  217.6280 C.ar   69  TRP69       0.0152
     23  NE1      127.3970  257.9410  218.5980 N.ar   69  TRP69      -0.2442
     24  CE2      126.5360  257.9130  217.5350 C.ar   69  TRP69       0.0810
     25  CE3      124.8340  256.4540  216.6500 C.ar   69  TRP69       0.0012
     26  CZ2      126.3530  258.8260  216.5080 C.ar   69  TRP69       0.0191
     27  CZ3      124.6480  257.3650  215.6350 C.ar   69  TRP69       0.0001
     28  CH2      125.4050  258.5360  215.5680 C.ar   69  TRP69       0.0015
     29  N        125.2680  256.6320  221.8170 N.am   70  GLU70      -0.1963
     30  CA       125.7100  257.2860  223.0370 C.3    70  GLU70       0.1733
     31  C        124.7100  257.0980  224.1650 C.2    70  GLU70       0.2616
     32  O        124.9660  257.5240  225.2940 O.2    70  GLU70      -0.2715
     33  CB       125.9570  258.7670  222.7690 C.3    70  GLU70       0.0429
     34  CG       127.1760  259.0180  221.9020 C.3    70  GLU70       0.1163
     35  CD       127.3730  260.4790  221.5810 C.2    70  GLU70       0.3649
     36  OE1      126.4370  261.2670  221.8210 O.co2  70  GLU70      -0.2457
     37  OE2      128.4640  260.8430  221.0980 O.co2  70  GLU70      -0.2457
     38  N        123.5600  256.4870  223.8850 N.am   71  VAL71      -0.1963
     39  CA       122.6270  256.1910  224.9590 C.3    71  VAL71       0.1727
     40  C        123.2240  255.1250  225.8590 C.2    71  VAL71       0.2617
     41  O        123.7630  254.1150  225.3930 O.2    71  VAL71      -0.2715
     42  CB       121.2660  255.7680  224.3960 C.3    71  VAL71       0.0290
     43  CG1      120.3750  255.2730  225.5170 C.3    71  VAL71       0.0023
     44  CG2      120.6090  256.9430  223.6920 C.3    71  VAL71       0.0023
     45  N        123.1320  255.3540  227.1580 N.am   72  GLY72      -0.1940
     46  CA       123.7730  254.5330  228.1580 C.3    72  GLY72       0.2014
     47  C        125.0530  255.1970  228.6010 C.2    72  GLY72       0.2638
     48  O        125.4760  255.0610  229.7510 O.2    72  GLY72      -0.2714
     49  N        125.6420  255.9740  227.7020 N.am   73  GLN73      -0.1977
     50  CA       126.6310  256.9650  228.0790 C.3    73  GLN73       0.1601
     51  C        125.9940  258.2460  228.5790 C.2    73  GLN73       0.2287
     52  O        126.5190  258.8600  229.5130 O.2    73  GLN73      -0.2864
     53  CB       127.5400  257.2920  226.8900 C.3    73  GLN73       0.0394
     54  CG       128.5800  258.3470  227.1840 C.3    73  GLN73       0.0908
     55  CD       129.5080  258.5760  226.0210 C.2    73  GLN73       0.2608
     56  OE1      129.4550  257.8590  225.0260 O.2    73  GLN73      -0.2717
     57  NE2      130.3560  259.5890  226.1300 N.am   73  GLN73      -0.0878
     58  N        125.8370  252.0140  236.4780 N.3    83  PHE83      -0.1241
     59  CA       126.3100  251.0730  235.4680 C.3    83  PHE83       0.1605
     60  C        126.8150  249.7930  236.1060 C.2    83  PHE83       0.2264
     61  O        126.4760  248.6910  235.6620 O.2    83  PHE83      -0.2867
     62  CB       127.4150  251.6880  234.6180 C.3    83  PHE83       0.0534
     63  CG       128.1630  250.6750  233.8030 C.ar   83  PHE83      -0.0203
     64  CD1      127.5890  250.1110  232.6810 C.ar   83  PHE83      -0.0042
     65  CD2      129.4400  250.2820  234.1620 C.ar   83  PHE83      -0.0042
     66  CE1      128.2720  249.1700  231.9320 C.ar   83  PHE83      -0.0003
     67  CE2      130.1260  249.3470  233.4160 C.ar   83  PHE83      -0.0003
     68  CZ       129.5390  248.7920  232.2990 C.ar   83  PHE83      -0.0000
     69  N        123.8540  247.6250  237.2270 N.3    86  LEU86      -0.1231
     70  CA       122.7840  247.2600  236.3100 C.3    86  LEU86       0.1693
     71  C        123.1680  246.0960  235.4090 C.2    86  LEU86       0.2591
     72  O        122.3020  245.3720  234.9080 O.2    86  LEU86      -0.2718
     73  CB       122.3950  248.4860  235.4880 C.3    86  LEU86       0.0284
     74  CG       121.0950  248.4480  234.6960 C.3    86  LEU86       0.0019
     75  CD1      120.5080  249.8430  234.6630 C.3    86  LEU86       0.0001
     76  CD2      121.3120  247.9260  233.2900 C.3    86  LEU86       0.0001
     77  N        124.4710  245.8950  235.2010 N.am   87  VAL87      -0.1980
     78  CA       124.9360  244.7650  234.3980 C.3    87  VAL87       0.1595
     79  C        124.4430  243.4600  235.0030 C.2    87  VAL87       0.2287
     80  O        123.8020  242.6400  234.3370 O.2    87  VAL87      -0.2864
     81  CB       126.4690  244.7750  234.2870 C.3    87  VAL87       0.0276
     82  CG1      126.9460  243.5870  233.4780 C.3    87  VAL87       0.0022
     83  CG2      126.9600  246.0770  233.6900 C.3    87  VAL87       0.0022
     84  N        120.8660  242.8400  234.7030 N.3    90  GLU90      -0.1245
     85  CA       120.4560  242.4510  233.3630 C.3    90  GLU90       0.1567
     86  C        120.5500  240.9450  233.1810 C.2    90  GLU90       0.2260
     87  O        119.5750  240.2880  232.8060 O.2    90  GLU90      -0.2867
     88  CB       121.3180  243.1760  232.3350 C.3    90  GLU90       0.0388
     89  CG       120.9000  242.9450  230.9130 C.3    90  GLU90       0.1160
     90  CD       121.7650  243.7080  229.9500 C.2    90  GLU90       0.3649
     91  OE1      122.7400  244.3290  230.4110 O.co2  90  GLU90      -0.2457
     92  OE2      121.4670  243.7010  228.7410 O.co2  90  GLU90      -0.2457
     93  N        119.4540  245.9790  210.5100 N.3   144  TRP144     -0.1241
     94  CA       120.2770  246.4180  211.6310 C.3   144  TRP144      0.1605
     95  C        121.6420  246.8990  211.1660 C.2   144  TRP144      0.2264
     96  O        122.0820  247.9950  211.5310 O.2   144  TRP144     -0.2867
     97  CB       120.4350  245.2880  212.6400 C.3   144  TRP144      0.0550
     98  CG       121.4510  245.5980  213.6660 C.ar  144  TRP144      0.0003
     99  CD1      122.6940  245.0590  213.7720 C.ar  144  TRP144      0.0946
    100  CD2      121.3360  246.5550  214.7150 C.ar  144  TRP144      0.0152
    101  NE1      123.3560  245.6060  214.8390 N.ar  144  TRP144     -0.2442
    102  CE2      122.5420  246.5310  215.4350 C.ar  144  TRP144      0.0810
    103  CE3      120.3250  247.4250  215.1240 C.ar  144  TRP144      0.0012
    104  CZ2      122.7660  247.3440  216.5400 C.ar  144  TRP144      0.0191
    105  CZ3      120.5480  248.2270  216.2180 C.ar  144  TRP144      0.0001
    106  CH2      121.7580  248.1840  216.9150 C.ar  144  TRP144      0.0015
    107  N        124.5910  250.3990  211.8860 N.3   148  ILE148     -0.1245
    108  CA       126.0110  250.4500  212.2080 C.3   148  ILE148      0.1561
    109  C        126.7270  251.3860  211.2450 C.2   148  ILE148      0.2260
    110  O        127.3570  252.3690  211.6510 O.2   148  ILE148     -0.2867
    111  CB       126.6180  249.0380  212.1710 C.3   148  ILE148      0.0252
    112  CG1      125.8090  248.0860  213.0480 C.3   148  ILE148      0.0019
    113  CG2      128.0540  249.0740  212.6370 C.3   148  ILE148      0.0019
    114  CD1      125.7430  248.4980  214.4810 C.3   148  ILE148      0.0001
@<TRIPOS>BOND
     1    93    94    1
     2    95    96    2
     3    95    94    1
     4   109   110    2
     5   109   108    1
     6    94    97    1
     7   107   108    1
     8   111   108    1
     9   111   113    1
    10   111   112    1
    11    97    98    1
    12   112   114    1
    13    98    99   ar
    14    98   100   ar
    15    99   101   ar
    16   100   103   ar
    17   100   102   ar
    18   101   102   ar
    19   103   105   ar
    20   102   104   ar
    21    12    14   ar
    22    12    10   ar
    23    28    27   ar
    24    28    26   ar
    25    27    25   ar
    26     9    10   ar
    27     9     7   ar
    28    14    13   ar
    29   105   106   ar
    30    10     8   ar
    31    26    24   ar
    32   104   106   ar
    33    25    22   ar
    34     7     6   ar
    35    13    11   ar
    36    24    22   ar
    37    24    23   ar
    38     8     6   ar
    39     8    11   ar
    40    22    20   ar
    41     6     5    1
    42    23    21   ar
    43    20    19    1
    44    20    21   ar
    45    19    16    1
    46     5     2    1
    47    15    16    1
    48    15     3   am
    49     1     2    1
    50     2     3    1
    51    16    17    1
    52     3     4    2
    53    37    35   ar
    54    35    36   ar
    55    35    34    1
    56    17    29   am
    57    17    18    2
    58    29    30    1
    59    34    33    1
    60    33    30    1
    61    30    31    1
    62    44    42    1
    63    38    31   am
    64    38    39    1
    65    31    32    2
    66    42    39    1
    67    42    43    1
    68    39    40    1
    69    56    55    2
    70    41    40    2
    71    40    45   am
    72    55    57   am
    73    55    54    1
    74    53    54    1
    75    53    50    1
    76    45    46    1
    77    49    50    1
    78    49    47   am
    79    50    51    1
    80    46    47    1
    81    51    52    2
    82    47    48    2
    83    92    90   ar
    84    90    91   ar
    85    90    89    1
    86    89    88    1
    87    66    68   ar
    88    66    64   ar
    89    68    67   ar
    90    88    85    1
    91    64    63   ar
    92    87    86    2
    93    86    85    1
    94    76    74    1
    95    85    84    1
    96    67    65   ar
    97    82    81    1
    98    83    81    1
    99    63    65   ar
   100    63    62    1
   101    81    78    1
   102    80    79    2
   103    78    79    1
   104    78    77    1
   105    62    59    1
   106    75    74    1
   107    74    73    1
   108    72    71    2
   109    77    71   am
   110    71    70    1
   111    59    60    1
   112    59    58    1
   113    73    70    1
   114    61    60    2
   115    70    69    1
