@<TRIPOS>MOLECULE
tmp/6igzS02.pdb
 166 163 0 0 0
SMALL
GASTEIGER

@<TRIPOS>ATOM
      1  N        278.6000  179.2880  209.8310 N.3    50  ARG50      -0.1231
      2  CA       279.8730  179.4790  209.1540 C.3    50  ARG50       0.1694
      3  C        280.3510  180.9160  209.3010 C.2    50  ARG50       0.2592
      4  O        281.4730  181.1600  209.7540 O.2    50  ARG50      -0.2718
      5  CB       279.7240  179.0860  207.6940 C.3    50  ARG50       0.0321
      6  CG       279.1880  177.6790  207.5350 C.3    50  ARG50       0.0489
      7  CD       278.9790  177.3620  206.0910 C.3    50  ARG50       0.2205
      8  NE       278.2160  176.1300  205.9220 N.pl3  50  ARG50      -0.0865
      9  CZ       278.7460  174.9210  205.9620 C.cat  50  ARG50       0.5346
     10  NH1      280.0380  174.7690  206.1690 N.pl3  50  ARG50       0.1354
     11  NH2      277.9820  173.8540  205.8130 N.pl3  50  ARG50       0.1354
     12  N        279.5030  181.8860  208.9550 N.am   51  TRP51      -0.1976
     13  CA       279.9040  183.2810  209.1000 C.3    51  TRP51       0.1640
     14  C        280.2540  183.6170  210.5350 C.2    51  TRP51       0.2290
     15  O        281.0700  184.5100  210.7820 O.2    51  TRP51      -0.2864
     16  CB       278.8030  184.2170  208.6170 C.3    51  TRP51       0.0576
     17  CG       278.6380  184.2340  207.1600 C.ar   51  TRP51       0.0006
     18  CD1      277.6610  183.6380  206.4410 C.ar   51  TRP51       0.0946
     19  CD2      279.5140  184.8480  206.2220 C.ar   51  TRP51       0.0152
     20  NE1      277.8520  183.8650  205.1040 N.ar   51  TRP51      -0.2442
     21  CE2      278.9910  184.6050  204.9450 C.ar   51  TRP51       0.0810
     22  CE3      280.6870  185.5910  206.3390 C.ar   51  TRP51       0.0012
     23  CZ2      279.6000  185.0770  203.7910 C.ar   51  TRP51       0.0191
     24  CZ3      281.2890  186.0560  205.1970 C.ar   51  TRP51       0.0001
     25  CH2      280.7470  185.8010  203.9380 C.ar   51  TRP51       0.0015
     26  N        281.6560  181.3650  212.7210 N.3    53  MET53      -0.1230
     27  CA       282.9710  180.7760  212.9270 C.3    53  MET53       0.1702
     28  C        284.0530  181.6210  212.2810 C.2    53  MET53       0.2592
     29  O        285.1150  181.8370  212.8710 O.2    53  MET53      -0.2718
     30  CB       283.0030  179.3520  212.3860 C.3    53  MET53       0.0401
     31  CG       282.1890  178.3820  213.1860 C.3    53  MET53       0.0596
     32  SD       282.3790  176.6960  212.6020 S.3    53  MET53      -0.1393
     33  CE       281.3940  176.7360  211.1170 C.3    53  MET53       0.0692
     34  N        283.8020  182.1220  211.0760 N.am   54  MET54      -0.1979
     35  CA       284.7350  183.0740  210.4930 C.3    54  MET54       0.1605
     36  C        284.7330  184.3770  211.2710 C.2    54  MET54       0.2287
     37  O        285.7830  184.9990  211.4550 O.2    54  MET54      -0.2864
     38  CB       284.3900  183.3260  209.0350 C.3    54  MET54       0.0413
     39  CG       284.6500  182.1560  208.1480 C.3    54  MET54       0.0598
     40  SD       286.3900  181.7300  208.2190 S.3    54  MET54      -0.1393
     41  CE       287.1080  183.2160  207.5350 C.3    54  MET54       0.0692
     42  N        280.4690  168.1680  192.7950 N.3   129  PRO129     -0.2116
     43  CA       279.8570  166.8400  192.7990 C.3   129  PRO129      0.1372
     44  C        278.5090  166.8440  193.4830 C.2   129  PRO129      0.2244
     45  O        277.9750  167.9020  193.8250 O.2   129  PRO129     -0.2868
     46  CB       280.8730  165.9960  193.5690 C.3   129  PRO129      0.0268
     47  CG       281.4700  166.9490  194.5150 C.3   129  PRO129      0.0207
     48  CD       281.5210  168.2730  193.8150 C.3   129  PRO129      0.0892
     49  N        276.1600  171.0770  200.8980 N.3   135  TYR135     -0.1228
     50  CA       277.4810  170.4940  201.1110 C.3   135  TYR135      0.1721
     51  C        278.2000  170.3050  199.7810 C.2   135  TYR135      0.2437
     52  O        278.5140  169.1810  199.3780 O.2   135  TYR135     -0.2733
     53  CB       277.3710  169.1830  201.8820 C.3   135  TYR135      0.0547
     54  CG       276.8550  169.3920  203.2770 C.ar  135  TYR135     -0.0200
     55  CD1      277.7170  169.7200  204.3050 C.ar  135  TYR135     -0.0009
     56  CD2      275.5090  169.2700  203.5640 C.ar  135  TYR135     -0.0009
     57  CE1      277.2590  169.9150  205.5820 C.ar  135  TYR135      0.0417
     58  CE2      275.0390  169.4630  204.8410 C.ar  135  TYR135      0.0417
     59  CZ       275.9200  169.7860  205.8470 C.ar  135  TYR135      0.1957
     60  OH       275.4620  169.9820  207.1290 O.3   135  TYR135     -0.2866
     61  N        278.5250  171.3980  199.1050 N.am  136  PRO136     -0.2718
     62  CA       279.2910  171.3350  197.8530 C.3   136  PRO136      0.1535
     63  C        280.7320  170.9400  198.1100 C.2   136  PRO136      0.2599
     64  O        281.0260  170.2420  199.0810 O.2   136  PRO136     -0.2715
     65  CB       279.1910  172.7630  197.3180 C.3   136  PRO136      0.0310
     66  CG       279.1280  173.5750  198.5380 C.3   136  PRO136      0.0237
     67  CD       278.3730  172.7850  199.5670 C.3   136  PRO136      0.0939
     68  N        281.6410  171.3570  197.2350 N.am  137  GLY137     -0.1955
     69  CA       283.0410  171.1430  197.5420 C.3   137  GLY137      0.1869
     70  C        283.9360  170.3360  196.6300 C.2   137  GLY137      0.2309
     71  O        285.0040  169.8960  197.0580 O.2   137  GLY137     -0.2863
     72  N        285.0320  173.6390  196.5190 N.3   140  PHE140     -0.1227
     73  CA       284.9540  174.1850  197.8690 C.3   140  PHE140      0.1736
     74  C        285.6440  173.3060  198.8960 C.2   140  PHE140      0.2595
     75  O        286.0120  173.7990  199.9670 O.2   140  PHE140     -0.2718
     76  CB       283.4980  174.4170  198.2400 C.3   140  PHE140      0.0547
     77  CG       282.8520  175.4900  197.4370 C.ar  140  PHE140     -0.0202
     78  CD1      283.5930  176.5520  196.9750 C.ar  140  PHE140     -0.0042
     79  CD2      281.5290  175.4010  197.0820 C.ar  140  PHE140     -0.0042
     80  CE1      283.0100  177.5300  196.2260 C.ar  140  PHE140     -0.0003
     81  CE2      280.9460  176.3710  196.3230 C.ar  140  PHE140     -0.0003
     82  CZ       281.6880  177.4340  195.8930 C.ar  140  PHE140     -0.0000
     83  N        285.8280  172.0250  198.6100 N.am  141  ASP141     -0.1974
     84  CA       286.8230  171.2500  199.3360 C.3   141  ASP141      0.1709
     85  C        287.8860  170.8540  198.3270 C.2   141  ASP141      0.2293
     86  O        287.6840  169.9070  197.5570 O.2   141  ASP141     -0.2864
     87  CB       286.1900  170.0110  199.9700 C.3   141  ASP141      0.1436
     88  CG       287.1610  169.2200  200.7990 C.2   141  ASP141      0.3671
     89  OD1      287.5260  169.6810  201.8920 O.co2 141  ASP141     -0.2456
     90  OD2      287.5710  168.1350  200.3530 O.co2 141  ASP141     -0.2456
     91  N        289.4630  165.2830  201.7250 N.3   145  PHE145     -0.1227
     92  CA       288.9820  164.5120  202.8550 C.3   145  PHE145      0.1736
     93  C        287.5150  164.8410  203.0980 C.2   145  PHE145      0.2595
     94  O        286.8990  165.6340  202.3800 O.2   145  PHE145     -0.2718
     95  CB       289.8300  164.7720  204.0940 C.3   145  PHE145      0.0547
     96  CG       289.8650  166.2010  204.5160 C.ar  145  PHE145     -0.0202
     97  CD1      288.8860  166.7140  205.3320 C.ar  145  PHE145     -0.0042
     98  CD2      290.8970  167.0210  204.1200 C.ar  145  PHE145     -0.0042
     99  CE1      288.9240  168.0170  205.7250 C.ar  145  PHE145     -0.0003
    100  CE2      290.9410  168.3270  204.5170 C.ar  145  PHE145     -0.0003
    101  CZ       289.9530  168.8270  205.3180 C.ar  145  PHE145     -0.0000
    102  N        286.9490  164.2270  204.1310 N.am  146  ALA146     -0.1966
    103  CA       285.5030  164.2220  204.3180 C.3   146  ALA146      0.1728
    104  C        284.8170  163.7520  203.0420 C.2   146  ALA146      0.2616
    105  O        283.8190  164.3180  202.5930 O.2   146  ALA146     -0.2715
    106  CB       284.9880  165.5900  204.7480 C.3   146  ALA146      0.0334
    107  N        285.3890  162.7150  202.4380 N.am  147  LYS147     -0.1977
    108  CA       284.8150  162.0920  201.2590 C.3   147  LYS147      0.1596
    109  C        284.7280  160.5920  201.4970 C.2   147  LYS147      0.2287
    110  O        283.6360  160.0430  201.6710 O.2   147  LYS147     -0.2864
    111  CB       285.6660  162.4080  200.0280 C.3   147  LYS147      0.0298
    112  CG       285.1250  161.8790  198.7160 C.3   147  LYS147      0.0038
    113  CD       283.7550  162.4610  198.4150 C.3   147  LYS147      0.0206
    114  CE       283.4090  162.3220  196.9400 C.3   147  LYS147      0.1093
    115  NZ       283.3820  160.9050  196.4900 N.3   147  LYS147     -0.1314
    116  N        282.4870  161.1420  207.1910 N.3   151  ILE151     -0.1245
    117  CA       282.0080  162.4180  206.6810 C.3   151  ILE151      0.1561
    118  C        281.0950  163.1040  207.6850 C.2   151  ILE151      0.2260
    119  O        281.4220  164.1750  208.1980 O.2   151  ILE151     -0.2867
    120  CB       281.3230  162.2550  205.3060 C.3   151  ILE151      0.0252
    121  CG1      280.7530  163.5960  204.8420 C.3   151  ILE151      0.0019
    122  CG2      280.3100  161.1150  205.3090 C.3   151  ILE151      0.0019
    123  CD1      280.2920  163.6050  203.4080 C.3   151  ILE151      0.0001
    124  N        282.6120  164.5730  210.6770 N.3   154  LEU154     -0.1231
    125  CA       283.0970  165.9290  210.4690 C.3   154  LEU154      0.1693
    126  C        281.9510  166.9180  210.3400 C.2   154  LEU154      0.2591
    127  O        282.0660  168.0530  210.8110 O.2   154  LEU154     -0.2718
    128  CB       284.0010  165.9940  209.2450 C.3   154  LEU154      0.0284
    129  CG       285.3640  165.3510  209.4650 C.3   154  LEU154      0.0019
    130  CD1      286.1550  165.3400  208.1870 C.3   154  LEU154      0.0001
    131  CD2      286.1070  166.1250  210.5280 C.3   154  LEU154      0.0001
    132  N        280.8470  166.5210  209.7080 N.am  155  LYS155     -0.1980
    133  CA       279.6650  167.3690  209.7440 C.3   155  LYS155      0.1596
    134  C        279.2320  167.6420  211.1750 C.2   155  LYS155      0.2287
    135  O        278.8780  168.7750  211.5150 O.2   155  LYS155     -0.2864
    136  CB       278.5220  166.7400  208.9540 C.3   155  LYS155      0.0298
    137  CG       278.7020  166.7730  207.4480 C.3   155  LYS155      0.0038
    138  CD       277.5180  166.1330  206.7430 C.3   155  LYS155      0.0206
    139  CE       277.6490  166.2360  205.2400 C.3   155  LYS155      0.1093
    140  NZ       276.5240  165.5540  204.5580 N.3   155  LYS155     -0.1314
    141  N        281.0810  167.7140  213.9000 N.3   157  LYS157     -0.1231
    142  CA       282.0040  168.6780  214.4760 C.3   157  LYS157      0.1693
    143  C        281.8200  170.0570  213.8780 C.2   157  LYS157      0.2591
    144  O        282.1980  171.0490  214.5060 O.2   157  LYS157     -0.2718
    145  CB       283.4390  168.2130  214.2760 C.3   157  LYS157      0.0285
    146  CG       283.7550  166.9510  215.0260 C.3   157  LYS157      0.0035
    147  CD       285.1310  166.4470  214.6980 C.3   157  LYS157      0.0206
    148  CE       285.4220  165.1790  215.4640 C.3   157  LYS157      0.1093
    149  NZ       286.7390  164.6130  215.0830 N.3   157  LYS157     -0.1314
    150  N        281.2370  170.1400  212.6870 N.am  158  GLU158     -0.1979
    151  CA       281.0580  171.4310  212.0410 C.3   158  GLU158      0.1602
    152  C        279.9910  172.2480  212.7470 C.2   158  GLU158      0.2287
    153  O        280.2000  173.4240  213.0610 O.2   158  GLU158     -0.2864
    154  CB       280.6940  171.2280  210.5760 C.3   158  GLU158      0.0415
    155  CG       280.5970  172.5010  209.7880 C.3   158  GLU158      0.1163
    156  CD       280.3300  172.2370  208.3300 C.2   158  GLU158      0.3649
    157  OE1      280.0960  171.0720  207.9670 O.co2 158  GLU158     -0.2457
    158  OE2      280.3860  173.1860  207.5360 O.co2 158  GLU158     -0.2457
    159  N        280.8320  173.1120  216.5350 N.3   161  ASN161     -0.1240
    160  CA       281.6950  174.2850  216.5440 C.3   161  ASN161      0.1653
    161  C        280.9590  175.5120  216.0330 C.2   161  ASN161      0.2266
    162  O        281.1920  176.6230  216.5160 O.2   161  ASN161     -0.2867
    163  CB       282.9470  174.0380  215.7140 C.3   161  ASN161      0.1155
    164  CG       283.9310  173.1450  216.4140 C.2   161  ASN161      0.2627
    165  OD1      283.9280  173.0430  217.6340 O.2   161  ASN161     -0.2716
    166  ND2      284.7930  172.4990  215.6500 N.am  161  ASN161     -0.0877
@<TRIPOS>BOND
     1    42    43    1
     2    42    48    1
     3    43    44    1
     4    43    46    1
     5    44    45    2
     6    46    47    1
     7    48    47    1
     8    82    80   ar
     9    82    81   ar
    10    80    78   ar
    11    81    79   ar
    12   115   114    1
    13    72    73    1
    14    70    71    2
    15    70    69    1
    16   114   113    1
    17    78    77   ar
    18    79    77   ar
    19    68    69    1
    20    68    63   am
    21    65    62    1
    22    65    66    1
    23    77    76    1
    24    86    85    2
    25    62    63    1
    26    62    61    1
    27    73    76    1
    28    73    74    1
    29    63    64    2
    30    85    84    1
    31   113   112    1
    32    66    67    1
    33    83    74   am
    34    83    84    1
    35   112   111    1
    36    74    75    2
    37    61    67    1
    38    61    51   am
    39    84    87    1
    40    52    51    2
    41    51    50    1
    42    87    88    1
    43   111   108    1
    44    90    88   ar
    45    88    89   ar
    46    49    50    1
    47    50    53    1
    48   108   109    1
    49   108   107    1
    50   109   110    2
    51    91    92    1
    52    53    54    1
    53    94    93    2
    54   107   104   am
    55   105   104    2
    56    92    93    1
    57    92    95    1
    58   104   103    1
    59    93   102   am
    60    54    56   ar
    61    54    55   ar
    62   123   121    1
    63    56    58   ar
    64    23    25   ar
    65    23    21   ar
    66    25    24   ar
    67    95    96    1
    68    98    96   ar
    69    98   100   ar
    70   102   103    1
    71    55    57   ar
    72   103   106    1
    73    96    97   ar
    74   100   101   ar
    75   140   139    1
    76    58    59   ar
    77   121   120    1
    78    21    20   ar
    79    21    19   ar
    80    20    18   ar
    81    24    22   ar
    82   139   138    1
    83   120   122    1
    84   120   117    1
    85   101    99   ar
    86    97    99   ar
    87    57    59   ar
    88    11     9    1
    89    59    60    1
    90     8     9    2
    91     8     7    1
    92     9    10    1
    93     7     6    1
    94    19    22   ar
    95    19    17   ar
    96    18    17   ar
    97   117   116    1
    98   117   118    1
    99   138   137    1
   100    17    16    1
   101   137   136    1
   102    41    40    1
   103     6     5    1
   104   158   156   ar
   105   118   119    2
   106     5     2    1
   107   157   156   ar
   108    39    40    1
   109    39    38    1
   110   130   129    1
   111   156   155    1
   112    16    13    1
   113   136   133    1
   114    12    13    1
   115    12     3   am
   116    38    35    1
   117    13    14    1
   118     2     3    1
   119     2     1    1
   120   128   129    1
   121   128   125    1
   122     3     4    2
   123   129   131    1
   124   132   133    1
   125   132   126   am
   126   133   134    1
   127   155   154    1
   128   126   125    1
   129   126   127    2
   130   125   124    1
   131    35    34    1
   132    35    36    1
   133    14    15    2
   134   154   151    1
   135    34    28   am
   136    33    32    1
   137   134   135    2
   138    36    37    2
   139   151   150    1
   140   151   152    1
   141    28    29    2
   142    28    27    1
   143    30    27    1
   144    30    31    1
   145    32    31    1
   146   150   143   am
   147    26    27    1
   148   152   153    2
   149   143   142    1
   150   143   144    2
   151   141   142    1
   152   145   142    1
   153   145   146    1
   154   147   146    1
   155   147   148    1
   156   149   148    1
   157   166   164   am
   158   163   164    1
   159   163   160    1
   160   161   162    2
   161   161   160    1
   162   164   165    2
   163   159   160    1
