@<TRIPOS>MOLECULE
tmp/6igzV12.pdb
 185 182 0 0 0
SMALL
GASTEIGER

@<TRIPOS>ATOM
      1  N        134.6960  207.9810  252.2430 N.3    34  ASP34      -0.1225
      2  CA       134.6220  207.5360  253.6290 C.3    34  ASP34       0.1805
      3  C        133.1750  207.5140  254.1040 C.2    34  ASP34       0.2598
      4  O        132.6500  206.4430  254.4240 O.2    34  ASP34      -0.2718
      5  CB       135.4820  208.4310  254.5330 C.3    34  ASP34       0.1424
      6  CG       136.9660  208.2820  254.2620 C.2    34  ASP34       0.3668
      7  OD1      137.3480  207.3530  253.5270 O.co2  34  ASP34      -0.2456
      8  OD2      137.7560  209.0760  254.8100 O.co2  34  ASP34      -0.2456
      9  N        132.5170  208.6680  254.1560 N.am   35  SER35      -0.1952
     10  CA       131.0730  208.7390  254.3220 C.3    35  SER35       0.1924
     11  C        130.5930  210.0550  253.7280 C.2    35  SER35       0.2314
     12  O        131.3880  210.8840  253.2770 O.2    35  SER35      -0.2863
     13  CB       130.6670  208.6130  255.7900 C.3    35  SER35       0.2116
     14  OG       129.2620  208.7310  255.9340 O.3    35  SER35      -0.2180
     15  N        128.1160  212.0330  257.4300 N.3    38  TRP38      -0.1227
     16  CA       128.9780  212.7480  258.3570 C.3    38  TRP38       0.1737
     17  C        129.0470  214.2250  257.9990 C.2    38  TRP38       0.2595
     18  O        129.1040  215.0830  258.8870 O.2    38  TRP38      -0.2718
     19  CB       130.3730  212.1360  258.3720 C.3    38  TRP38       0.0564
     20  CG       131.2650  212.8420  259.3180 C.ar   38  TRP38       0.0003
     21  CD1      131.4260  212.5820  260.6470 C.ar   38  TRP38       0.0946
     22  CD2      132.1130  213.9490  259.0200 C.ar   38  TRP38       0.0152
     23  NE1      132.3310  213.4560  261.1940 N.ar   38  TRP38      -0.2442
     24  CE2      132.7680  214.3070  260.2140 C.ar   38  TRP38       0.0810
     25  CE3      132.3870  214.6720  257.8560 C.ar   38  TRP38       0.0012
     26  CZ2      133.6790  215.3550  260.2770 C.ar   38  TRP38       0.0191
     27  CZ3      133.2890  215.7140  257.9220 C.ar   38  TRP38       0.0001
     28  CH2      133.9250  216.0460  259.1240 C.ar   38  TRP38       0.0015
     29  N        129.0440  214.5440  256.6980 N.am   39  PHE39      -0.1976
     30  CA       128.9500  215.9420  256.2870 C.3    39  PHE39       0.1639
     31  C        127.6340  216.5610  256.7260 C.2    39  PHE39       0.2290
     32  O        127.5910  217.7500  257.0600 O.2    39  PHE39      -0.2864
     33  CB       129.0860  216.0770  254.7700 C.3    39  PHE39       0.0560
     34  CG       130.4280  215.6870  254.2370 C.ar   39  PHE39      -0.0200
     35  CD1      131.4780  216.5820  254.2540 C.ar   39  PHE39      -0.0042
     36  CD2      130.6330  214.4380  253.6930 C.ar   39  PHE39      -0.0042
     37  CE1      132.7120  216.2340  253.7540 C.ar   39  PHE39      -0.0003
     38  CE2      131.8660  214.0820  253.1900 C.ar   39  PHE39      -0.0003
     39  CZ       132.9070  214.9830  253.2200 C.ar   39  PHE39      -0.0000
     40  N        125.7000  216.1320  259.4870 N.3    41  GLU41      -0.1231
     41  CA       125.9450  216.7010  260.8060 C.3    41  GLU41       0.1699
     42  C        126.9390  217.8450  260.7250 C.2    41  GLU41       0.2592
     43  O        126.6990  218.9280  261.2680 O.2    41  GLU41      -0.2718
     44  CB       126.4600  215.6390  261.7730 C.3    41  GLU41       0.0402
     45  CG       126.8250  216.2370  263.1220 C.3    41  GLU41       0.1161
     46  CD       127.3720  215.2190  264.0880 C.2    41  GLU41       0.3649
     47  OE1      127.4450  214.0340  263.7060 O.co2  41  GLU41      -0.2457
     48  OE2      127.7440  215.6020  265.2170 O.co2  41  GLU41      -0.2457
     49  N        128.0750  217.6130  260.0610 N.am   42  ALA42      -0.1980
     50  CA       129.0630  218.6710  259.8890 C.3    42  ALA42       0.1597
     51  C        128.4280  219.9150  259.2890 C.2    42  ALA42       0.2287
     52  O        128.7070  221.0360  259.7250 O.2    42  ALA42      -0.2864
     53  CB       130.2150  218.1760  259.0170 C.3    42  ALA42       0.0319
     54  N        125.6650  220.7200  262.4050 N.3    45  MET45      -0.1230
     55  CA       126.3220  221.3880  263.5230 C.3    45  MET45       0.1702
     56  C        126.8120  222.7670  263.1240 C.2    45  MET45       0.2592
     57  O        126.5750  223.7470  263.8380 O.2    45  MET45      -0.2718
     58  CB       127.4790  220.5500  264.0540 C.3    45  MET45       0.0401
     59  CG       127.0670  219.3110  264.7970 C.3    45  MET45       0.0596
     60  SD       126.1310  219.6980  266.2870 S.3    45  MET45      -0.1393
     61  CE       124.4780  219.2570  265.7700 C.3    45  MET45       0.0692
     62  N        127.5110  222.8680  261.9920 N.am   46  ASN46      -0.1974
     63  CA       127.7810  224.1910  261.4490 C.3    46  ASN46       0.1688
     64  C        126.4840  224.9650  261.3250 C.2    46  ASN46       0.2292
     65  O        126.3260  226.0250  261.9320 O.2    46  ASN46      -0.2864
     66  CB       128.4910  224.1030  260.0960 C.3    46  ASN46       0.1181
     67  CG       129.9660  223.7680  260.2200 C.2    46  ASN46       0.2629
     68  OD1      130.5930  224.0370  261.2430 O.2    46  ASN46      -0.2716
     69  ND2      130.5280  223.1860  259.1700 N.am   46  ASN46      -0.0877
     70  N        124.6910  225.5910  264.9060 N.3    49  TYR49      -0.1241
     71  CA       125.4720  226.5890  265.6130 C.3    49  TYR49       0.1605
     72  C        125.6040  227.8800  264.8170 C.2    49  TYR49       0.2264
     73  O        125.8540  228.9350  265.4090 O.2    49  TYR49      -0.2867
     74  CB       126.8380  226.0040  265.9520 C.3    49  TYR49       0.0534
     75  CG       127.7430  226.9270  266.7150 C.ar   49  TYR49      -0.0201
     76  CD1      127.5400  227.1640  268.0660 C.ar   49  TYR49      -0.0009
     77  CD2      128.8200  227.5380  266.0950 C.ar   49  TYR49      -0.0009
     78  CE1      128.3740  228.0040  268.7770 C.ar   49  TYR49       0.0417
     79  CE2      129.6630  228.3780  266.7960 C.ar   49  TYR49       0.0417
     80  CZ       129.4360  228.6080  268.1380 C.ar   49  TYR49       0.1957
     81  OH       130.2730  229.4460  268.8420 O.3    49  TYR49      -0.2866
     82  N        135.4020  228.1410  279.8320 N.3    88  GLU88      -0.1231
     83  CA       134.6860  227.7830  278.6160 C.3    88  GLU88       0.1699
     84  C        135.2790  226.5670  277.9170 C.2    88  GLU88       0.2592
     85  O        134.6140  225.9780  277.0600 O.2    88  GLU88      -0.2718
     86  CB       134.6600  229.0050  277.6940 C.3    88  GLU88       0.0402
     87  CG       133.9830  228.8080  276.3640 C.3    88  GLU88       0.1161
     88  CD       133.8330  230.0950  275.5830 C.2    88  GLU88       0.3649
     89  OE1      134.1140  231.1800  276.1350 O.co2  88  GLU88      -0.2457
     90  OE2      133.4760  230.0140  274.3940 O.co2  88  GLU88      -0.2457
     91  N        136.4930  226.1580  278.2790 N.am   89  LEU89      -0.1980
     92  CA       137.1020  224.9880  277.6540 C.3    89  LEU89       0.1596
     93  C        136.3620  223.7090  278.0350 C.2    89  LEU89       0.2287
     94  O        135.9070  222.9540  277.1680 O.2    89  LEU89      -0.2864
     95  CB       138.5740  224.8960  278.0610 C.3    89  LEU89       0.0297
     96  CG       139.4890  226.0490  277.6420 C.3    89  LEU89       0.0022
     97  CD1      140.8690  225.8640  278.2400 C.3    89  LEU89       0.0001
     98  CD2      139.5670  226.1590  276.1280 C.3    89  LEU89       0.0001
     99  N        132.1730  222.4250  277.2380 N.3    92  PHE92      -0.1227
    100  CA       131.8770  221.9820  275.8790 C.3    92  PHE92       0.1736
    101  C        132.4010  220.5800  275.6360 C.2    92  PHE92       0.2595
    102  O        131.6460  219.6830  275.2480 O.2    92  PHE92      -0.2718
    103  CB       132.4840  222.9550  274.8770 C.3    92  PHE92       0.0547
    104  CG       131.8560  224.2950  274.9140 C.ar   92  PHE92      -0.0202
    105  CD1      130.5510  224.4360  275.3350 C.ar   92  PHE92      -0.0042
    106  CD2      132.5730  225.4210  274.5890 C.ar   92  PHE92      -0.0042
    107  CE1      129.9620  225.6690  275.3890 C.ar   92  PHE92      -0.0003
    108  CE2      131.9880  226.6550  274.6450 C.ar   92  PHE92      -0.0003
    109  CZ       130.6820  226.7750  275.0470 C.ar   92  PHE92      -0.0000
    110  N        133.6950  220.3740  275.8820 N.am   93  ALA93      -0.1980
    111  CA       134.3170  219.0860  275.6160 C.3    93  ALA93       0.1597
    112  C        133.5860  217.9650  276.3310 C.2    93  ALA93       0.2287
    113  O        133.2310  216.9570  275.7170 O.2    93  ALA93      -0.2864
    114  CB       135.7860  219.1190  276.0340 C.3    93  ALA93       0.0319
    115  N        130.4320  217.4250  274.6470 N.3    96  GLU96      -0.1231
    116  CA       130.7780  217.0920  273.2700 C.3    96  GLU96       0.1699
    117  C        131.5730  215.8000  273.1840 C.2    96  GLU96       0.2592
    118  O        131.3830  215.0290  272.2390 O.2    96  GLU96      -0.2718
    119  CB       131.5440  218.2290  272.5970 C.3    96  GLU96       0.0402
    120  CG       130.6710  219.3930  272.1630 C.3    96  GLU96       0.1161
    121  CD       131.4270  220.4250  271.3520 C.2    96  GLU96       0.3649
    122  OE1      132.6720  220.3860  271.3530 O.co2  96  GLU96      -0.2457
    123  OE2      130.7720  221.2410  270.6720 O.co2  96  GLU96      -0.2457
    124  N        132.4630  215.5420  274.1480 N.am   97  TYR97      -0.1976
    125  CA       133.0870  214.2250  274.2270 C.3    97  TYR97       0.1639
    126  C        132.0330  213.1340  274.1570 C.2    97  TYR97       0.2290
    127  O        132.1770  212.1600  273.4090 O.2    97  TYR97      -0.2864
    128  CB       133.9010  214.0840  275.5150 C.3    97  TYR97       0.0560
    129  CG       134.4460  212.6930  275.7270 C.ar   97  TYR97      -0.0198
    130  CD1      135.5780  212.2590  275.0520 C.ar   97  TYR97      -0.0009
    131  CD2      133.8160  211.8060  276.5890 C.ar   97  TYR97      -0.0009
    132  CE1      136.0700  210.9890  275.2370 C.ar   97  TYR97       0.0417
    133  CE2      134.3000  210.5330  276.7780 C.ar   97  TYR97       0.0417
    134  CZ       135.4260  210.1280  276.1000 C.ar   97  TYR97       0.1957
    135  OH       135.9120  208.8560  276.2900 O.3    97  TYR97      -0.2866
    136  N        128.7910  213.3660  272.9340 N.3    99  ARG99      -0.1231
    137  CA       128.0730  213.2880  271.6700 C.3    99  ARG99       0.1694
    138  C        129.0040  213.0110  270.4930 C.2    99  ARG99       0.2592
    139  O        128.6030  212.3240  269.5460 O.2    99  ARG99      -0.2718
    140  CB       127.2570  214.5620  271.4440 C.3    99  ARG99       0.0321
    141  CG       128.0540  215.8330  271.2490 C.3    99  ARG99       0.0489
    142  CD       127.1150  217.0280  271.1030 C.3    99  ARG99       0.2205
    143  NE       127.8370  218.2700  270.8350 N.pl3  99  ARG99      -0.0865
    144  CZ       128.1080  218.7330  269.6190 C.cat  99  ARG99       0.5346
    145  NH1      127.7010  218.0640  268.5510 N.pl3  99  ARG99       0.1354
    146  NH2      128.7750  219.8700  269.4730 N.pl3  99  ARG99       0.1354
    147  N        130.2400  213.5130  270.5260 N.am  100  TYR100     -0.1962
    148  CA       131.1500  213.2640  269.4100 C.3   100  TYR100      0.1771
    149  C        131.6270  211.8200  269.3930 C.2   100  TYR100      0.2619
    150  O        131.4990  211.1230  268.3800 O.2   100  TYR100     -0.2715
    151  CB       132.3470  214.2140  269.4590 C.3   100  TYR100      0.0574
    152  CG       131.9920  215.6560  269.2000 C.ar  100  TYR100     -0.0198
    153  CD1      130.9420  215.9880  268.3560 C.ar  100  TYR100     -0.0009
    154  CD2      132.7410  216.6860  269.7450 C.ar  100  TYR100     -0.0009
    155  CE1      130.6230  217.3010  268.0960 C.ar  100  TYR100      0.0417
    156  CE2      132.4310  218.0010  269.4790 C.ar  100  TYR100      0.0417
    157  CZ       131.3710  218.3030  268.6590 C.ar  100  TYR100      0.1957
    158  OH       131.0550  219.6140  268.4020 O.3   100  TYR100     -0.2866
    159  N        132.1940  211.3520  270.5070 N.am  101  GLU101     -0.1977
    160  CA       132.6390  209.9650  270.5750 C.3   101  GLU101      0.1602
    161  C        131.4570  209.0050  270.5900 C.2   101  GLU101      0.2287
    162  O        131.5500  207.8980  270.0490 O.2   101  GLU101     -0.2864
    163  CB       133.5120  209.7520  271.8110 C.3   101  GLU101      0.0415
    164  CG       134.8000  210.5640  271.8290 C.3   101  GLU101      0.1163
    165  CD       135.7430  210.2200  270.6940 C.2   101  GLU101      0.3649
    166  OE1      135.8780  209.0220  270.3750 O.co2 101  GLU101     -0.2457
    167  OE2      136.3510  211.1490  270.1250 O.co2 101  GLU101     -0.2457
    168  N        129.1840  208.8300  266.8090 N.3   104  LYS104     -0.1231
    169  CA       129.8380  208.0970  265.7360 C.3   104  LYS104      0.1693
    170  C        130.0580  206.6430  266.1150 C.2   104  LYS104      0.2591
    171  O        130.7320  205.9060  265.3870 O.2   104  LYS104     -0.2718
    172  CB       131.1340  208.7930  265.3310 C.3   104  LYS104      0.0285
    173  CG       130.8400  210.2150  264.8800 C.3   104  LYS104      0.0035
    174  CD       129.7410  210.1720  263.8210 C.3   104  LYS104      0.0206
    175  CE       129.3300  211.5390  263.3500 C.3   104  LYS104      0.1093
    176  NZ       128.1920  211.4350  262.4060 N.3   104  LYS104     -0.1314
    177  N        129.5090  206.2360  267.2590 N.am  105  LYS105     -0.1980
    178  CA       129.4990  204.8770  267.7880 C.3   105  LYS105      0.1596
    179  C        128.0520  204.4980  268.0880 C.2   105  LYS105      0.2287
    180  O        127.5590  203.4700  267.6150 O.2   105  LYS105     -0.2864
    181  CB       130.3850  204.7560  269.0290 C.3   105  LYS105      0.0298
    182  CG       131.8510  205.1140  268.7850 C.3   105  LYS105      0.0038
    183  CD       132.4820  204.2420  267.7200 C.3   105  LYS105      0.0206
    184  CE       132.7280  202.8440  268.2430 C.3   105  LYS105      0.1093
    185  NZ       133.4730  202.0160  267.2620 N.3   105  LYS105     -0.1314
@<TRIPOS>BOND
     1     1     2    1
     2    38    39   ar
     3    38    36   ar
     4    39    37   ar
     5    12    11    2
     6     7     6   ar
     7     2     3    1
     8     2     5    1
     9    36    34   ar
    10    11    10    1
    11    37    35   ar
    12     3     9   am
    13     3     4    2
    14     9    10    1
    15    34    35   ar
    16    34    33    1
    17     6     5    1
    18     6     8   ar
    19    10    13    1
    20    33    30    1
    21    13    14    1
    22    30    29    1
    23    30    31    1
    24    29    17   am
    25    31    32    2
    26    15    16    1
    27    25    27   ar
    28    25    22   ar
    29    27    28   ar
    30    17    16    1
    31    17    18    2
    32    16    19    1
    33    19    20    1
    34    53    50    1
    35    22    20   ar
    36    22    24   ar
    37    28    26   ar
    38    69    67   am
    39    51    52    2
    40    51    50    1
    41    20    21   ar
    42    40    41    1
    43    50    49    1
    44    49    42   am
    45    66    67    1
    46    66    63    1
    47    24    26   ar
    48    24    23   ar
    49    67    68    2
    50    21    23   ar
    51    42    41    1
    52    42    43    2
    53    41    44    1
    54    64    63    1
    55    64    65    2
    56    63    62    1
    57    44    45    1
    58    62    56   am
    59    54    55    1
    60   176   175    1
    61    45    46    1
    62    56    55    1
    63    56    57    2
    64   175   174    1
    65    55    58    1
    66    47    46   ar
    67   174   173    1
    68    58    59    1
    69    46    48   ar
    70    59    60    1
    71    72    73    2
    72    72    71    1
    73   173   172    1
    74    70    71    1
    75   172   169    1
    76   171   170    2
    77    71    74    1
    78   169   170    1
    79   169   168    1
    80    61    60    1
    81    74    75    1
    82    77    75   ar
    83    77    79   ar
    84   170   177   am
    85    75    76   ar
    86    79    80   ar
    87   177   178    1
    88   185   184    1
    89   180   179    2
    90   183   184    1
    91   183   182    1
    92   178   179    1
    93   178   181    1
    94    76    78   ar
    95   155   153   ar
    96   155   157   ar
    97    80    78   ar
    98    80    81    1
    99   153   152   ar
   100   150   149    2
   101   158   157    1
   102   145   144    1
   103   157   156   ar
   104   182   181    1
   105   152   151    1
   106   152   154   ar
   107   149   148    1
   108   149   159   am
   109   148   151    1
   110   148   147    1
   111   146   144    1
   112   156   154   ar
   113   139   138    2
   114   144   143    2
   115   162   161    2
   116   167   165   ar
   117   166   165   ar
   118   138   147   am
   119   138   137    1
   120   159   160    1
   121   160   161    1
   122   160   163    1
   123   123   121   ar
   124   165   164    1
   125   143   142    1
   126   142   141    1
   127   141   140    1
   128   121   122   ar
   129   121   120    1
   130   140   137    1
   131   137   136    1
   132   163   164    1
   133   120   119    1
   134   118   117    2
   135   119   116    1
   136   117   116    1
   137   117   124   am
   138   116   115    1
   139   127   126    2
   140   124   125    1
   141   126   125    1
   142   125   128    1
   143    90    88   ar
   144   106   108   ar
   145   106   104   ar
   146   108   109   ar
   147   103   104    1
   148   103   100    1
   149   104   105   ar
   150   109   107   ar
   151   130   132   ar
   152   130   129   ar
   153   132   134   ar
   154   102   101    2
   155   105   107   ar
   156   128   129    1
   157    88    89   ar
   158    88    87    1
   159   111   110    1
   160   111   114    1
   161   111   112    1
   162   101   100    1
   163   101   110   am
   164   113   112    2
   165   129   131   ar
   166   100    99    1
   167   134   135    1
   168   134   133   ar
   169    98    96    1
   170    87    86    1
   171   131   133   ar
   172    85    84    2
   173    94    93    2
   174    96    95    1
   175    96    97    1
   176    92    93    1
   177    92    95    1
   178    92    91    1
   179    86    83    1
   180    84    91   am
   181    84    83    1
   182    83    82    1
