@<TRIPOS>MOLECULE
tmp/6igzN05.pdb
 156 154 0 0 0
SMALL
GASTEIGER

@<TRIPOS>ATOM
      1  N        234.9060  186.8650  206.1230 N.3    24  TYR24      -0.1227
      2  CA       234.6970  187.9550  207.0540 C.3    24  TYR24       0.1736
      3  C        233.4360  188.6830  206.6400 C.2    24  TYR24       0.2595
      4  O        233.4370  189.4330  205.6660 O.2    24  TYR24      -0.2718
      5  CB       235.9120  188.8600  207.0390 C.3    24  TYR24       0.0548
      6  CG       235.8090  190.1280  207.8180 C.ar   24  TYR24      -0.0200
      7  CD1      235.8330  190.1200  209.1870 C.ar   24  TYR24      -0.0009
      8  CD2      235.7750  191.3410  207.1800 C.ar   24  TYR24      -0.0009
      9  CE1      235.7730  191.2790  209.8910 C.ar   24  TYR24       0.0417
     10  CE2      235.7220  192.4990  207.8810 C.ar   24  TYR24       0.0417
     11  CZ       235.7190  192.4650  209.2340 C.ar   24  TYR24       0.1957
     12  OH       235.6630  193.6310  209.9440 O.3    24  TYR24      -0.2866
     13  N        232.3650  188.4520  207.3720 N.am   25  ASP25      -0.1960
     14  CA       231.1520  189.2360  207.2330 C.3    25  ASP25       0.1825
     15  C        230.5030  189.3340  208.6060 C.2    25  ASP25       0.2464
     16  O        229.3670  188.8870  208.7830 O.2    25  ASP25      -0.2730
     17  CB       230.2140  188.5830  206.2190 C.3    25  ASP25       0.1450
     18  CG       229.0080  189.4300  205.9080 C.2    25  ASP25       0.3671
     19  OD1      228.9330  190.5680  206.4050 O.co2  25  ASP25      -0.2456
     20  OD2      228.1250  188.9540  205.1720 O.co2  25  ASP25      -0.2456
     21  N        231.1690  189.9340  209.5910 N.am   26  PRO26      -0.2715
     22  CA       230.7110  189.7730  210.9710 C.3    26  PRO26       0.1536
     23  C        229.3810  190.4390  211.2600 C.2    26  PRO26       0.2598
     24  O        228.7470  190.0980  212.2640 O.2    26  PRO26      -0.2715
     25  CB       231.8470  190.3910  211.7880 C.3    26  PRO26       0.0310
     26  CG       232.4540  191.3520  210.8930 C.3    26  PRO26       0.0237
     27  CD       232.3650  190.7790  209.5180 C.3    26  PRO26       0.0939
     28  N        228.9350  191.3780  210.4380 N.am   27  LEU27      -0.1978
     29  CA       227.5660  191.8580  210.5290 C.3    27  LEU27       0.1596
     30  C        226.6430  191.1920  209.5240 C.2    27  LEU27       0.2287
     31  O        225.4670  191.5520  209.4590 O.2    27  LEU27      -0.2864
     32  CB       227.5000  193.3730  210.3500 C.3    27  LEU27       0.0297
     33  CG       228.1590  194.2500  211.4020 C.3    27  LEU27       0.0022
     34  CD1      227.9440  195.7000  211.0520 C.3    27  LEU27       0.0001
     35  CD2      227.6060  193.9400  212.7650 C.3    27  LEU27       0.0001
     36  N        226.3140  191.2120  206.0730 N.3    29  LEU29      -0.1245
     37  CA       225.7070  192.0350  205.0390 C.3    29  LEU29       0.1561
     38  C        225.7810  191.4070  203.6600 C.2    29  LEU29       0.2260
     39  O        225.2660  191.9900  202.7050 O.2    29  LEU29      -0.2867
     40  CB       226.3460  193.4220  205.0020 C.3    29  LEU29       0.0270
     41  CG       225.6840  194.4170  205.9520 C.3    29  LEU29       0.0019
     42  CD1      225.9500  194.0380  207.3700 C.3    29  LEU29       0.0001
     43  CD2      226.1340  195.8270  205.7040 C.3    29  LEU29       0.0001
     44  N        236.2180  200.8580  195.4630 N.3    46  HIS46      -0.1241
     45  CA       236.9790  201.5220  196.5140 C.3    46  HIS46       0.1621
     46  C        238.4330  201.0910  196.5070 C.2    46  HIS46       0.2264
     47  O        239.3340  201.9200  196.6640 O.2    46  HIS46      -0.2867
     48  CB       236.3560  201.2410  197.8720 C.3    46  HIS46       0.0745
     49  CG       235.0850  201.9780  198.1190 C.ar   46  HIS46       0.0817
     50  ND1      235.0620  203.2990  198.4950 N.ar   46  HIS46      -0.2268
     51  CD2      233.7950  201.5920  198.0200 C.ar   46  HIS46       0.1154
     52  CE1      233.8120  203.6890  198.6440 C.ar   46  HIS46       0.1986
     53  NE2      233.0230  202.6740  198.3520 N.ar   46  HIS46      -0.2212
     54  N        240.1010  203.0780  193.7720 N.3    49  TRP49      -0.1227
     55  CA       240.3220  204.4810  194.0970 C.3    49  TRP49       0.1737
     56  C        241.3090  204.6410  195.2340 C.2    49  TRP49       0.2595
     57  O        242.0590  205.6190  195.2660 O.2    49  TRP49      -0.2718
     58  CB       239.0230  205.1760  194.4680 C.3    49  TRP49       0.0564
     59  CG       238.1350  205.3880  193.3230 C.ar   49  TRP49       0.0003
     60  CD1      237.0400  204.6670  192.9990 C.ar   49  TRP49       0.0946
     61  CD2      238.2840  206.3730  192.3060 C.ar   49  TRP49       0.0152
     62  NE1      236.4760  205.1510  191.8550 N.ar   49  TRP49      -0.2442
     63  CE2      237.2270  206.2020  191.4070 C.ar   49  TRP49       0.0810
     64  CE3      239.2100  207.3900  192.0710 C.ar   49  TRP49       0.0012
     65  CZ2      237.0660  207.0050  190.2900 C.ar   49  TRP49       0.0191
     66  CZ3      239.0510  208.1850  190.9640 C.ar   49  TRP49       0.0001
     67  CH2      237.9880  207.9900  190.0870 C.ar   49  TRP49       0.0015
     68  N        241.3060  203.7150  196.1870 N.am   50  ALA50      -0.1980
     69  CA       242.3090  203.7390  197.2400 C.3    50  ALA50       0.1597
     70  C        243.7070  203.7310  196.6470 C.2    50  ALA50       0.2287
     71  O        244.4670  204.6910  196.7980 O.2    50  ALA50      -0.2864
     72  CB       242.1100  202.5510  198.1740 C.3    50  ALA50       0.0319
     73  N        244.5940  206.7430  195.3100 N.3    53  GLY53      -0.1225
     74  CA       244.6500  207.8320  196.2650 C.3    53  GLY53       0.1811
     75  C        245.9250  207.8150  197.0800 C.2    53  GLY53       0.2280
     76  O        246.5440  208.8560  197.3030 O.2    53  GLY53      -0.2866
     77  N        248.7690  209.0030  195.2090 N.3    56  GLY56      -0.1210
     78  CA       248.5510  210.4170  194.9850 C.3    56  GLY56       0.1956
     79  C        248.8600  211.2610  196.2020 C.2    56  GLY56       0.2611
     80  O        249.1630  212.4470  196.0770 O.2    56  GLY56      -0.2717
     81  N        248.7460  210.6790  197.3910 N.am   57  MET57      -0.1979
     82  CA       249.1350  211.3770  198.6080 C.3    57  MET57       0.1605
     83  C        250.6270  211.2800  198.8800 C.2    57  MET57       0.2287
     84  O        251.2620  212.2790  199.2270 O.2    57  MET57      -0.2864
     85  CB       248.3460  210.8240  199.7860 C.3    57  MET57       0.0413
     86  CG       246.9320  211.2960  199.8090 C.3    57  MET57       0.0598
     87  SD       245.9760  210.5830  201.1420 S.3    57  MET57      -0.1393
     88  CE       245.4270  209.1010  200.3320 C.3    57  MET57       0.0692
     89  N        248.7190  216.5870  200.6520 N.3    73  TRP73      -0.1241
     90  CA       247.4710  216.1990  200.0150 C.3    73  TRP73       0.1605
     91  C        246.3230  217.0490  200.5320 C.2    73  TRP73       0.2264
     92  O        245.5080  217.5480  199.7520 O.2    73  TRP73      -0.2867
     93  CB       247.1980  214.7190  200.2380 C.3    73  TRP73       0.0550
     94  CG       247.0630  214.3310  201.6460 C.ar   73  TRP73       0.0003
     95  CD1      248.0530  213.9310  202.4790 C.ar   73  TRP73       0.0946
     96  CD2      245.8580  214.2970  202.4040 C.ar   73  TRP73       0.0152
     97  NE1      247.5410  213.6500  203.7160 N.ar   73  TRP73      -0.2442
     98  CE2      246.1900  213.8690  203.6910 C.ar   73  TRP73       0.0810
     99  CE3      244.5280  214.5970  202.1180 C.ar   73  TRP73       0.0012
    100  CZ2      245.2450  213.7270  204.6870 C.ar   73  TRP73       0.0191
    101  CZ3      243.5950  214.4550  203.1050 C.ar   73  TRP73       0.0001
    102  CH2      243.9520  214.0210  204.3710 C.ar   73  TRP73       0.0015
    103  N        246.0260  220.8110  199.1990 N.3    76  ALA76      -0.1231
    104  CA       246.3070  220.9010  197.7770 C.3    76  ALA76       0.1694
    105  C        245.1020  221.3890  197.0000 C.2    76  ALA76       0.2592
    106  O        245.2520  221.8330  195.8600 O.2    76  ALA76      -0.2718
    107  CB       246.7500  219.5490  197.2230 C.3    76  ALA76       0.0304
    108  N        243.9160  221.3230  197.5990 N.am   77  GLY77      -0.1957
    109  CA       242.7530  221.9050  196.9610 C.3    77  GLY77       0.1869
    110  C        242.8720  223.4100  196.8450 C.2    77  GLY77       0.2309
    111  O        242.6930  223.9750  195.7640 O.2    77  GLY77      -0.2863
    112  N        243.0640  200.9200  201.2030 N.3   170  MET170     -0.1230
    113  CA       241.9860  201.5210  201.9720 C.3   170  MET170      0.1702
    114  C        242.4200  201.7270  203.4130 C.2   170  MET170      0.2592
    115  O        242.4150  202.8460  203.9310 O.2   170  MET170     -0.2718
    116  CB       240.7570  200.6260  201.9360 C.3   170  MET170      0.0401
    117  CG       240.1620  200.3350  200.5970 C.3   170  MET170      0.0596
    118  SD       238.8730  199.1390  200.9280 S.3   170  MET170     -0.1393
    119  CE       238.2960  198.7350  199.3060 C.3   170  MET170      0.0692
    120  N        242.8210  200.6430  204.0730 N.am  171  PHE171     -0.1976
    121  CA       243.1600  200.7010  205.4860 C.3   171  PHE171      0.1639
    122  C        244.3350  201.6160  205.7690 C.2   171  PHE171      0.2290
    123  O        244.4630  202.1070  206.8910 O.2   171  PHE171     -0.2864
    124  CB       243.4550  199.3020  206.0020 C.3   171  PHE171      0.0560
    125  CG       243.8970  199.2680  207.4240 C.ar  171  PHE171     -0.0200
    126  CD1      242.9880  199.4450  208.4430 C.ar  171  PHE171     -0.0042
    127  CD2      245.2130  199.0340  207.7460 C.ar  171  PHE171     -0.0042
    128  CE1      243.3840  199.4080  209.7480 C.ar  171  PHE171     -0.0003
    129  CE2      245.6120  198.9920  209.0530 C.ar  171  PHE171     -0.0003
    130  CZ       244.6960  199.1770  210.0560 C.ar  171  PHE171     -0.0000
    131  N        244.7870  204.3860  203.6880 N.3   173  CYS173     -0.1221
    132  CA       244.1510  205.6610  203.4120 C.3   173  CYS173      0.1808
    133  C        243.1910  206.0660  204.5130 C.2   173  CYS173      0.2601
    134  O        242.7980  207.2300  204.5710 O.2   173  CYS173     -0.2717
    135  CB       243.4290  205.6080  202.0720 C.3   173  CYS173      0.0970
    136  SG       242.7920  207.1850  201.5250 S.3   173  CYS173     -0.0800
    137  N        242.8070  205.1470  205.3870 N.am  174  LEU174     -0.1979
    138  CA       242.1760  205.5750  206.6220 C.3   174  LEU174      0.1596
    139  C        243.1970  206.1640  207.5770 C.2   174  LEU174      0.2287
    140  O        242.8560  207.0200  208.3950 O.2   174  LEU174     -0.2864
    141  CB       241.4420  204.4060  207.2710 C.3   174  LEU174      0.0297
    142  CG       240.7850  204.6490  208.6210 C.3   174  LEU174      0.0022
    143  CD1      239.7670  205.7440  208.5120 C.3   174  LEU174      0.0001
    144  CD2      240.1250  203.3760  209.0800 C.3   174  LEU174      0.0001
    145  N        244.0180  209.9820  206.6630 N.3   177  TYR177     -0.1241
    146  CA       243.0270  210.8940  207.2080 C.3   177  TYR177      0.1605
    147  C        243.2120  211.0590  208.7040 C.2   177  TYR177      0.2264
    148  O        243.3820  212.1760  209.2030 O.2   177  TYR177     -0.2867
    149  CB       241.6300  210.3780  206.9030 C.3   177  TYR177      0.0534
    150  CG       241.3370  210.3040  205.4390 C.ar  177  TYR177     -0.0201
    151  CD1      241.7790  211.2860  204.5820 C.ar  177  TYR177     -0.0009
    152  CD2      240.6100  209.2570  204.9120 C.ar  177  TYR177     -0.0009
    153  CE1      241.5130  211.2230  203.2460 C.ar  177  TYR177      0.0417
    154  CE2      240.3350  209.1890  203.5730 C.ar  177  TYR177      0.0417
    155  CZ       240.7910  210.1730  202.7470 C.ar  177  TYR177      0.1957
    156  OH       240.5200  210.1090  201.4080 O.3   177  TYR177     -0.2866
@<TRIPOS>BOND
     1    67    65   ar
     2    67    66   ar
     3    65    63   ar
     4    66    64   ar
     5    63    62   ar
     6    63    61   ar
     7    62    60   ar
     8    64    61   ar
     9    61    59   ar
    10    60    59   ar
    11    59    58    1
    12    54    55    1
    13    55    58    1
    14    55    56    1
    15    78    77    1
    16    78    79    1
    17    56    57    2
    18    56    68   am
    19    73    74    1
    20    44    45    1
    21   111   110    2
    22   106   105    2
    23    80    79    2
    24    68    69    1
    25    79    81   am
    26    74    75    1
    27    46    45    1
    28    46    47    2
    29    45    48    1
    30    70    71    2
    31    70    69    1
    32   110   109    1
    33   109   108    1
    34   105   108   am
    35   105   104    1
    36    75    76    2
    37   107   104    1
    38    69    72    1
    39    81    82    1
    40   104   103    1
    41    48    49    1
    42    51    49   ar
    43    51    53   ar
    44    49    50   ar
    45    53    52   ar
    46    50    52   ar
    47    82    83    1
    48    82    85    1
    49    83    84    2
    50   119   118    1
    51    92    91    2
    52    85    86    1
    53    86    87    1
    54    90    93    1
    55    90    91    1
    56    90    89    1
    57    93    94    1
    58    88    87    1
    59   117   118    1
    60   117   116    1
    61   112   113    1
    62   156   155    1
    63   136   135    1
    64    94    96   ar
    65    94    95   ar
    66   116   113    1
    67   113   114    1
    68   135   132    1
    69    99    96   ar
    70    99   101   ar
    71    96    98   ar
    72    95    97   ar
    73    39    38    2
    74   155   153   ar
    75   155   154   ar
    76   101   102   ar
    77   153   151   ar
    78   132   131    1
    79   132   133    1
    80   114   115    2
    81   114   120   am
    82   154   152   ar
    83    38    37    1
    84    98    97   ar
    85    98   100   ar
    86   120   121    1
    87   102   100   ar
    88   133   134    2
    89   133   137   am
    90   151   150   ar
    91   152   150   ar
    92    40    37    1
    93    40    41    1
    94    37    36    1
    95    20    18   ar
    96   137   138    1
    97   150   149    1
    98   121   122    1
    99   121   124    1
   100     4     3    2
   101    43    41    1
   102   122   123    2
   103    18    17    1
   104    18    19   ar
   105    41    42    1
   106   124   125    1
   107     1     2    1
   108    17    14    1
   109   138   141    1
   110   138   139    1
   111     3     2    1
   112     3    13   am
   113   145   146    1
   114   149   146    1
   115     5     2    1
   116     5     6    1
   117     8     6   ar
   118     8    10   ar
   119   146   147    1
   120    14    13    1
   121    14    15    1
   122   141   142    1
   123   125   127   ar
   124   125   126   ar
   125   139   140    2
   126   127   129   ar
   127     6     7   ar
   128    10    11   ar
   129   126   128   ar
   130   143   142    1
   131    15    16    2
   132    15    21   am
   133   142   144    1
   134   147   148    2
   135   129   130   ar
   136     7     9   ar
   137    11     9   ar
   138    11    12    1
   139    31    30    2
   140    27    21    1
   141    27    26    1
   142    30    29    1
   143    21    22    1
   144   128   130   ar
   145    32    29    1
   146    32    33    1
   147    28    29    1
   148    28    23   am
   149    26    25    1
   150    22    23    1
   151    22    25    1
   152    34    33    1
   153    23    24    2
   154    33    35    1
