@<TRIPOS>MOLECULE
tmp/6igzL09.pdb
 104 101 0 0 0
SMALL
GASTEIGER

@<TRIPOS>ATOM
      1  N        161.4520  214.8440  269.3990 N.3    55  PHE55      -0.1227
      2  CA       162.3350  215.4940  270.3590 C.3    55  PHE55       0.1736
      3  C        163.7210  215.7120  269.7710 C.2    55  PHE55       0.2595
      4  O        164.3080  216.7910  269.8970 O.2    55  PHE55      -0.2718
      5  CB       162.4090  214.6500  271.6320 C.3    55  PHE55       0.0547
      6  CG       163.2950  215.2250  272.6980 C.ar   55  PHE55      -0.0202
      7  CD1      162.8560  216.2680  273.4870 C.ar   55  PHE55      -0.0042
      8  CD2      164.5550  214.7030  272.9350 C.ar   55  PHE55      -0.0042
      9  CE1      163.6630  216.7980  274.4720 C.ar   55  PHE55      -0.0003
     10  CE2      165.3680  215.2290  273.9260 C.ar   55  PHE55      -0.0003
     11  CZ       164.9190  216.2760  274.6940 C.ar   55  PHE55      -0.0000
     12  N        164.2550  214.6900  269.1100 N.am   56  LEU56      -0.1980
     13  CA       165.6360  214.7480  268.6490 C.3    56  LEU56       0.1596
     14  C        165.7690  215.6030  267.3950 C.2    56  LEU56       0.2287
     15  O        166.8300  216.1760  267.1310 O.2    56  LEU56      -0.2864
     16  CB       166.1380  213.3250  268.4250 C.3    56  LEU56       0.0297
     17  CG       165.3450  212.4630  267.4380 C.3    56  LEU56       0.0022
     18  CD1      165.8630  212.5990  266.0130 C.3    56  LEU56       0.0001
     19  CD2      165.2890  211.0060  267.8690 C.3    56  LEU56       0.0001
     20  N        166.2370  219.6020  267.9090 N.3    59  GLY59      -0.1210
     21  CA       167.5420  220.1030  268.2620 C.3    59  GLY59       0.1940
     22  C        168.2500  220.8650  267.1620 C.2    59  GLY59       0.2453
     23  O        168.6470  222.0180  267.3490 O.2    59  GLY59      -0.2732
     24  N        168.4210  220.2460  265.9880 N.am   60  PRO60      -0.2728
     25  CA       169.0840  220.9620  264.8870 C.3    60  PRO60       0.1401
     26  C        168.4260  222.2860  264.5480 C.2    60  PRO60       0.2269
     27  O        169.1200  223.2880  264.3400 O.2    60  PRO60      -0.2865
     28  CB       168.9960  219.9620  263.7300 C.3    60  PRO60       0.0296
     29  CG       168.9540  218.6530  264.3810 C.3    60  PRO60       0.0237
     30  CD       168.2010  218.8290  265.6620 C.3    60  PRO60       0.0939
     31  N        166.3870  224.1390  266.6060 N.3    62  ILE62      -0.1231
     32  CA       166.3000  225.0620  267.7330 C.3    62  ILE62       0.1692
     33  C        167.7020  225.4570  268.1670 C.2    62  ILE62       0.2592
     34  O        167.8780  226.2120  269.1270 O.2    62  ILE62      -0.2718
     35  CB       165.5050  224.4560  268.9060 C.3    62  ILE62       0.0266
     36  CG1      166.2400  223.2710  269.5160 C.3    62  ILE62       0.0019
     37  CG2      164.1360  224.0090  268.4510 C.3    62  ILE62       0.0020
     38  CD1      166.8850  223.5810  270.8290 C.3    62  ILE62       0.0001
     39  N        168.7080  224.9450  267.4690 N.am   63  LYS63      -0.1966
     40  CA       170.0840  225.3010  267.7740 C.3    63  LYS63       0.1728
     41  C        170.7320  225.9790  266.5760 C.2    63  LYS63       0.2616
     42  O        171.1650  227.1300  266.6660 O.2    63  LYS63      -0.2715
     43  CB       170.8780  224.0660  268.1860 C.3    63  LYS63       0.0311
     44  CG       172.2860  224.3600  268.6570 C.3    63  LYS63       0.0038
     45  CD       172.2750  225.1090  269.9710 C.3    63  LYS63       0.0206
     46  CE       173.6830  225.3450  270.4580 C.3    63  LYS63       0.1093
     47  NZ       174.3440  224.0450  270.7390 N.3    63  LYS63      -0.1314
     48  N        170.7990  225.2480  265.4660 N.am   64  LEU64      -0.1977
     49  CA       171.4090  225.7350  264.2350 C.3    64  LEU64       0.1596
     50  C        170.3860  226.0860  263.1600 C.2    64  LEU64       0.2287
     51  O        170.4790  225.6090  262.0310 O.2    64  LEU64      -0.2864
     52  CB       172.3720  224.6840  263.6800 C.3    64  LEU64       0.0297
     53  CG       173.8050  224.6950  264.2070 C.3    64  LEU64       0.0022
     54  CD1      174.5190  223.4170  263.7980 C.3    64  LEU64       0.0001
     55  CD2      174.5520  225.9150  263.6940 C.3    64  LEU64       0.0001
     56  N        164.1450  229.6110  269.6980 N.3    76  GLU76      -0.1245
     57  CA       163.7230  228.2820  270.1070 C.3    76  GLU76       0.1567
     58  C        162.3870  227.8820  269.4970 C.2    76  GLU76       0.2260
     59  O        162.2330  226.7460  269.0460 O.2    76  GLU76      -0.2867
     60  CB       163.6420  228.2150  271.6290 C.3    76  GLU76       0.0388
     61  CG       164.9570  228.5430  272.3200 C.3    76  GLU76       0.1160
     62  CD       166.1060  227.6690  271.8540 C.2    76  GLU76       0.3649
     63  OE1      165.8780  226.4760  271.5680 O.co2  76  GLU76      -0.2457
     64  OE2      167.2460  228.1730  271.7870 O.co2  76  GLU76      -0.2457
     65  N        157.4310  218.5010  274.2390 N.3   147  TRP147     -0.1227
     66  CA       158.2660  218.3380  275.4220 C.3   147  TRP147      0.1737
     67  C        159.6700  218.8530  275.1600 C.2   147  TRP147      0.2595
     68  O        160.3590  219.2950  276.0850 O.2   147  TRP147     -0.2718
     69  CB       158.2810  216.8700  275.8330 C.3   147  TRP147      0.0564
     70  CG       158.9340  216.5580  277.1460 C.ar  147  TRP147      0.0003
     71  CD1      158.3820  216.7110  278.3830 C.ar  147  TRP147      0.0946
     72  CD2      160.2130  215.9410  277.3570 C.ar  147  TRP147      0.0152
     73  NE1      159.2530  216.2750  279.3500 N.ar  147  TRP147     -0.2442
     74  CE2      160.3820  215.7920  278.7460 C.ar  147  TRP147      0.0810
     75  CE3      161.2370  215.5180  276.5080 C.ar  147  TRP147      0.0012
     76  CZ2      161.5340  215.2470  279.3050 C.ar  147  TRP147      0.0191
     77  CZ3      162.3830  214.9730  277.0700 C.ar  147  TRP147      0.0001
     78  CH2      162.5200  214.8430  278.4510 C.ar  147  TRP147      0.0015
     79  N        160.1020  218.8270  273.8980 N.am  148  ALA148     -0.1980
     80  CA       161.3670  219.4570  273.5430 C.3   148  ALA148      0.1597
     81  C        161.3150  220.9540  273.7950 C.2   148  ALA148      0.2287
     82  O        162.3000  221.5520  274.2400 O.2   148  ALA148     -0.2864
     83  CB       161.7130  219.1740  272.0840 C.3   148  ALA148      0.0319
     84  N        161.2100  221.4250  277.5510 N.3   151  CYS151     -0.1221
     85  CA       162.5630  221.2090  278.0460 C.3   151  CYS151      0.1808
     86  C        163.4960  222.3280  277.6140 C.2   151  CYS151      0.2601
     87  O        164.6160  222.4420  278.1250 O.2   151  CYS151     -0.2717
     88  CB       163.0890  219.8620  277.5670 C.3   151  CYS151      0.0970
     89  SG       162.2390  218.4640  278.2890 S.3   151  CYS151     -0.0800
     90  N        163.0790  223.1370  276.6390 N.am  152  THR152     -0.1953
     91  CA       163.9070  224.2710  276.2500 C.3   152  THR152      0.1897
     92  C        163.6730  225.4670  277.1610 C.2   152  THR152      0.2313
     93  O        164.6260  226.1120  277.6110 O.2   152  THR152     -0.2863
     94  CB       163.6360  224.6550  274.8030 C.3   152  THR152      0.1794
     95  OG1      163.8550  223.5190  273.9610 O.3   152  THR152     -0.2208
     96  CG2      164.5840  225.7450  274.4000 C.3   152  THR152      0.0378
     97  N        163.7750  223.1540  282.6260 N.3   155  LEU155     -0.1245
     98  CA       164.7310  222.0580  282.7640 C.3   155  LEU155      0.1561
     99  C        166.1230  222.4110  282.2380 C.2   155  LEU155      0.2260
    100  O        167.1120  222.3400  282.9670 O.2   155  LEU155     -0.2867
    101  CB       164.2040  220.8110  282.0540 C.3   155  LEU155      0.0270
    102  CG       162.8850  220.2850  282.6220 C.3   155  LEU155      0.0019
    103  CD1      162.4100  219.0430  281.8740 C.3   155  LEU155      0.0001
    104  CD2      163.0000  220.0230  284.1190 C.3   155  LEU155      0.0001
@<TRIPOS>BOND
     1    51    50    2
     2    50    49    1
     3    52    53    1
     4    52    49    1
     5    55    53    1
     6    28    29    1
     7    28    25    1
     8    54    53    1
     9    49    48    1
    10    27    26    2
    11    29    30    1
    12    26    25    1
    13    25    24    1
    14    48    41   am
    15    30    24    1
    16    24    22   am
    17    18    17    1
    18    41    42    2
    19    41    40    1
    20    31    32    1
    21    15    14    2
    22    22    23    2
    23    22    21    1
    24    14    13    1
    25    17    19    1
    26    17    16    1
    27    39    40    1
    28    39    33   am
    29    32    33    1
    30    32    35    1
    31    40    43    1
    32    20    21    1
    33    33    34    2
    34    43    44    1
    35    16    13    1
    36    37    35    1
    37    13    12    1
    38    44    45    1
    39    35    36    1
    40    59    58    2
    41    12     3   am
    42     1     2    1
    43    58    57    1
    44    36    38    1
    45    56    57    1
    46     3     4    2
    47     3     2    1
    48    45    46    1
    49    57    60    1
    50     2     5    1
    51    46    47    1
    52    63    62   ar
    53    60    61    1
    54     5     6    1
    55    64    62   ar
    56    62    61    1
    57    83    80    1
    58     6     8   ar
    59     6     7   ar
    60     8    10   ar
    61     7     9   ar
    62    80    81    1
    63    80    79    1
    64    81    82    2
    65    79    67   am
    66    10    11   ar
    67    95    94    1
    68    65    66    1
    69    96    94    1
    70     9    11   ar
    71    94    91    1
    72    67    66    1
    73    67    68    2
    74    66    69    1
    75    69    70    1
    76    91    90    1
    77    91    92    1
    78    75    77   ar
    79    75    72   ar
    80    90    86   am
    81    77    78   ar
    82    70    72   ar
    83    70    71   ar
    84    92    93    2
    85    72    74   ar
    86    84    85    1
    87    88    85    1
    88    88    89    1
    89    86    85    1
    90    86    87    2
    91    71    73   ar
    92    78    76   ar
    93    74    76   ar
    94    74    73   ar
    95   103   102    1
    96   101   102    1
    97   101    98    1
    98    99    98    1
    99    99   100    2
   100   102   104    1
   101    97    98    1
