@<TRIPOS>MOLECULE
tmp/6igzS10.pdb
 97 97 0 0 0
SMALL
GASTEIGER

@<TRIPOS>ATOM
      1  N        258.7640  174.9900  215.4960 N.3    31  LEU31      -0.1245
      2  CA       258.7610  175.8750  214.3420 C.3    31  LEU31       0.1561
      3  C        259.1340  175.1290  213.0710 C.2    31  LEU31       0.2260
      4  O        258.4780  175.2790  212.0360 O.2    31  LEU31      -0.2867
      5  CB       259.7100  177.0380  214.5960 C.3    31  LEU31       0.0270
      6  CG       259.8540  178.0030  213.4360 C.3    31  LEU31       0.0019
      7  CD1      258.5030  178.5360  213.0710 C.3    31  LEU31       0.0001
      8  CD2      260.7270  179.1320  213.8570 C.3    31  LEU31       0.0001
      9  N        258.8710  172.0850  210.8290 N.3    33  SER33      -0.1202
     10  CA       257.8870  171.0500  210.5620 C.3    33  SER33       0.2020
     11  C        257.5450  171.1870  209.0910 C.2    33  SER33       0.2618
     12  O        257.7990  172.2330  208.4880 O.2    33  SER33      -0.2717
     13  CB       256.6400  171.1950  211.4320 C.3    33  SER33       0.2103
     14  OG       255.7010  170.1840  211.1380 O.3    33  SER33      -0.2182
     15  N        256.9530  170.1420  208.5250 N.am   34  ASP34      -0.1973
     16  CA       256.7020  170.1500  207.0910 C.3    34  ASP34       0.1709
     17  C        258.0220  170.4240  206.3800 C.2    34  ASP34       0.2293
     18  O        258.2650  171.5460  205.9250 O.2    34  ASP34      -0.2864
     19  CB       255.6430  171.1860  206.7200 C.3    34  ASP34       0.1436
     20  CG       255.1830  171.0540  205.2930 C.2    34  ASP34       0.3671
     21  OD1      255.6400  170.1150  204.6120 O.co2  34  ASP34      -0.2456
     22  OD2      254.3560  171.8760  204.8550 O.co2  34  ASP34      -0.2456
     23  N        259.9130  171.0740  204.1770 N.3    36  LYS36      -0.1231
     24  CA       260.2510  172.2050  203.3170 C.3    36  LYS36       0.1693
     25  C        260.7010  173.3990  204.1410 C.2    36  LYS36       0.2591
     26  O        261.5470  174.1790  203.6960 O.2    36  LYS36      -0.2718
     27  CB       259.0640  172.5930  202.4420 C.3    36  LYS36       0.0285
     28  CG       257.8910  173.1750  203.1920 C.3    36  LYS36       0.0035
     29  CD       256.7460  173.4200  202.2420 C.3    36  LYS36       0.0206
     30  CE       257.1340  174.4190  201.1770 C.3    36  LYS36       0.1093
     31  NZ       256.0370  174.6600  200.2020 N.3    36  LYS36      -0.1314
     32  N        260.1510  173.5560  205.3440 N.am   37  ALA37      -0.1980
     33  CA       260.6920  174.5330  206.2770 C.3    37  ALA37       0.1597
     34  C        262.0360  174.0730  206.8180 C.2    37  ALA37       0.2287
     35  O        262.9850  174.8590  206.8930 O.2    37  ALA37      -0.2864
     36  CB       259.7070  174.7700  207.4190 C.3    37  ALA37       0.0319
     37  N        264.8820  174.7140  204.5830 N.3    40  TRP40      -0.1227
     38  CA       265.1900  176.1370  204.6070 C.3    40  TRP40       0.1737
     39  C        265.9330  176.5150  205.8770 C.2    40  TRP40       0.2595
     40  O        266.9930  177.1450  205.8250 O.2    40  TRP40      -0.2718
     41  CB       263.9040  176.9390  204.4790 C.3    40  TRP40       0.0564
     42  CG       264.1020  178.3960  204.5290 C.ar   40  TRP40       0.0003
     43  CD1      263.7760  179.2290  205.5490 C.ar   40  TRP40       0.0946
     44  CD2      264.6730  179.2120  203.5100 C.ar   40  TRP40       0.0152
     45  NE1      264.1050  180.5200  205.2280 N.ar   40  TRP40      -0.2442
     46  CE2      264.6580  180.5340  203.9770 C.ar   40  TRP40       0.0810
     47  CE3      265.1970  178.9520  202.2460 C.ar   40  TRP40       0.0012
     48  CZ2      265.1440  181.5880  203.2280 C.ar   40  TRP40       0.0191
     49  CZ3      265.6770  179.9980  201.5060 C.ar   40  TRP40       0.0001
     50  CH2      265.6490  181.3010  201.9960 C.ar   40  TRP40       0.0015
     51  N        265.3890  176.1390  207.0310 N.am   41  TYR41      -0.1976
     52  CA       266.0140  176.5200  208.2880 C.3    41  TYR41       0.1639
     53  C        267.4100  175.9440  208.4060 C.2    41  TYR41       0.2290
     54  O        268.3380  176.6430  208.8230 O.2    41  TYR41      -0.2864
     55  CB       265.1420  176.0880  209.4570 C.3    41  TYR41       0.0560
     56  CG       263.8600  176.8650  209.5250 C.ar   41  TYR41      -0.0198
     57  CD1      263.8490  178.2220  209.2880 C.ar   41  TYR41      -0.0009
     58  CD2      262.6670  176.2460  209.8160 C.ar   41  TYR41      -0.0009
     59  CE1      262.6970  178.9400  209.3440 C.ar   41  TYR41       0.0417
     60  CE2      261.5050  176.9580  209.8750 C.ar   41  TYR41       0.0417
     61  CZ       261.5260  178.3040  209.6360 C.ar   41  TYR41       0.1957
     62  OH       260.3610  179.0250  209.6940 O.3    41  TYR41      -0.2866
     63  N        270.9550  180.5110  196.2720 N.3   108  TRP108     -0.1241
     64  CA       269.5190  180.4620  196.5080 C.3   108  TRP108      0.1605
     65  C        268.8180  179.6030  195.4740 C.2   108  TRP108      0.2264
     66  O        268.0410  178.7080  195.8190 O.2   108  TRP108     -0.2867
     67  CB       268.9430  181.8730  196.5210 C.3   108  TRP108      0.0550
     68  CG       267.4730  181.8960  196.6150 C.ar  108  TRP108      0.0003
     69  CD1      266.7250  181.6250  197.7110 C.ar  108  TRP108      0.0946
     70  CD2      266.5620  182.2840  195.5920 C.ar  108  TRP108      0.0152
     71  NE1      265.3970  181.7690  197.4250 N.ar  108  TRP108     -0.2442
     72  CE2      265.2710  182.1820  196.1270 C.ar  108  TRP108      0.0810
     73  CE3      266.7100  182.6870  194.2660 C.ar  108  TRP108      0.0012
     74  CZ2      264.1370  182.4650  195.3860 C.ar  108  TRP108      0.0191
     75  CZ3      265.5840  182.9710  193.5320 C.ar  108  TRP108      0.0001
     76  CH2      264.3140  182.8590  194.0920 C.ar  108  TRP108      0.0015
     77  N        268.8790  176.1040  196.0720 N.3   111  TYR111     -0.1227
     78  CA       267.9250  175.6050  197.0530 C.3   111  TYR111      0.1736
     79  C        266.5600  175.3310  196.4390 C.2   111  TYR111      0.2595
     80  O        265.9310  174.3240  196.7730 O.2   111  TYR111     -0.2718
     81  CB       267.7800  176.5920  198.2010 C.3   111  TYR111      0.0548
     82  CG       266.5860  176.3080  199.0670 C.ar  111  TYR111     -0.0200
     83  CD1      266.6060  175.2880  199.9910 C.ar  111  TYR111     -0.0009
     84  CD2      265.4290  177.0650  198.9510 C.ar  111  TYR111     -0.0009
     85  CE1      265.5060  175.0290  200.7800 C.ar  111  TYR111      0.0417
     86  CE2      264.3290  176.8130  199.7310 C.ar  111  TYR111      0.0417
     87  CZ       264.3730  175.7970  200.6440 C.ar  111  TYR111      0.1957
     88  OH       263.2790  175.5410  201.4280 O.3   111  TYR111     -0.2866
     89  N        266.0770  176.2220  195.5670 N.am  112  LYS112     -0.1980
     90  CA       264.7370  176.1050  194.9930 C.3   112  LYS112      0.1596
     91  C        264.5240  174.7280  194.3920 C.2   112  LYS112      0.2287
     92  O        263.7750  173.9120  194.9310 O.2   112  LYS112     -0.2864
     93  CB       264.5120  177.1640  193.9180 C.3   112  LYS112      0.0298
     94  CG       264.5680  178.5980  194.4000 C.3   112  LYS112      0.0038
     95  CD       263.4440  178.9140  195.3510 C.3   112  LYS112      0.0206
     96  CE       262.1420  179.0520  194.5930 C.3   112  LYS112      0.1093
     97  NZ       261.0240  179.4990  195.4640 N.3   112  LYS112     -0.1314
@<TRIPOS>BOND
     1    75    76   ar
     2    75    73   ar
     3    93    94    1
     4    93    90    1
     5    76    74   ar
     6    73    70   ar
     7    91    92    2
     8    91    90    1
     9    94    95    1
    10    96    95    1
    11    96    97    1
    12    90    89    1
    13    74    72   ar
    14    65    66    2
    15    65    64    1
    16    89    79   am
    17    70    72   ar
    18    70    68   ar
    19    77    78    1
    20    72    71   ar
    21    63    64    1
    22    79    80    2
    23    79    78    1
    24    64    67    1
    25    67    68    1
    26    68    69   ar
    27    78    81    1
    28    71    69   ar
    29    81    82    1
    30    84    82   ar
    31    84    86   ar
    32    82    83   ar
    33    86    87   ar
    34    83    85   ar
    35    31    30    1
    36    87    85   ar
    37    87    88    1
    38    30    29    1
    39    49    50   ar
    40    49    47   ar
    41    50    48   ar
    42    29    28    1
    43    47    44   ar
    44    27    28    1
    45    27    24    1
    46    48    46   ar
    47    24    25    1
    48    24    23    1
    49    44    46   ar
    50    44    42   ar
    51    26    25    2
    52    46    45   ar
    53    25    32   am
    54    41    42    1
    55    41    38    1
    56    42    43   ar
    57    37    38    1
    58    38    39    1
    59    21    20   ar
    60    22    20   ar
    61    45    43   ar
    62    20    19    1
    63    32    33    1
    64    40    39    2
    65    39    51   am
    66    18    17    2
    67    33    34    1
    68    33    36    1
    69    17    16    1
    70    19    16    1
    71    34    35    2
    72    51    52    1
    73    16    15    1
    74    52    53    1
    75    52    55    1
    76    53    54    2
    77    12    11    2
    78    15    11   am
    79    11    10    1
    80    57    59   ar
    81    57    56   ar
    82    59    61   ar
    83    55    56    1
    84    56    58   ar
    85    61    62    1
    86    61    60   ar
    87    58    60   ar
    88    10     9    1
    89    10    13    1
    90    14    13    1
    91     4     3    2
    92     7     6    1
    93     3     2    1
    94     6     8    1
    95     6     5    1
    96     2     5    1
    97     2     1    1
