@<TRIPOS>MOLECULE
tmp/6igzS24.pdb
 114 109 0 0 0
SMALL
GASTEIGER

@<TRIPOS>ATOM
      1  N        279.5030  181.8860  208.9550 N.3    51  TRP51      -0.1241
      2  CA       279.9040  183.2810  209.1000 C.3    51  TRP51       0.1605
      3  C        280.2540  183.6170  210.5350 C.2    51  TRP51       0.2264
      4  O        281.0700  184.5100  210.7820 O.2    51  TRP51      -0.2867
      5  CB       278.8030  184.2170  208.6170 C.3    51  TRP51       0.0550
      6  CG       278.6380  184.2340  207.1600 C.ar   51  TRP51       0.0003
      7  CD1      277.6610  183.6380  206.4410 C.ar   51  TRP51       0.0946
      8  CD2      279.5140  184.8480  206.2220 C.ar   51  TRP51       0.0152
      9  NE1      277.8520  183.8650  205.1040 N.ar   51  TRP51      -0.2442
     10  CE2      278.9910  184.6050  204.9450 C.ar   51  TRP51       0.0810
     11  CE3      280.6870  185.5910  206.3390 C.ar   51  TRP51       0.0012
     12  CZ2      279.6000  185.0770  203.7910 C.ar   51  TRP51       0.0191
     13  CZ3      281.2890  186.0560  205.1970 C.ar   51  TRP51       0.0001
     14  CH2      280.7470  185.8010  203.9380 C.ar   51  TRP51       0.0015
     15  N        283.6270  198.9000  216.2440 N.3    73  GLU73      -0.1231
     16  CA       283.5180  199.9890  215.2940 C.3    73  GLU73       0.1699
     17  C        284.1510  199.6050  213.9670 C.2    73  GLU73       0.2592
     18  O        283.4560  199.1390  213.0620 O.2    73  GLU73      -0.2718
     19  CB       284.2090  201.2180  215.8700 C.3    73  GLU73       0.0402
     20  CG       284.2790  202.4160  214.9670 C.3    73  GLU73       0.1161
     21  CD       285.0530  203.5230  215.6230 C.2    73  GLU73       0.3649
     22  OE1      285.4790  203.3310  216.7810 O.co2  73  GLU73      -0.2457
     23  OE2      285.2640  204.5700  214.9900 O.co2  73  GLU73      -0.2457
     24  N        285.4620  199.7890  213.8390 N.am   74  ALA74      -0.1966
     25  CA       286.2580  199.2280  212.7530 C.3    74  ALA74       0.1728
     26  C        285.7680  199.6490  211.3730 C.2    74  ALA74       0.2616
     27  O        286.4960  199.5210  210.3870 O.2    74  ALA74      -0.2715
     28  CB       286.2790  197.7040  212.8500 C.3    74  ALA74       0.0334
     29  N        284.5440  200.1510  211.2880 N.am   75  GLY75      -0.1955
     30  CA       283.9470  200.4340  210.0040 C.3    75  GLY75       0.1869
     31  C        284.3760  201.7340  209.3680 C.2    75  GLY75       0.2309
     32  O        284.7940  201.7630  208.2110 O.2    75  GLY75      -0.2863
     33  N        290.8320  202.2490  209.1620 N.3    80  LEU80      -0.1231
     34  CA       291.2250  201.4960  207.9820 C.3    80  LEU80       0.1678
     35  C        292.7340  201.5820  207.7450 C.2    80  LEU80       0.2434
     36  O        293.3700  202.5780  208.0860 O.2    80  LEU80      -0.2733
     37  CB       290.4820  202.0020  206.7550 C.3    80  LEU80       0.0284
     38  CG       289.1090  201.3940  206.4860 C.3    80  LEU80       0.0019
     39  CD1      288.1110  201.7870  207.5530 C.3    80  LEU80       0.0001
     40  CD2      288.6230  201.7950  205.1100 C.3    80  LEU80       0.0001
     41  N        293.3270  200.5330  207.1570 N.am   81  PRO81      -0.2729
     42  CA       294.7730  200.5260  206.9020 C.3    81  PRO81       0.1401
     43  C        295.2620  201.6280  205.9760 C.2    81  PRO81       0.2269
     44  O        294.5030  202.5160  205.5800 O.2    81  PRO81      -0.2865
     45  CB       295.0060  199.1440  206.2840 C.3    81  PRO81       0.0296
     46  CG       293.9480  198.2940  206.8800 C.3    81  PRO81       0.0237
     47  CD       292.7450  199.1800  207.0520 C.3    81  PRO81       0.0939
     48  N        294.2660  201.5450  201.9530 N.3    84  VAL84      -0.1245
     49  CA       292.8810  201.9840  201.9590 C.3    84  VAL84       0.1561
     50  C        292.8590  203.3300  202.6670 C.2    84  VAL84       0.2260
     51  O        293.8740  204.0340  202.6720 O.2    84  VAL84      -0.2867
     52  CB       291.9810  200.9410  202.6320 C.3    84  VAL84       0.0252
     53  CG1      292.0810  199.6350  201.8840 C.3    84  VAL84       0.0019
     54  CG2      292.4160  200.7350  204.0350 C.3    84  VAL84       0.0019
     55  N        289.5590  204.9950  199.9080 N.3    87  LEU87      -0.1245
     56  CA       288.8590  204.2360  198.8860 C.3    87  LEU87       0.1561
     57  C        287.3710  204.5380  198.8300 C.2    87  LEU87       0.2260
     58  O        286.6720  203.9190  198.0220 O.2    87  LEU87      -0.2867
     59  CB       289.0550  202.7330  199.0800 C.3    87  LEU87       0.0270
     60  CG       290.4510  202.1900  198.8210 C.3    87  LEU87       0.0019
     61  CD1      290.4310  200.6920  198.9750 C.3    87  LEU87       0.0001
     62  CD2      290.9300  202.5810  197.4420 C.3    87  LEU87       0.0001
     63  N        284.2060  204.3610  200.9150 N.3    89  LEU89      -0.1245
     64  CA       283.4320  203.1620  201.2290 C.3    89  LEU89       0.1561
     65  C        282.2470  202.9680  200.3000 C.2    89  LEU89       0.2260
     66  O        281.9380  201.8380  199.9130 O.2    89  LEU89      -0.2867
     67  CB       282.8880  203.2180  202.6550 C.3    89  LEU89       0.0270
     68  CG       283.8180  203.2480  203.8550 C.3    89  LEU89       0.0019
     69  CD1      282.9750  203.3780  205.1040 C.3    89  LEU89       0.0001
     70  CD2      284.6570  201.9980  203.8970 C.3    89  LEU89       0.0001
     71  N        283.5900  201.0940  197.9920 N.3    92  ILE92      -0.1245
     72  CA       283.9540  199.7860  198.5170 C.3    92  ILE92       0.1561
     73  C        282.7290  198.8970  198.5940 C.2    92  ILE92       0.2260
     74  O        282.7510  197.7400  198.1600 O.2    92  ILE92      -0.2867
     75  CB       284.6280  199.9210  199.8880 C.3    92  ILE92       0.0252
     76  CG1      285.9980  200.5590  199.7240 C.3    92  ILE92       0.0019
     77  CG2      284.7270  198.5740  200.5640 C.3    92  ILE92       0.0019
     78  CD1      286.6500  200.8990  201.0230 C.3    92  ILE92       0.0001
     79  N        281.8620  197.5110  195.3740 N.3    95  PHE95      -0.1227
     80  CA       282.6130  196.3540  194.9190 C.3    95  PHE95       0.1736
     81  C        282.0810  195.0800  195.5450 C.2    95  PHE95       0.2595
     82  O        282.1470  194.0150  194.9300 O.2    95  PHE95      -0.2718
     83  CB       284.0940  196.5130  195.2360 C.3    95  PHE95       0.0547
     84  CG       284.9400  195.4120  194.6890 C.ar   95  PHE95      -0.0202
     85  CD1      285.3710  195.4480  193.3790 C.ar   95  PHE95      -0.0042
     86  CD2      285.2850  194.3300  195.4710 C.ar   95  PHE95      -0.0042
     87  CE1      286.1440  194.4370  192.8670 C.ar   95  PHE95      -0.0003
     88  CE2      286.0570  193.3100  194.9630 C.ar   95  PHE95      -0.0003
     89  CZ       286.4870  193.3630  193.6600 C.ar   95  PHE95      -0.0000
     90  N        281.5440  195.1680  196.7550 N.am   96  GLU96      -0.1979
     91  CA       281.0760  193.9710  197.4350 C.3    96  GLU96       0.1602
     92  C        279.7590  193.4830  196.8590 C.2    96  GLU96       0.2287
     93  O        279.5900  192.2870  196.6010 O.2    96  GLU96      -0.2864
     94  CB       280.9240  194.2480  198.9230 C.3    96  GLU96       0.0415
     95  CG       280.3750  193.0800  199.7030 C.3    96  GLU96       0.1163
     96  CD       280.3060  193.3870  201.1690 C.2    96  GLU96       0.3649
     97  OE1      280.6350  194.5290  201.5270 O.co2  96  GLU96      -0.2457
     98  OE2      279.9470  192.4970  201.9600 O.co2  96  GLU96      -0.2457
     99  N        279.4610  191.2820  193.9080 N.3    99  MET99      -0.1230
    100  CA       280.1070  190.0050  194.1630 C.3    99  MET99       0.1702
    101  C        279.1990  189.0840  194.9610 C.2    99  MET99       0.2592
    102  O        279.0060  187.9240  194.5920 O.2    99  MET99      -0.2718
    103  CB       281.4250  190.2240  194.8950 C.3    99  MET99       0.0401
    104  CG       282.4450  191.0090  194.1040 C.3    99  MET99       0.0596
    105  SD       282.9760  190.1350  192.6270 S.3    99  MET99      -0.1393
    106  CE       284.1110  191.3230  191.9190 C.3    99  MET99       0.0692
    107  N        278.6290  189.5860  196.0560 N.am  100  MET100     -0.1979
    108  CA       277.7890  188.7450  196.9020 C.3   100  MET100      0.1605
    109  C        276.4380  188.4890  196.2630 C.2   100  MET100      0.2287
    110  O        275.8800  187.3960  196.3980 O.2   100  MET100     -0.2864
    111  CB       277.6050  189.3830  198.2750 C.3   100  MET100      0.0413
    112  CG       278.8580  189.4050  199.1060 C.3   100  MET100      0.0598
    113  SD       279.4570  187.7420  199.4270 S.3   100  MET100     -0.1393
    114  CE       278.1570  187.1210  200.4780 C.3   100  MET100      0.0692
@<TRIPOS>BOND
     1   106   105    1
     2   105   104    1
     3    87    85   ar
     4    87    89   ar
     5    85    84   ar
     6    89    88   ar
     7    99   100    1
     8   104   103    1
     9   100   103    1
    10   100   101    1
    11   102   101    2
    12    84    83    1
    13    84    86   ar
    14    80    83    1
    15    80    79    1
    16    80    81    1
    17    82    81    2
    18   101   107   am
    19    88    86   ar
    20    81    90   am
    21   107   108    1
    22   109   110    2
    23   109   108    1
    24    93    92    2
    25    90    91    1
    26    92    91    1
    27   108   111    1
    28    91    94    1
    29    62    60    1
    30    71    72    1
    31    58    57    2
    32    74    73    2
    33   111   112    1
    34    72    73    1
    35    72    75    1
    36    60    61    1
    37    60    59    1
    38    57    56    1
    39    56    59    1
    40    56    55    1
    41    94    95    1
    42   112   113    1
    43   113   114    1
    44    95    96    1
    45    76    75    1
    46    76    78    1
    47    75    77    1
    48    66    65    2
    49    65    64    1
    50    63    64    1
    51    96    97   ar
    52    96    98   ar
    53    64    67    1
    54    53    52    1
    55    48    49    1
    56    49    52    1
    57    49    50    1
    58    52    54    1
    59    67    68    1
    60    50    51    2
    61    12    14   ar
    62    12    10   ar
    63    68    70    1
    64    68    69    1
    65    14    13   ar
    66    10     9   ar
    67    10     8   ar
    68     9     7   ar
    69    40    38    1
    70    13    11   ar
    71    44    43    2
    72    43    42    1
    73     8    11   ar
    74     8     6   ar
    75    45    46    1
    76    45    42    1
    77     7     6   ar
    78    38    37    1
    79    38    39    1
    80    37    34    1
    81    46    47    1
    82    42    41    1
    83    47    41    1
    84    41    35   am
    85     6     5    1
    86    35    34    1
    87    35    36    2
    88    34    33    1
    89    32    31    2
    90     5     2    1
    91     1     2    1
    92     2     3    1
    93    31    30    1
    94    30    29    1
    95    27    26    2
    96     3     4    2
    97    29    26   am
    98    26    25    1
    99    25    28    1
   100    25    24    1
   101    18    17    2
   102    24    17   am
   103    17    16    1
   104    20    21    1
   105    20    19    1
   106    23    21   ar
   107    16    19    1
   108    16    15    1
   109    21    22   ar
