@<TRIPOS>MOLECULE
tmp/6igzQ16.pdb
 111 112 0 0 0
SMALL
GASTEIGER

@<TRIPOS>ATOM
      1  N        268.9380  177.0200  177.2910 N.3     2  PRO2       -0.2102
      2  CA       269.5050  178.1330  178.0570 C.3     2  PRO2        0.1504
      3  C        268.4110  179.1060  178.4490 C.2     2  PRO2        0.2576
      4  O        267.4760  179.3520  177.6860 O.2     2  PRO2       -0.2718
      5  CB       270.4990  178.7630  177.0830 C.3     2  PRO2        0.0282
      6  CG       269.9530  178.4190  175.7490 C.3     2  PRO2        0.0208
      7  CD       269.4250  177.0300  175.9030 C.3     2  PRO2        0.0893
      8  N        268.5280  179.6540  179.6520 N.am    3  LEU3       -0.1966
      9  CA       267.4940  180.4920  180.2280 C.3     3  LEU3        0.1728
     10  C        268.1280  181.7550  180.7700 C.2     3  LEU3        0.2616
     11  O        269.3450  181.8460  180.9130 O.2     3  LEU3       -0.2715
     12  CB       266.7540  179.7670  181.3470 C.3     3  LEU3        0.0311
     13  CG       266.0720  178.4980  180.8680 C.3     3  LEU3        0.0022
     14  CD1      265.4360  177.7910  182.0340 C.3     3  LEU3        0.0001
     15  CD2      265.0610  178.8290  179.8060 C.3     3  LEU3        0.0001
     16  N        267.2920  182.7450  181.0760 N.am    4  TRP4       -0.1960
     17  CA       267.8190  183.9220  181.7510 C.3     4  TRP4        0.1771
     18  C        268.3170  183.5510  183.1340 C.2     4  TRP4        0.2619
     19  O        269.3710  184.0130  183.5650 O.2     4  TRP4       -0.2715
     20  CB       266.7570  185.0120  181.8330 C.3     4  TRP4        0.0590
     21  CG       265.5760  184.6000  182.5980 C.ar    4  TRP4        0.0006
     22  CD1      264.5590  183.8280  182.1570 C.ar    4  TRP4        0.0946
     23  CD2      265.2570  184.9640  183.9390 C.ar    4  TRP4        0.0152
     24  NE1      263.6280  183.6640  183.1480 N.ar    4  TRP4       -0.2442
     25  CE2      264.0380  184.3570  184.2540 C.ar    4  TRP4        0.0810
     26  CE3      265.8890  185.7380  184.9050 C.ar    4  TRP4        0.0012
     27  CZ2      263.4380  184.5000  185.4880 C.ar    4  TRP4        0.0191
     28  CZ3      265.2920  185.8760  186.1290 C.ar    4  TRP4        0.0001
     29  CH2      264.0830  185.2600  186.4120 C.ar    4  TRP4        0.0015
     30  N        267.5980  182.6830  183.8270 N.am    5  LEU5       -0.1964
     31  CA       268.0520  182.2230  185.1210 C.3     5  LEU5        0.1713
     32  C        268.3310  180.7310  185.0400 C.2     5  LEU5        0.2458
     33  O        267.3870  179.9410  184.9080 O.2     5  LEU5       -0.2730
     34  CB       267.0180  182.5310  186.1890 C.3     5  LEU5        0.0310
     35  CG       267.5110  182.3250  187.6080 C.3     5  LEU5        0.0022
     36  CD1      266.8630  183.3140  188.5270 C.3     5  LEU5        0.0001
     37  CD2      267.1480  180.9480  188.0190 C.3     5  LEU5        0.0001
     38  N        269.5910  180.3060  185.1320 N.am    6  PRO6       -0.2716
     39  CA       269.9340  178.9210  184.7830 C.3     6  PRO6        0.1536
     40  C        269.2220  177.8600  185.5870 C.2     6  PRO6        0.2599
     41  O        269.1980  176.7020  185.1580 O.2     6  PRO6       -0.2715
     42  CB       271.4390  178.8710  185.0340 C.3     6  PRO6        0.0310
     43  CG       271.8760  180.2440  184.8580 C.3     6  PRO6        0.0237
     44  CD       270.7840  181.1370  185.3110 C.3     6  PRO6        0.0939
     45  N        268.6570  178.1920  186.7370 N.am    7  GLY7       -0.1955
     46  CA       267.9510  177.1790  187.4900 C.3     7  GLY7        0.1869
     47  C        266.4530  177.3150  187.3700 C.2     7  GLY7        0.2309
     48  O        265.7020  176.5540  187.9820 O.2     7  GLY7       -0.2863
     49  N        264.3620  183.1380  176.2100 N.3    22  PHE22      -0.1241
     50  CA       265.0940  182.6340  177.3550 C.3    22  PHE22       0.1605
     51  C        264.1950  182.3900  178.5540 C.2    22  PHE22       0.2264
     52  O        264.6930  182.0830  179.6380 O.2    22  PHE22      -0.2867
     53  CB       266.2100  183.6070  177.6990 C.3    22  PHE22       0.0534
     54  CG       267.2050  183.7760  176.5980 C.ar   22  PHE22      -0.0203
     55  CD1      267.4150  182.7710  175.6790 C.ar   22  PHE22      -0.0042
     56  CD2      267.8970  184.9540  176.4520 C.ar   22  PHE22      -0.0042
     57  CE1      268.3250  182.9280  174.6590 C.ar   22  PHE22      -0.0003
     58  CE2      268.7980  185.1150  175.4340 C.ar   22  PHE22      -0.0003
     59  CZ       269.0110  184.1030  174.5360 C.ar   22  PHE22      -0.0000
     60  N        261.7140  184.6720  179.9920 N.3    24  TRP24      -0.1241
     61  CA       261.5790  185.8240  180.8760 C.3    24  TRP24       0.1605
     62  C        260.1950  186.4420  180.7140 C.2    24  TRP24       0.2264
     63  O        259.9360  187.1710  179.7590 O.2    24  TRP24      -0.2867
     64  CB       262.6960  186.8130  180.5660 C.3    24  TRP24       0.0550
     65  CG       262.5980  188.1420  181.1990 C.ar   24  TRP24       0.0003
     66  CD1      262.3840  189.3130  180.5680 C.ar   24  TRP24       0.0946
     67  CD2      262.7100  188.4460  182.5840 C.ar   24  TRP24       0.0152
     68  NE1      262.3640  190.3410  181.4650 N.ar   24  TRP24      -0.2442
     69  CE2      262.5590  189.8310  182.7170 C.ar   24  TRP24       0.0810
     70  CE3      262.9260  187.6820  183.7260 C.ar   24  TRP24       0.0012
     71  CZ2      262.6110  190.4690  183.9410 C.ar   24  TRP24       0.0191
     72  CZ3      262.9790  188.3170  184.9400 C.ar   24  TRP24       0.0001
     73  CH2      262.8290  189.6990  185.0390 C.ar   24  TRP24       0.0015
     74  N        269.9190  189.8470  170.7480 N.3   150  LYS150     -0.1245
     75  CA       270.8260  189.9270  171.8790 C.3   150  LYS150      0.1561
     76  C        271.7020  191.1710  171.8030 C.2   150  LYS150      0.2260
     77  O        272.1440  191.6820  172.8350 O.2   150  LYS150     -0.2867
     78  CB       271.6640  188.6540  171.9370 C.3   150  LYS150      0.0271
     79  CG       272.4200  188.4730  173.2210 C.3   150  LYS150      0.0035
     80  CD       273.3570  187.2880  173.1410 C.3   150  LYS150      0.0206
     81  CE       272.6190  185.9870  172.9850 C.3   150  LYS150      0.1093
     82  NZ       273.5820  184.8650  172.9200 N.3   150  LYS150     -0.1314
     83  N        268.5830  194.1520  172.5100 N.3   153  ARG153     -0.1245
     84  CA       268.1610  194.0620  173.8970 C.3   153  ARG153      0.1563
     85  C        269.2340  194.5320  174.8520 C.2   153  ARG153      0.2260
     86  O        268.9240  194.9190  175.9790 O.2   153  ARG153     -0.2867
     87  CB       267.7490  192.6250  174.1580 C.3   153  ARG153      0.0307
     88  CG       266.4330  192.3480  173.5170 C.3   153  ARG153      0.0489
     89  CD       266.1940  190.9040  173.2350 C.3   153  ARG153      0.2205
     90  NE       266.3390  190.0370  174.3820 N.pl3 153  ARG153     -0.0865
     91  CZ       266.1820  188.7300  174.3100 C.cat 153  ARG153      0.5346
     92  NH1      265.8590  188.1800  173.1480 N.pl3 153  ARG153      0.1354
     93  NH2      266.3470  187.9710  175.3740 N.pl3 153  ARG153      0.1354
     94  N        268.7630  198.5600  176.5900 N.3   157  LEU157     -0.1245
     95  CA       269.1870  198.6080  177.9760 C.3   157  LEU157      0.1561
     96  C        270.3730  199.5360  178.1450 C.2   157  LEU157      0.2260
     97  O        270.5210  200.1680  179.1930 O.2   157  LEU157     -0.2867
     98  CB       269.5360  197.2020  178.4450 C.3   157  LEU157      0.0270
     99  CG       269.6170  196.9540  179.9410 C.3   157  LEU157      0.0019
    100  CD1      269.2760  195.5140  180.1940 C.3   157  LEU157      0.0001
    101  CD2      270.9760  197.2640  180.4830 C.3   157  LEU157      0.0001
    102  N        285.5340  206.7480  184.7740 N.3   180  HIS180     -0.1241
    103  CA       285.4520  205.6560  185.7350 C.3   180  HIS180      0.1621
    104  C        286.7950  204.9610  185.8940 C.2   180  HIS180      0.2264
    105  O        287.2840  204.7890  187.0130 O.2   180  HIS180     -0.2867
    106  CB       284.3760  204.6650  185.3110 C.3   180  HIS180      0.0745
    107  CG       284.1820  203.5440  186.2770 C.ar  180  HIS180      0.0817
    108  ND1      284.8990  202.3720  186.2070 N.ar  180  HIS180     -0.2268
    109  CD2      283.3830  203.4310  187.3610 C.ar  180  HIS180      0.1154
    110  CE1      284.5280  201.5720  187.1890 C.ar  180  HIS180      0.1986
    111  NE2      283.6060  202.1900  187.9030 N.ar  180  HIS180     -0.2212
@<TRIPOS>BOND
     1    74    75    1
     2    76    75    1
     3    76    77    2
     4    75    78    1
     5    78    79    1
     6    83    84    1
     7    82    81    1
     8    81    80    1
     9    80    79    1
    10    92    91    1
    11    89    88    1
    12    89    90    1
    13    88    87    1
    14    84    87    1
    15    84    85    1
    16    91    90    2
    17    91    93    1
    18    59    57   ar
    19    59    58   ar
    20    57    55   ar
    21    85    86    2
    22    58    56   ar
    23    55    54   ar
    24     6     7    1
    25     6     5    1
    26     7     1    1
    27    49    50    1
    28    56    54   ar
    29    94    95    1
    30    54    53    1
    31     5     2    1
    32     1     2    1
    33    50    53    1
    34    50    51    1
    35     4     3    2
    36    95    96    1
    37    95    98    1
    38     2     3    1
    39    96    97    2
    40    98    99    1
    41     3     8   am
    42    51    52    2
    43     8     9    1
    44    63    62    2
    45    15    13    1
    46    99   100    1
    47    99   101    1
    48    60    61    1
    49     9    10    1
    50     9    12    1
    51    64    61    1
    52    64    65    1
    53    66    65   ar
    54    66    68   ar
    55    62    61    1
    56    10    11    2
    57    10    16   am
    58    13    12    1
    59    13    14    1
    60    16    17    1
    61    65    67   ar
    62    68    69   ar
    63    17    20    1
    64    17    18    1
    65    20    21    1
    66    22    21   ar
    67    22    24   ar
    68    67    69   ar
    69    67    70   ar
    70    21    23   ar
    71    69    71   ar
    72    18    19    2
    73    18    30   am
    74    24    25   ar
    75    70    72   ar
    76    30    31    1
    77    23    25   ar
    78    23    26   ar
    79    71    73   ar
    80    25    27   ar
    81   102   103    1
    82    39    42    1
    83    39    38    1
    84    39    40    1
    85    43    42    1
    86    43    44    1
    87    26    28   ar
    88    33    32    2
    89    72    73   ar
    90    32    31    1
    91    32    38   am
    92    31    34    1
    93    38    44    1
    94    41    40    2
    95   106   103    1
    96   106   107    1
    97    27    29   ar
    98    40    45   am
    99   103   104    1
   100   104   105    2
   101    28    29   ar
   102    34    35    1
   103   108   107   ar
   104   108   110   ar
   105   107   109   ar
   106    45    46    1
   107   110   111   ar
   108   109   111   ar
   109    47    46    1
   110    47    48    2
   111    35    37    1
   112    35    36    1
