@<TRIPOS>MOLECULE
tmp/6igzQ22.pdb
 198 191 0 0 0
SMALL
GASTEIGER

@<TRIPOS>ATOM
      1  N        256.6550  192.7110  167.4430 N.3    41  GLU41      -0.1245
      2  CA       257.1380  193.7670  166.5670 C.3    41  GLU41       0.1567
      3  C        257.8110  194.8660  167.3630 C.2    41  GLU41       0.2260
      4  O        258.8570  195.3820  166.9580 O.2    41  GLU41      -0.2867
      5  CB       255.9890  194.3570  165.7670 C.3    41  GLU41       0.0388
      6  CG       256.4300  195.4110  164.7960 C.3    41  GLU41       0.1160
      7  CD       257.2150  194.8350  163.6500 C.2    41  GLU41       0.3649
      8  OE1      257.1350  193.6090  163.4390 O.co2  41  GLU41      -0.2457
      9  OE2      257.9190  195.6030  162.9640 O.co2  41  GLU41      -0.2457
     10  N        261.4410  194.4720  168.2600 N.3    44  LEU44      -0.1231
     11  CA       262.3030  194.7710  167.1280 C.3    44  LEU44       0.1693
     12  C        262.3640  196.2680  166.8890 C.2    44  LEU44       0.2591
     13  O        263.4480  196.8400  166.7530 O.2    44  LEU44      -0.2718
     14  CB       261.7910  194.0500  165.8900 C.3    44  LEU44       0.0284
     15  CG       261.7540  192.5370  166.0420 C.3    44  LEU44       0.0019
     16  CD1      261.0900  191.9020  164.8470 C.3    44  LEU44       0.0001
     17  CD2      263.1500  192.0000  166.2380 C.3    44  LEU44       0.0001
     18  N        261.2040  196.9220  166.8560 N.am   45  GLN45      -0.1979
     19  CA       261.1550  198.3560  166.6040 C.3    45  GLN45       0.1601
     20  C        261.9520  199.1320  167.6390 C.2    45  GLN45       0.2287
     21  O        262.8510  199.9050  167.2940 O.2    45  GLN45      -0.2864
     22  CB       259.7110  198.8200  166.5830 C.3    45  GLN45       0.0394
     23  CG       258.9850  198.3020  165.4030 C.3    45  GLN45       0.0908
     24  CD       259.5370  198.8870  164.1510 C.2    45  GLN45       0.2608
     25  OE1      260.3670  198.2790  163.4850 O.2    45  GLN45      -0.2717
     26  NE2      259.0850  200.0820  163.8150 N.am   45  GLN45      -0.0878
     27  N        265.6290  198.0940  167.1440 N.3    48  ARG48      -0.1231
     28  CA       266.2970  198.5510  165.9380 C.3    48  ARG48       0.1694
     29  C        266.4470  200.0610  165.8770 C.2    48  ARG48       0.2592
     30  O        267.3370  200.5460  165.1760 O.2    48  ARG48      -0.2718
     31  CB       265.5590  198.0320  164.7160 C.3    48  ARG48       0.0321
     32  CG       265.7170  196.5440  164.5570 C.3    48  ARG48       0.0489
     33  CD       265.0010  196.0410  163.3440 C.3    48  ARG48       0.2205
     34  NE       265.1370  194.6010  163.2090 N.pl3  48  ARG48      -0.0865
     35  CZ       264.4500  193.8810  162.3380 C.cat  48  ARG48       0.5346
     36  NH1      263.5770  194.4730  161.5450 N.pl3  48  ARG48       0.1354
     37  NH2      264.6220  192.5750  162.2700 N.pl3  48  ARG48       0.1354
     38  N        265.6250  200.8230  166.5910 N.am   49  TRP49      -0.1976
     39  CA       265.9300  202.2430  166.6760 C.3    49  TRP49       0.1640
     40  C        267.0280  202.5100  167.6860 C.2    49  TRP49       0.2290
     41  O        267.9120  203.3330  167.4350 O.2    49  TRP49      -0.2864
     42  CB       264.6940  203.0590  167.0290 C.3    49  TRP49       0.0576
     43  CG       263.7370  203.2090  165.9150 C.ar   49  TRP49       0.0006
     44  CD1      262.5670  202.5470  165.7490 C.ar   49  TRP49       0.0946
     45  CD2      263.8860  204.0570  164.7780 C.ar   49  TRP49       0.0152
     46  NE1      261.9590  202.9480  164.5890 N.ar   49  TRP49      -0.2442
     47  CE2      262.7540  203.8760  163.9750 C.ar   49  TRP49       0.0810
     48  CE3      264.8670  204.9590  164.3660 C.ar   49  TRP49       0.0012
     49  CZ2      262.5740  204.5600  162.7860 C.ar   49  TRP49       0.0191
     50  CZ3      264.6840  205.6400  163.1870 C.ar   49  TRP49       0.0001
     51  CH2      263.5500  205.4360  162.4090 C.ar   49  TRP49       0.0015
     52  N        270.6330  201.6550  166.3380 N.3    52  MET52      -0.1245
     53  CA       271.0910  202.7180  165.4660 C.3    52  MET52       0.1570
     54  C        271.2370  204.0260  166.2230 C.2    52  MET52       0.2261
     55  O        272.0170  204.8860  165.8090 O.2    52  MET52      -0.2867
     56  CB       270.1220  202.8620  164.3000 C.3    52  MET52       0.0387
     57  CG       270.5660  203.8070  163.2170 C.3    52  MET52       0.0595
     58  SD       269.4470  203.7220  161.8120 S.3    52  MET52      -0.1393
     59  CE       270.1950  204.9200  160.7210 C.3    52  MET52       0.0692
     60  N        257.9150  209.8580  157.6490 N.3    93  MET93      -0.1245
     61  CA       257.7020  208.7010  158.5020 C.3    93  MET93       0.1570
     62  C        256.2620  208.2210  158.4570 C.2    93  MET93       0.2261
     63  O        256.0030  207.0390  158.6960 O.2    93  MET93      -0.2867
     64  CB       258.0920  209.0530  159.9300 C.3    93  MET93       0.0387
     65  CG       258.2300  207.8670  160.8360 C.3    93  MET93       0.0595
     66  SD       259.6530  206.9010  160.3280 S.3    93  MET93      -0.1393
     67  CE       260.9530  208.0240  160.7940 C.3    93  MET93       0.0692
     68  N        254.1470  207.9430  155.7570 N.3    95  TYR95      -0.1227
     69  CA       254.0850  206.9380  154.7000 C.3    95  TYR95       0.1736
     70  C        254.9380  205.7320  155.0410 C.2    95  TYR95       0.2595
     71  O        254.5020  204.5890  154.8870 O.2    95  TYR95      -0.2718
     72  CB       254.5400  207.5130  153.3620 C.3    95  TYR95       0.0548
     73  CG       254.6820  206.4340  152.3120 C.ar   95  TYR95      -0.0200
     74  CD1      253.5810  205.9450  151.6390 C.ar   95  TYR95      -0.0009
     75  CD2      255.9090  205.8760  152.0270 C.ar   95  TYR95      -0.0009
     76  CE1      253.7070  204.9530  150.7000 C.ar   95  TYR95       0.0417
     77  CE2      256.0380  204.8860  151.0930 C.ar   95  TYR95       0.0417
     78  CZ       254.9380  204.4280  150.4350 C.ar   95  TYR95       0.1957
     79  OH       255.0740  203.4350  149.5020 O.3    95  TYR95      -0.2866
     80  N        256.1720  205.9700  155.4810 N.am   96  VAL96      -0.1980
     81  CA       257.0990  204.8800  155.7570 C.3    96  VAL96       0.1595
     82  C        256.4650  203.8270  156.6460 C.2    96  VAL96       0.2287
     83  O        256.7010  202.6250  156.4810 O.2    96  VAL96      -0.2864
     84  CB       258.3770  205.4360  156.3980 C.3    96  VAL96       0.0276
     85  CG1      259.2240  204.3110  156.9200 C.3    96  VAL96       0.0022
     86  CG2      259.1320  206.2390  155.3840 C.3    96  VAL96       0.0022
     87  N        252.4960  202.3050  156.3620 N.3    99  ARG99      -0.1231
     88  CA       252.6950  201.2650  155.3610 C.3    99  ARG99       0.1694
     89  C        253.1560  199.9650  156.0080 C.2    99  ARG99       0.2591
     90  O        252.5160  198.9200  155.8570 O.2    99  ARG99      -0.2718
     91  CB       253.6950  201.7330  154.3050 C.3    99  ARG99       0.0321
     92  CG       253.8020  200.7940  153.1480 C.3    99  ARG99       0.0489
     93  CD       254.5450  201.3810  151.9810 C.3    99  ARG99       0.2205
     94  NE       254.5700  200.4400  150.8650 N.pl3  99  ARG99      -0.0865
     95  CZ       253.5800  200.2880  149.9910 C.cat  99  ARG99       0.5346
     96  NH1      252.4790  201.0100  150.1030 N.pl3  99  ARG99       0.1354
     97  NH2      253.6820  199.4010  149.0150 N.pl3  99  ARG99       0.1354
     98  N        254.2620  200.0120  156.7500 N.am  100  ARG100     -0.1980
     99  CA       254.7840  198.7850  157.3390 C.3   100  ARG100      0.1597
    100  C        253.8690  198.2600  158.4250 C.2   100  ARG100      0.2287
    101  O        253.7670  197.0470  158.6270 O.2   100  ARG100     -0.2864
    102  CB       256.1720  199.0010  157.9160 C.3   100  ARG100      0.0334
    103  CG       256.2710  200.0640  158.9640 C.3   100  ARG100      0.0492
    104  CD       257.5840  199.9970  159.6910 C.3   100  ARG100      0.2205
    105  NE       257.5950  198.8500  160.5840 N.pl3 100  ARG100     -0.0865
    106  CZ       257.1090  198.8840  161.8160 C.cat 100  ARG100      0.5346
    107  NH1      256.5910  200.0050  162.2900 N.pl3 100  ARG100      0.1354
    108  NH2      257.1440  197.8050  162.5760 N.pl3 100  ARG100      0.1354
    109  N        251.4800  195.7500  157.0920 N.3   103  ASP103     -0.1239
    110  CA       251.9720  194.3990  156.8770 C.3   103  ASP103      0.1674
    111  C        251.9910  193.6080  158.1700 C.2   103  ASP103      0.2266
    112  O        251.9900  192.3780  158.1340 O.2   103  ASP103     -0.2867
    113  CB       253.3680  194.4150  156.2750 C.3   103  ASP103      0.1410
    114  CG       253.7810  193.0580  155.7350 C.2   103  ASP103      0.3668
    115  OD1      252.9190  192.1630  155.6590 O.co2 103  ASP103     -0.2456
    116  OD2      254.9660  192.8750  155.3930 O.co2 103  ASP103     -0.2456
    117  N        251.1510  194.5660  151.1930 N.3   110  VAL110     -0.1231
    118  CA       251.9760  195.7310  150.8990 C.3   110  VAL110      0.1692
    119  C        253.1840  195.4110  150.0240 C.2   110  VAL110      0.2592
    120  O        253.8220  196.3430  149.5070 O.2   110  VAL110     -0.2718
    121  CB       252.4430  196.3800  152.2130 C.3   110  VAL110      0.0266
    122  CG1      253.4250  195.4760  152.8940 C.3   110  VAL110      0.0020
    123  CG2      253.0390  197.7160  151.9660 C.3   110  VAL110      0.0020
    124  N        253.4920  194.1310  149.8040 N.am  111  ASN111     -0.1974
    125  CA       254.7560  193.7470  149.1820 C.3   111  ASN111      0.1688
    126  C        255.0120  194.4360  147.8520 C.2   111  ASN111      0.2292
    127  O        256.1680  194.5390  147.4350 O.2   111  ASN111     -0.2864
    128  CB       254.7960  192.2350  148.9780 C.3   111  ASN111      0.1181
    129  CG       254.8600  191.4880  150.2730 C.2   111  ASN111      0.2629
    130  OD1      254.0640  190.5880  150.5250 O.2   111  ASN111     -0.2716
    131  ND2      255.8240  191.8430  151.1050 N.am  111  ASN111     -0.0877
    132  N        254.7420  200.5820  145.1220 N.3   114  PRO114     -0.2116
    133  CA       253.5260  201.3030  144.7140 C.3   114  PRO114      0.1372
    134  C        253.5540  201.8120  143.2920 C.2   114  PRO114      0.2244
    135  O        252.5270  201.7530  142.6060 O.2   114  PRO114     -0.2868
    136  CB       253.4530  202.4540  145.7190 C.3   114  PRO114      0.0268
    137  CG       254.8320  202.6370  146.1690 C.3   114  PRO114      0.0207
    138  CD       255.3660  201.2440  146.2750 C.3   114  PRO114      0.0892
    139  N        258.3820  192.5430  146.4050 N.3   120  SER120     -0.1217
    140  CA       259.3730  192.4090  147.4610 C.3   120  SER120      0.1889
    141  C        259.8880  190.9830  147.5820 C.2   120  SER120      0.2288
    142  O        261.0670  190.7070  147.3440 O.2   120  SER120     -0.2866
    143  CB       258.7980  192.8610  148.7970 C.3   120  SER120      0.2089
    144  OG       259.7660  192.7120  149.8160 O.3   120  SER120     -0.2183
    145  N        256.9240  185.9840  154.1720 N.3   124  HIS124     -0.1241
    146  CA       257.9850  185.8960  155.1710 C.3   124  HIS124      0.1621
    147  C        257.4940  186.1540  156.5900 C.2   124  HIS124      0.2264
    148  O        256.3910  185.7490  156.9620 O.2   124  HIS124     -0.2867
    149  CB       259.1470  186.8480  154.8370 C.3   124  HIS124      0.0745
    150  CG       258.7620  188.2920  154.7320 C.ar  124  HIS124      0.0817
    151  ND1      258.2390  188.8450  153.5830 N.ar  124  HIS124     -0.2268
    152  CD2      258.8100  189.2950  155.6400 C.ar  124  HIS124      0.1154
    153  CE1      257.9920  190.1270  153.7850 C.ar  124  HIS124      0.1986
    154  NE2      258.3260  190.4240  155.0270 N.ar  124  HIS124     -0.2212
    155  N        256.5120  188.8830  159.5250 N.3   126  PRO126     -0.2102
    156  CA       256.0480  190.2790  159.5160 C.3   126  PRO126      0.1504
    157  C        257.0950  191.2950  159.9400 C.2   126  PRO126      0.2576
    158  O        257.0910  192.4190  159.4240 O.2   126  PRO126     -0.2718
    159  CB       254.8680  190.2450  160.4910 C.3   126  PRO126      0.0282
    160  CG       254.3700  188.8670  160.4080 C.3   126  PRO126      0.0208
    161  CD       255.5810  188.0040  160.2450 C.3   126  PRO126      0.0893
    162  N        258.0030  190.9370  160.8420 N.am  127  GLY127     -0.1957
    163  CA       259.0020  191.8780  161.3040 C.3   127  GLY127      0.1869
    164  C        260.3830  191.6890  160.7120 C.2   127  GLY127      0.2309
    165  O        261.3680  192.1520  161.2870 O.2   127  GLY127     -0.2863
    166  N        261.3400  192.0250  156.8710 N.3   129  PRO129     -0.2116
    167  CA       261.1090  192.1330  155.4230 C.3   129  PRO129      0.1372
    168  C        262.3450  191.7330  154.6310 C.2   129  PRO129      0.2244
    169  O        263.4020  192.3470  154.7430 O.2   129  PRO129     -0.2868
    170  CB       260.7830  193.6140  155.2350 C.3   129  PRO129      0.0268
    171  CG       260.3100  194.0600  156.5640 C.3   129  PRO129      0.0207
    172  CD       261.1290  193.3070  157.5520 C.3   129  PRO129      0.0892
    173  N        264.6560  193.3450  149.1500 N.3   132  ILE132     -0.1231
    174  CA       265.3770  194.5970  148.9660 C.3   132  ILE132      0.1692
    175  C        265.9270  195.1330  150.2800 C.2   132  ILE132      0.2592
    176  O        266.9370  195.8470  150.2880 O.2   132  ILE132     -0.2718
    177  CB       264.4570  195.6220  148.2770 C.3   132  ILE132      0.0266
    178  CG1      265.2400  196.8690  147.8720 C.3   132  ILE132      0.0019
    179  CG2      263.3110  195.9960  149.1890 C.3   132  ILE132      0.0020
    180  CD1      264.4890  197.7710  146.9110 C.3   132  ILE132      0.0001
    181  N        265.2980  194.8050  151.4070 N.am  133  PHE133     -0.1976
    182  CA       265.8250  195.2940  152.6750 C.3   133  PHE133      0.1639
    183  C        267.0410  194.5210  153.1520 C.2   133  PHE133      0.2290
    184  O        267.9240  195.1170  153.7730 O.2   133  PHE133     -0.2864
    185  CB       264.7590  195.2720  153.7710 C.3   133  PHE133      0.0560
    186  CG       263.6810  196.2930  153.5820 C.ar  133  PHE133     -0.0200
    187  CD1      263.9200  197.6200  153.8700 C.ar  133  PHE133     -0.0042
    188  CD2      262.4270  195.9260  153.1490 C.ar  133  PHE133     -0.0042
    189  CE1      262.9410  198.5620  153.6990 C.ar  133  PHE133     -0.0003
    190  CE2      261.4430  196.8680  152.9820 C.ar  133  PHE133     -0.0003
    191  CZ       261.7020  198.1870  153.2580 C.ar  133  PHE133     -0.0000
    192  N        269.5860  192.5130  151.2570 N.3   135  PRO135     -0.2116
    193  CA       270.3330  191.8800  150.1620 C.3   135  PRO135      0.1372
    194  C        271.5780  191.1300  150.6090 C.2   135  PRO135      0.2244
    195  O        271.8270  190.0190  150.1260 O.2   135  PRO135     -0.2868
    196  CB       270.6780  193.0670  149.2570 C.3   135  PRO135      0.0268
    197  CG       270.7180  194.2180  150.1680 C.3   135  PRO135      0.0207
    198  CD       269.6560  193.9800  151.1840 C.3   135  PRO135      0.0892
@<TRIPOS>BOND
     1   135   134    2
     2   134   133    1
     3   133   132    1
     4   133   136    1
     5   132   138    1
     6   136   137    1
     7   137   138    1
     8   139   140    1
     9   180   178    1
    10   142   141    2
    11   127   126    2
    12   140   141    1
    13   140   143    1
    14   126   125    1
    15   178   177    1
    16   177   174    1
    17   177   179    1
    18   143   144    1
    19   174   173    1
    20   174   175    1
    21   128   125    1
    22   128   129    1
    23    97    95    1
    24   125   124    1
    25   196   193    1
    26   196   197    1
    27    79    78    1
    28   120   119    2
    29   124   119   am
    30    95    96    1
    31    95    94    2
    32   119   118    1
    33   195   194    2
    34   193   194    1
    35   193   192    1
    36   197   198    1
    37   129   130    2
    38   129   131   am
    39   175   176    2
    40   175   181   am
    41    78    76   ar
    42    78    77   ar
    43    76    74   ar
    44    94    93    1
    45   118   117    1
    46   118   121    1
    47    77    75   ar
    48   198   192    1
    49   181   182    1
    50    74    73   ar
    51   123   121    1
    52    93    92    1
    53    75    73   ar
    54   121   122    1
    55    73    72    1
    56   182   183    1
    57   182   185    1
    58   190   188   ar
    59   190   191   ar
    60    92    91    1
    61   188   186   ar
    62   183   184    2
    63   191   189   ar
    64    72    69    1
    65   186   185    1
    66   186   187   ar
    67   151   153   ar
    68   151   150   ar
    69   189   187   ar
    70   153   154   ar
    71   145   146    1
    72    91    88    1
    73   168   169    2
    74   168   167    1
    75    69    70    1
    76    69    68    1
    77   150   149    1
    78   150   152   ar
    79   149   146    1
    80    71    70    2
    81   154   152   ar
    82    70    80   am
    83   146   147    1
    84   170   167    1
    85   170   171    1
    86    88    89    1
    87    88    87    1
    88    86    84    1
    89   116   114   ar
    90   167   166    1
    91    80    81    1
    92   115   114   ar
    93   114   113    1
    94    81    84    1
    95    81    82    1
    96    90    89    2
    97    89    98   am
    98   113   110    1
    99    84    85    1
   100    83    82    2
   101   171   172    1
   102   147   148    2
   103    98    99    1
   104   166   172    1
   105   110   109    1
   106   110   111    1
   107    99   102    1
   108    99   100    1
   109    60    61    1
   110   102   103    1
   111   112   111    2
   112   100   101    2
   113    62    61    1
   114    62    63    2
   115    61    64    1
   116   103   104    1
   117   158   157    2
   118   156   155    1
   119   156   157    1
   120   156   159    1
   121   155   161    1
   122   104   105    1
   123    64    65    1
   124   157   162   am
   125   161   160    1
   126    66    67    1
   127    66    65    1
   128   160   159    1
   129   105   106    2
   130   164   165    2
   131   164   163    1
   132    59    58    1
   133   162   163    1
   134    36    35    1
   135    58    57    1
   136   106   107    1
   137   106   108    1
   138    37    35    1
   139    35    34    2
   140    51    49   ar
   141    51    50   ar
   142    49    47   ar
   143     9     7   ar
   144    50    48   ar
   145    34    33    1
   146    57    56    1
   147    33    32    1
   148     8     7   ar
   149    25    24    2
   150     7     6    1
   151    26    24   am
   152    47    46   ar
   153    47    45   ar
   154    24    23    1
   155    56    53    1
   156    48    45   ar
   157    32    31    1
   158    46    44   ar
   159    31    28    1
   160    45    43   ar
   161     6     5    1
   162    16    15    1
   163    30    29    2
   164    23    22    1
   165    53    54    1
   166    53    52    1
   167    44    43   ar
   168     5     2    1
   169    55    54    2
   170    29    28    1
   171    29    38   am
   172    14    15    1
   173    14    11    1
   174    43    42    1
   175    28    27    1
   176    15    17    1
   177     2     3    1
   178     2     1    1
   179    22    19    1
   180    38    39    1
   181    19    18    1
   182    19    20    1
   183    39    42    1
   184    39    40    1
   185    13    12    2
   186    18    12   am
   187    12    11    1
   188     4     3    2
   189    11    10    1
   190    21    20    2
   191    41    40    2
