@<TRIPOS>MOLECULE
tmp/6igzV07.pdb
 182 177 0 0 0
SMALL
GASTEIGER

@<TRIPOS>ATOM
      1  N        118.1500  223.4160  242.7090 N.3     4  TRP4       -0.1241
      2  CA       119.0350  224.5480  242.3800 C.3     4  TRP4        0.1605
      3  C        119.1290  224.8110  240.8800 C.2     4  TRP4        0.2264
      4  O        120.0320  225.5250  240.4300 O.2     4  TRP4       -0.2867
      5  CB       120.4460  224.3930  242.9760 C.3     4  TRP4        0.0550
      6  CG       121.3180  223.3180  242.3910 C.ar    4  TRP4        0.0003
      7  CD1      121.3290  222.0020  242.7300 C.ar    4  TRP4        0.0946
      8  CD2      122.3500  223.4840  241.4090 C.ar    4  TRP4        0.0152
      9  NE1      122.2700  221.3270  241.9940 N.ar    4  TRP4       -0.2442
     10  CE2      122.9150  222.2190  241.1790 C.ar    4  TRP4        0.0810
     11  CE3      122.8420  224.5760  240.6950 C.ar    4  TRP4        0.0012
     12  CZ2      123.9450  222.0150  240.2650 C.ar    4  TRP4        0.0191
     13  CZ3      123.8630  224.3710  239.7880 C.ar    4  TRP4        0.0001
     14  CH2      124.4060  223.1030  239.5850 C.ar    4  TRP4        0.0015
     15  N        123.9830  212.6570  245.1640 N.3    14  LEU14      -0.1245
     16  CA       122.8730  213.3460  245.8080 C.3    14  LEU14       0.1561
     17  C        121.6200  213.0940  244.9750 C.2    14  LEU14       0.2260
     18  O        121.4260  213.7200  243.9280 O.2    14  LEU14      -0.2867
     19  CB       123.1900  214.8310  245.9250 C.3    14  LEU14       0.0270
     20  CG       124.4000  215.1860  246.7960 C.3    14  LEU14       0.0019
     21  CD1      124.7570  216.6470  246.6440 C.3    14  LEU14       0.0001
     22  CD2      124.1250  214.8610  248.2560 C.3    14  LEU14       0.0001
     23  N        116.8990  217.8930  252.8570 N.3    20  GLY20      -0.1210
     24  CA       117.4210  219.1350  252.3450 C.3    20  GLY20       0.1956
     25  C        118.1520  219.0360  251.0310 C.2    20  GLY20       0.2612
     26  O        118.6060  220.0670  250.5210 O.2    20  GLY20      -0.2717
     27  N        118.2450  217.8540  250.4340 N.am   21  ASP21      -0.1959
     28  CA       119.1150  217.6870  249.2810 C.3    21  ASP21       0.1840
     29  C        118.4860  218.2980  248.0390 C.2    21  ASP21       0.2622
     30  O        117.4270  217.8560  247.5830 O.2    21  ASP21      -0.2715
     31  CB       119.4220  216.2170  249.0280 C.3    21  ASP21       0.1450
     32  CG       120.2110  216.0160  247.7560 C.2    21  ASP21       0.3671
     33  OD1      121.3620  216.4820  247.6990 O.co2  21  ASP21      -0.2456
     34  OD2      119.6790  215.4210  246.8000 O.co2  21  ASP21      -0.2456
     35  N        119.1520  219.3060  247.4900 N.am   22  TYR22      -0.1960
     36  CA       118.8820  219.8160  246.1580 C.3    22  TYR22       0.1771
     37  C        119.8190  219.2220  245.1220 C.2    22  TYR22       0.2620
     38  O        119.8450  219.6870  243.9840 O.2    22  TYR22      -0.2715
     39  CB       118.9710  221.3380  246.1470 C.3    22  TYR22       0.0574
     40  CG       117.8740  221.9910  246.9440 C.ar   22  TYR22      -0.0198
     41  CD1      116.5740  221.5220  246.8730 C.ar   22  TYR22      -0.0009
     42  CD2      118.1370  223.0630  247.7750 C.ar   22  TYR22      -0.0009
     43  CE1      115.5670  222.1110  247.5990 C.ar   22  TYR22       0.0417
     44  CE2      117.1410  223.6550  248.5030 C.ar   22  TYR22       0.0417
     45  CZ       115.8560  223.1810  248.4130 C.ar   22  TYR22       0.1957
     46  OH       114.8520  223.7750  249.1450 O.3    22  TYR22      -0.2866
     47  N        120.6370  218.2540  245.5080 N.am   23  GLY23      -0.1940
     48  CA       121.5150  217.6270  244.5490 C.3    23  GLY23       0.2014
     49  C        122.5100  218.6000  243.9640 C.2    23  GLY23       0.2639
     50  O        122.5840  218.7650  242.7440 O.2    23  GLY23      -0.2714
     51  N        123.2660  219.2710  244.8250 N.am   24  TYR24      -0.1959
     52  CA       124.3470  220.1390  244.3820 C.3    24  TYR24       0.1771
     53  C        125.6520  219.6150  244.9630 C.2    24  TYR24       0.2620
     54  O        125.8820  219.7100  246.1730 O.2    24  TYR24      -0.2715
     55  CB       124.0970  221.5870  244.7870 C.3    24  TYR24       0.0574
     56  CG       125.2220  222.4970  244.3880 C.ar   24  TYR24      -0.0198
     57  CD1      125.5170  222.7010  243.0530 C.ar   24  TYR24      -0.0009
     58  CD2      125.9530  223.1930  245.3310 C.ar   24  TYR24      -0.0009
     59  CE1      126.5320  223.5330  242.6650 C.ar   24  TYR24       0.0417
     60  CE2      126.9690  224.0400  244.9490 C.ar   24  TYR24       0.0417
     61  CZ       127.2540  224.2040  243.6160 C.ar   24  TYR24       0.1957
     62  OH       128.2670  225.0430  243.2250 O.3    24  TYR24      -0.2866
     63  N        126.5020  219.0710  244.0960 N.am   25  ASP25      -0.1958
     64  CA       127.7960  218.5180  244.4910 C.3    25  ASP25       0.1825
     65  C        128.7970  218.8890  243.4160 C.2    25  ASP25       0.2464
     66  O        129.1530  218.0720  242.5590 O.2    25  ASP25      -0.2730
     67  CB       127.7200  217.0030  244.6840 C.3    25  ASP25       0.1450
     68  CG       129.0090  216.4170  245.2240 C.2    25  ASP25       0.3671
     69  OD1      129.9430  217.1840  245.5430 O.co2  25  ASP25      -0.2456
     70  OD2      129.0860  215.1780  245.3190 O.co2  25  ASP25      -0.2456
     71  N        129.2680  220.1310  243.4220 N.am   26  PRO26      -0.2715
     72  CA       130.2110  220.5480  242.3740 C.3    26  PRO26       0.1536
     73  C        131.5170  219.7710  242.3800 C.2    26  PRO26       0.2598
     74  O        131.9580  219.2950  241.3270 O.2    26  PRO26      -0.2715
     75  CB       130.4210  222.0340  242.6870 C.3    26  PRO26       0.0310
     76  CG       130.1500  222.1420  244.1500 C.3    26  PRO26       0.0237
     77  CD       129.0350  221.1860  244.4170 C.3    26  PRO26       0.0939
     78  N        132.1360  219.6040  243.5470 N.am   27  LEU27      -0.1978
     79  CA       133.5120  219.1370  243.6360 C.3    27  LEU27       0.1596
     80  C        133.6360  217.6320  243.8330 C.2    27  LEU27       0.2287
     81  O        134.7480  217.1500  244.0720 O.2    27  LEU27      -0.2864
     82  CB       134.2450  219.8610  244.7670 C.3    27  LEU27       0.0297
     83  CG       134.3880  221.3760  244.6240 C.3    27  LEU27       0.0022
     84  CD1      135.0990  221.9420  245.8410 C.3    27  LEU27       0.0001
     85  CD2      135.1100  221.7560  243.3440 C.3    27  LEU27       0.0001
     86  N        132.6940  216.0810  246.3780 N.3    29  LEU29      -0.1231
     87  CA       132.8800  215.8050  247.7960 C.3    29  LEU29       0.1693
     88  C        131.6630  215.1270  248.4060 C.2    29  LEU29       0.2592
     89  O        131.7940  214.4090  249.4020 O.2    29  LEU29      -0.2718
     90  CB       133.1910  217.0970  248.5490 C.3    29  LEU29       0.0284
     91  CG       134.5290  217.7130  248.1710 C.3    29  LEU29       0.0019
     92  CD1      134.7120  219.0580  248.8400 C.3    29  LEU29       0.0001
     93  CD2      135.6360  216.7570  248.5620 C.3    29  LEU29       0.0001
     94  N        130.4860  215.3180  247.8190 N.am   30  GLY30      -0.1957
     95  CA       129.2910  214.6830  248.3310 C.3    30  GLY30       0.1869
     96  C        129.3050  213.1950  248.0710 C.2    30  GLY30       0.2309
     97  O        128.3190  212.4970  248.3210 O.2    30  GLY30      -0.2863
     98  N        129.2750  210.2400  253.7340 N.3    36  LEU36      -0.1245
     99  CA       128.6620  211.5090  253.3580 C.3    36  LEU36       0.1561
    100  C        127.8770  212.0850  254.5270 C.2    36  LEU36       0.2260
    101  O        128.1610  213.2040  254.9540 O.2    36  LEU36      -0.2867
    102  CB       127.7940  211.3630  252.0960 C.3    36  LEU36       0.0270
    103  CG       126.4820  210.5810  251.9960 C.3    36  LEU36       0.0019
    104  CD1      125.2850  211.4330  252.4050 C.3    36  LEU36       0.0001
    105  CD2      126.2900  210.0450  250.5900 C.3    36  LEU36       0.0001
    106  N        129.0440  214.5440  256.6980 N.3    39  PHE39      -0.1227
    107  CA       128.9500  215.9420  256.2870 C.3    39  PHE39       0.1736
    108  C        127.6340  216.5610  256.7260 C.2    39  PHE39       0.2595
    109  O        127.5910  217.7500  257.0600 O.2    39  PHE39      -0.2718
    110  CB       129.0860  216.0770  254.7700 C.3    39  PHE39       0.0547
    111  CG       130.4280  215.6870  254.2370 C.ar   39  PHE39      -0.0202
    112  CD1      131.4780  216.5820  254.2540 C.ar   39  PHE39      -0.0042
    113  CD2      130.6330  214.4380  253.6930 C.ar   39  PHE39      -0.0042
    114  CE1      132.7120  216.2340  253.7540 C.ar   39  PHE39      -0.0003
    115  CE2      131.8660  214.0820  253.1900 C.ar   39  PHE39      -0.0003
    116  CZ       132.9070  214.9830  253.2200 C.ar   39  PHE39      -0.0000
    117  N        126.5530  215.7780  256.7230 N.am   40  ARG40      -0.1980
    118  CA       125.2500  216.3090  257.1000 C.3    40  ARG40       0.1597
    119  C        125.2900  216.9180  258.4910 C.2    40  ARG40       0.2287
    120  O        124.9500  218.0900  258.6780 O.2    40  ARG40      -0.2864
    121  CB       124.1910  215.2140  257.0260 C.3    40  ARG40       0.0334
    122  CG       122.8270  215.7070  257.4310 C.3    40  ARG40       0.0492
    123  CD       122.3870  216.8070  256.5080 C.3    40  ARG40       0.2205
    124  NE       122.1590  216.3290  255.1530 N.pl3  40  ARG40      -0.0865
    125  CZ       121.8810  217.1250  254.1320 C.cat  40  ARG40       0.5346
    126  NH1      121.6780  216.6180  252.9260 N.pl3  40  ARG40       0.1354
    127  NH2      121.8140  218.4300  254.3210 N.pl3  40  ARG40       0.1354
    128  N        128.0750  217.6130  260.0610 N.3    42  ALA42      -0.1231
    129  CA       129.0630  218.6710  259.8890 C.3    42  ALA42       0.1694
    130  C        128.4280  219.9150  259.2890 C.2    42  ALA42       0.2591
    131  O        128.7070  221.0360  259.7250 O.2    42  ALA42      -0.2718
    132  CB       130.2150  218.1760  259.0170 C.3    42  ALA42       0.0304
    133  N        127.5650  219.7340  258.2870 N.am   43  GLU43      -0.1979
    134  CA       126.6970  220.8200  257.8480 C.3    43  GLU43       0.1602
    135  C        125.7590  221.2450  258.9610 C.2    43  GLU43       0.2287
    136  O        125.6130  222.4390  259.2440 O.2    43  GLU43      -0.2864
    137  CB       125.8850  220.3840  256.6300 C.3    43  GLU43       0.0415
    138  CG       124.9590  221.4480  256.0620 C.3    43  GLU43       0.1163
    139  CD       124.2040  220.9710  254.8330 C.2    43  GLU43       0.3649
    140  OE1      124.3190  219.7860  254.4720 O.co2  43  GLU43      -0.2457
    141  OE2      123.4990  221.7900  254.2160 O.co2  43  GLU43      -0.2457
    142  N        127.5110  222.8680  261.9920 N.3    46  ASN46      -0.1240
    143  CA       127.7810  224.1910  261.4490 C.3    46  ASN46       0.1653
    144  C        126.4840  224.9650  261.3250 C.2    46  ASN46       0.2266
    145  O        126.3260  226.0250  261.9320 O.2    46  ASN46      -0.2867
    146  CB       128.4910  224.1030  260.0960 C.3    46  ASN46       0.1155
    147  CG       129.9660  223.7680  260.2200 C.2    46  ASN46       0.2627
    148  OD1      130.5930  224.0370  261.2430 O.2    46  ASN46      -0.2716
    149  ND2      130.5280  223.1860  259.1700 N.am   46  ASN46      -0.0877
    150  N        120.7080  226.8310  257.0950 N.3   136  ARG136     -0.1245
    151  CA       121.5010  227.0260  255.8850 C.3   136  ARG136      0.1563
    152  C        121.3320  228.4260  255.3250 C.2   136  ARG136      0.2260
    153  O        122.2930  229.0330  254.8460 O.2   136  ARG136     -0.2867
    154  CB       121.0830  225.9920  254.8390 C.3   136  ARG136      0.0307
    155  CG       121.7310  224.6490  255.0200 C.3   136  ARG136      0.0489
    156  CD       120.9000  223.5560  254.3850 C.3   136  ARG136      0.2205
    157  NE       120.6170  223.6760  252.9680 N.pl3 136  ARG136     -0.0865
    158  CZ       121.3660  223.1560  252.0130 C.cat 136  ARG136      0.5346
    159  NH1      122.4530  222.4720  252.3150 N.pl3 136  ARG136      0.1354
    160  NH2      121.0210  223.3010  250.7500 N.pl3 136  ARG136      0.1354
    161  N        123.1140  230.6880  257.4820 N.3   139  MET139     -0.1230
    162  CA       124.5360  230.5000  257.2300 C.3   139  MET139      0.1702
    163  C        125.0530  231.5290  256.2380 C.2   139  MET139      0.2592
    164  O        126.1290  232.1040  256.4280 O.2   139  MET139     -0.2718
    165  CB       124.7930  229.1010  256.6850 C.3   139  MET139      0.0401
    166  CG       126.2490  228.8020  256.5170 C.3   139  MET139      0.0596
    167  SD       126.9970  228.4110  258.0810 S.3   139  MET139     -0.1393
    168  CE       126.3940  226.7370  258.2400 C.3   139  MET139      0.0692
    169  N        124.2920  231.7760  255.1730 N.am  140  VAL140     -0.1980
    170  CA       124.7720  232.6270  254.0930 C.3   140  VAL140      0.1595
    171  C        124.8040  234.0860  254.5290 C.2   140  VAL140      0.2287
    172  O        125.7300  234.8310  254.1870 O.2   140  VAL140     -0.2864
    173  CB       123.9010  232.4170  252.8450 C.3   140  VAL140      0.0276
    174  CG1      124.3430  233.3280  251.7210 C.3   140  VAL140      0.0022
    175  CG2      123.9690  230.9730  252.4140 C.3   140  VAL140      0.0022
    176  N        127.9440  235.1080  256.5750 N.3   143  VAL143     -0.1245
    177  CA       129.0490  235.6210  255.7760 C.3   143  VAL143      0.1561
    178  C        128.8870  237.1150  255.5600 C.2   143  VAL143      0.2260
    179  O        129.8470  237.8830  255.6760 O.2   143  VAL143     -0.2867
    180  CB       129.1360  234.8660  254.4370 C.3   143  VAL143      0.0252
    181  CG1      130.2160  235.4630  253.5670 C.3   143  VAL143      0.0019
    182  CG2      129.3980  233.3920  254.6770 C.3   143  VAL143      0.0019
@<TRIPOS>BOND
     1    14    13   ar
     2    14    12   ar
     3    13    11   ar
     4    12    10   ar
     5     4     3    2
     6    11     8   ar
     7     3     2    1
     8    10     8   ar
     9    10     9   ar
    10    74    73    2
    11     8     6   ar
    12     9     7   ar
    13    72    73    1
    14    72    75    1
    15    72    71    1
    16     2     1    1
    17     2     5    1
    18    73    78   am
    19     6     7   ar
    20     6     5    1
    21    66    65    2
    22    59    57   ar
    23    59    61   ar
    24    75    76    1
    25    50    49    2
    26    57    56   ar
    27    62    61    1
    28    85    83    1
    29    65    71   am
    30    65    64    1
    31    71    77    1
    32    78    79    1
    33    61    60   ar
    34    79    80    1
    35    79    82    1
    36    80    81    2
    37    18    17    2
    38    49    48    1
    39    49    51   am
    40    38    37    2
    41    63    64    1
    42    63    53   am
    43    76    77    1
    44    52    55    1
    45    52    51    1
    46    52    53    1
    47    56    55    1
    48    56    58   ar
    49    64    67    1
    50    48    47    1
    51    83    82    1
    52    83    84    1
    53    67    68    1
    54    60    58   ar
    55    53    54    2
    56    17    16    1
    57    37    47   am
    58    37    36    1
    59    15    16    1
    60    68    70   ar
    61    68    69   ar
    62    16    19    1
    63    19    20    1
    64    39    36    1
    65    39    40    1
    66    36    35    1
    67    86    87    1
    68    21    20    1
    69    20    22    1
    70    34    32   ar
    71    41    40   ar
    72    41    43   ar
    73    40    42   ar
    74    35    29   am
    75    30    29    2
    76    43    45   ar
    77    33    32   ar
    78    32    31    1
    79    42    44   ar
    80    87    88    1
    81    87    90    1
    82    94    95    1
    83    94    88   am
    84    29    28    1
    85    96    97    2
    86    96    95    1
    87    91    90    1
    88    91    93    1
    89    91    92    1
    90    88    89    2
    91    45    44   ar
    92    45    46    1
    93    31    28    1
    94    28    27    1
    95    27    25   am
    96    26    25    2
    97   105   103    1
    98   160   158    1
    99    25    24    1
   100   174   173    1
   101   103   102    1
   102   103   104    1
   103   158   159    1
   104   158   157    2
   105   102    99    1
   106    24    23    1
   107   175   173    1
   108   173   170    1
   109   126   125    1
   110   157   156    1
   111   115   116   ar
   112   115   113   ar
   113   116   114   ar
   114    99    98    1
   115    99   100    1
   116   181   180    1
   117   113   111   ar
   118   114   112   ar
   119   170   171    1
   120   170   169    1
   121   125   127    1
   122   125   124    2
   123   172   171    2
   124   141   139   ar
   125   111   112   ar
   126   111   110    1
   127   156   155    1
   128   180   182    1
   129   180   177    1
   130   140   139   ar
   131   100   101    2
   132   110   107    1
   133   139   138    1
   134   154   155    1
   135   154   151    1
   136   153   152    2
   137   124   123    1
   138   169   163   am
   139   152   151    1
   140   178   179    2
   141   178   177    1
   142   177   176    1
   143   151   150    1
   144   138   137    1
   145   163   164    2
   146   163   162    1
   147   107   106    1
   148   107   108    1
   149   123   122    1
   150   166   165    1
   151   166   167    1
   152   137   134    1
   153   165   162    1
   154   117   108   am
   155   117   118    1
   156   108   109    2
   157   121   118    1
   158   121   122    1
   159   118   119    1
   160   162   161    1
   161   134   133    1
   162   134   135    1
   163   167   168    1
   164   133   130   am
   165   119   120    2
   166   135   136    2
   167   132   129    1
   168   149   147   am
   169   130   131    2
   170   130   129    1
   171   129   128    1
   172   146   147    1
   173   146   143    1
   174   147   148    2
   175   144   143    1
   176   144   145    2
   177   143   142    1
