@<TRIPOS>MOLECULE
tmp/6igzR13.pdb
 90 89 0 0 0
SMALL
GASTEIGER

@<TRIPOS>ATOM
      1  N        194.4740  250.9760  137.2140 N.3    69  TRP69      -0.1227
      2  CA       193.2340  250.4660  137.7870 C.3    69  TRP69       0.1737
      3  C        192.9550  251.1050  139.1380 C.2    69  TRP69       0.2595
      4  O        191.9670  251.8270  139.2690 O.2    69  TRP69      -0.2718
      5  CB       193.2220  248.9440  137.8590 C.3    69  TRP69       0.0564
      6  CG       194.2800  248.3040  138.6400 C.ar   69  TRP69       0.0003
      7  CD1      194.2130  247.8960  139.9370 C.ar   69  TRP69       0.0946
      8  CD2      195.5660  247.9380  138.1680 C.ar   69  TRP69       0.0152
      9  NE1      195.3920  247.3060  140.3070 N.ar   69  TRP69      -0.2442
     10  CE2      196.2410  247.3220  139.2330 C.ar   69  TRP69       0.0810
     11  CE3      196.2180  248.0770  136.9450 C.ar   69  TRP69       0.0012
     12  CZ2      197.5280  246.8450  139.1130 C.ar   69  TRP69       0.0191
     13  CZ3      197.4970  247.6080  136.8290 C.ar   69  TRP69       0.0001
     14  CH2      198.1450  247.0010  137.9070 C.ar   69  TRP69       0.0015
     15  N        193.8110  250.8730  140.1400 N.am   70  HIS70      -0.1975
     16  CA       193.6040  251.5180  141.4340 C.3    70  HIS70       0.1656
     17  C        193.4830  253.0230  141.3200 C.2    70  HIS70       0.2291
     18  O        192.9880  253.6670  142.2510 O.2    70  HIS70      -0.2864
     19  CB       194.7270  251.2030  142.4210 C.3    70  HIS70       0.0771
     20  CG       194.6280  249.8460  143.0370 C.ar   70  HIS70       0.0820
     21  ND1      195.6380  249.2980  143.7960 N.ar   70  HIS70      -0.2267
     22  CD2      193.6260  248.9370  143.0300 C.ar   70  HIS70       0.1154
     23  CE1      195.2730  248.0990  144.2130 C.ar   70  HIS70       0.1986
     24  NE2      194.0540  247.8570  143.7640 N.ar   70  HIS70      -0.2212
     25  N        189.0090  253.9510  140.5980 N.3    73  PRO73      -0.2102
     26  CA       187.9900  254.2810  141.6090 C.3    73  PRO73       0.1504
     27  C        188.2990  255.5440  142.3930 C.2    73  PRO73       0.2576
     28  O        187.3940  256.3490  142.6440 O.2    73  PRO73      -0.2718
     29  CB       187.9860  253.0400  142.5130 C.3    73  PRO73       0.0282
     30  CG       188.5140  251.9610  141.6740 C.3    73  PRO73       0.0208
     31  CD       189.5800  252.6220  140.8630 C.3    73  PRO73       0.0893
     32  N        189.5540  255.7440  142.7960 N.am   74  SER74      -0.1953
     33  CA       189.8580  256.8710  143.6690 C.3    74  SER74       0.1924
     34  C        189.9130  258.1880  142.9070 C.2    74  SER74       0.2314
     35  O        189.6040  259.2390  143.4800 O.2    74  SER74      -0.2863
     36  CB       191.1690  256.6310  144.4120 C.3    74  SER74       0.2116
     37  OG       191.4330  257.6970  145.3060 O.3    74  SER74      -0.2180
     38  N        186.6010  258.5330  143.1260 N.3    77  TYR77      -0.1241
     39  CA       186.0860  258.5940  144.4880 C.3    77  TYR77       0.1605
     40  C        185.7290  260.0250  144.8460 C.2    77  TYR77       0.2264
     41  O        184.6800  260.2880  145.4440 O.2    77  TYR77      -0.2867
     42  CB       187.0900  258.0460  145.4950 C.3    77  TYR77       0.0534
     43  CG       186.5640  258.1560  146.9060 C.ar   77  TYR77      -0.0201
     44  CD1      185.6330  257.2450  147.3850 C.ar   77  TYR77      -0.0009
     45  CD2      186.9620  259.1850  147.7420 C.ar   77  TYR77      -0.0009
     46  CE1      185.1330  257.3380  148.6570 C.ar   77  TYR77       0.0417
     47  CE2      186.4630  259.2900  149.0190 C.ar   77  TYR77       0.0417
     48  CZ       185.5470  258.3600  149.4720 C.ar   77  TYR77       0.1957
     49  OH       185.0390  258.4470  150.7490 O.3    77  TYR77      -0.2866
     50  N        178.2080  256.1830  144.3900 N.3    94  ILE94      -0.1245
     51  CA       178.8240  254.9070  144.7600 C.3    94  ILE94       0.1561
     52  C        177.8090  253.9520  145.3690 C.2    94  ILE94       0.2260
     53  O        177.7580  252.7700  145.0120 O.2    94  ILE94      -0.2867
     54  CB       180.0170  255.1360  145.7070 C.3    94  ILE94       0.0252
     55  CG1      180.6960  253.8050  146.0290 C.3    94  ILE94       0.0019
     56  CG2      179.5920  255.8540  146.9860 C.3    94  ILE94       0.0019
     57  CD1      182.0140  253.9510  146.7460 C.3    94  ILE94       0.0001
     58  N        175.4960  253.2250  142.6240 N.3    97  LEU97      -0.1231
     59  CA       176.1980  252.5660  141.5290 C.3    97  LEU97       0.1693
     60  C        176.3000  251.0650  141.7710 C.2    97  LEU97       0.2591
     61  O        175.9590  250.2580  140.9000 O.2    97  LEU97      -0.2718
     62  CB       177.5820  253.1920  141.3750 C.3    97  LEU97       0.0284
     63  CG       178.4460  252.9160  140.1500 C.3    97  LEU97       0.0019
     64  CD1      179.3410  254.1060  139.9170 C.3    97  LEU97       0.0001
     65  CD2      179.2860  251.6770  140.3360 C.3    97  LEU97       0.0001
     66  N        176.7600  250.6750  142.9630 N.am   98  ALA98      -0.1980
     67  CA       176.9950  249.2700  143.2720 C.3    98  ALA98       0.1597
     68  C        175.7220  248.4410  143.2420 C.2    98  ALA98       0.2287
     69  O        175.7950  247.2260  143.0300 O.2    98  ALA98      -0.2864
     70  CB       177.6600  249.1390  144.6410 C.3    98  ALA98       0.0319
     71  N        175.5300  246.6650  139.7430 N.3   101  GLU101     -0.1245
     72  CA       176.4800  245.5810  139.5540 C.3   101  GLU101      0.1567
     73  C        176.3260  244.4850  140.5910 C.2   101  GLU101      0.2260
     74  O        176.8020  243.3720  140.3630 O.2   101  GLU101     -0.2867
     75  CB       177.8980  246.1470  139.5640 C.3   101  GLU101      0.0388
     76  CG       178.1940  246.9600  140.8010 C.3   101  GLU101      0.1160
     77  CD       179.5080  247.6960  140.7210 C.2   101  GLU101      0.3649
     78  OE1      180.3500  247.3060  139.9000 O.co2 101  GLU101     -0.2457
     79  OE2      179.6960  248.6740  141.4730 O.co2 101  GLU101     -0.2457
     80  N        196.8570  238.3330  134.5830 N.3   156  PHE156     -0.1241
     81  CA       196.2910  239.2170  135.5950 C.3   156  PHE156      0.1605
     82  C        197.2060  239.3450  136.8000 C.2   156  PHE156      0.2264
     83  O        197.3550  240.4350  137.3600 O.2   156  PHE156     -0.2867
     84  CB       194.9240  238.6980  136.0290 C.3   156  PHE156      0.0534
     85  CG       194.2800  239.5130  137.1030 C.ar  156  PHE156     -0.0203
     86  CD1      193.5480  240.6400  136.7870 C.ar  156  PHE156     -0.0042
     87  CD2      194.4080  239.1590  138.4290 C.ar  156  PHE156     -0.0042
     88  CE1      192.9510  241.3920  137.7750 C.ar  156  PHE156     -0.0003
     89  CE2      193.8150  239.9090  139.4210 C.ar  156  PHE156     -0.0003
     90  CZ       193.0870  241.0260  139.0930 C.ar  156  PHE156     -0.0000
@<TRIPOS>BOND
     1    80    81    1
     2    81    84    1
     3    81    82    1
     4    84    85    1
     5    86    85   ar
     6    86    88   ar
     7    82    83    2
     8    13    11   ar
     9    13    14   ar
    10    11     8   ar
    11    85    87   ar
    12     1     2    1
    13    88    90   ar
    14     2     5    1
    15     2     3    1
    16     5     6    1
    17    14    12   ar
    18     8     6   ar
    19     8    10   ar
    20    87    89   ar
    21     6     7   ar
    22    90    89   ar
    23    12    10   ar
    24     3     4    2
    25     3    15   am
    26    10     9   ar
    27    72    75    1
    28    72    71    1
    29    72    73    1
    30    75    76    1
    31    78    77   ar
    32    64    63    1
    33     7     9   ar
    34    15    16    1
    35    63    65    1
    36    63    62    1
    37    74    73    2
    38    25    31    1
    39    25    26    1
    40    77    76    1
    41    77    79   ar
    42    31    30    1
    43    61    60    2
    44    17    16    1
    45    17    18    2
    46    62    59    1
    47    16    19    1
    48    59    60    1
    49    59    58    1
    50    26    27    1
    51    26    29    1
    52    30    29    1
    53    60    66   am
    54    27    28    2
    55    27    32   am
    56    19    20    1
    57    32    33    1
    58    34    35    2
    59    34    33    1
    60    66    67    1
    61    22    20   ar
    62    22    24   ar
    63    69    68    2
    64    20    21   ar
    65    38    39    1
    66    68    67    1
    67    67    70    1
    68    33    36    1
    69    24    23   ar
    70    21    23   ar
    71    50    51    1
    72    36    37    1
    73    39    40    1
    74    39    42    1
    75    51    52    1
    76    51    54    1
    77    40    41    2
    78    53    52    2
    79    42    43    1
    80    54    55    1
    81    54    56    1
    82    55    57    1
    83    43    44   ar
    84    43    45   ar
    85    44    46   ar
    86    45    47   ar
    87    46    48   ar
    88    47    48   ar
    89    48    49    1
