@<TRIPOS>MOLECULE
tmp/6igzP18.pdb
 97 90 0 0 0
SMALL
GASTEIGER

@<TRIPOS>ATOM
      1  N        206.7520  223.5390  165.1990 N.3    49  PHE49      -0.1241
      2  CA       206.8760  224.9280  165.6310 C.3    49  PHE49       0.1605
      3  C        208.2760  225.2210  166.1280 C.2    49  PHE49       0.2264
      4  O        208.8630  226.2510  165.7870 O.2    49  PHE49      -0.2867
      5  CB       205.8630  225.2780  166.7190 C.3    49  PHE49       0.0534
      6  CG       204.4940  225.5490  166.2070 C.ar   49  PHE49      -0.0203
      7  CD1      204.2330  226.7170  165.5300 C.ar   49  PHE49      -0.0042
      8  CD2      203.4560  224.6900  166.4640 C.ar   49  PHE49      -0.0042
      9  CE1      202.9850  226.9890  165.0580 C.ar   49  PHE49      -0.0003
     10  CE2      202.1950  224.9640  166.0050 C.ar   49  PHE49      -0.0003
     11  CZ       201.9590  226.1140  165.3020 C.ar   49  PHE49      -0.0000
     12  N        210.8910  225.6870  163.1010 N.3    52  MET52      -0.1230
     13  CA       210.6640  226.9950  162.4930 C.3    52  MET52       0.1702
     14  C        210.9440  228.1130  163.4800 C.2    52  MET52       0.2592
     15  O        211.7410  229.0140  163.2070 O.2    52  MET52      -0.2718
     16  CB       209.2310  227.1040  161.9800 C.3    52  MET52       0.0401
     17  CG       208.9270  226.2710  160.7680 C.3    52  MET52       0.0596
     18  SD       209.9490  226.7700  159.3840 S.3    52  MET52      -0.1393
     19  CE       209.3630  228.4380  159.1480 C.3    52  MET52       0.0692
     20  N        210.3070  228.0560  164.6470 N.am   53  GLY53      -0.1957
     21  CA       210.4210  229.1510  165.5930 C.3    53  GLY53       0.1869
     22  C        211.8550  229.4650  165.9610 C.2    53  GLY53       0.2309
     23  O        212.2740  230.6220  165.9320 O.2    53  GLY53      -0.2863
     24  N        214.5570  229.0890  164.4020 N.3    55  VAL55      -0.1231
     25  CA       215.2430  229.8050  163.3390 C.3    55  VAL55       0.1692
     26  C        214.8440  231.2670  163.3410 C.2    55  VAL55       0.2592
     27  O        215.6240  232.1340  162.9350 O.2    55  VAL55      -0.2718
     28  CB       214.9520  229.1330  161.9970 C.3    55  VAL55       0.0266
     29  CG1      215.6010  229.9040  160.8820 C.3    55  VAL55       0.0020
     30  CG2      215.4760  227.7330  162.0380 C.3    55  VAL55       0.0020
     31  N        213.6390  231.5720  163.8140 N.am   56  GLY56      -0.1957
     32  CA       213.2800  232.9590  164.0220 C.3    56  GLY56       0.1869
     33  C        214.1400  233.6230  165.0720 C.2    56  GLY56       0.2309
     34  O        214.4440  234.8120  164.9650 O.2    56  GLY56      -0.2863
     35  N        218.6110  232.8730  163.4640 N.3    59  VAL59      -0.1231
     36  CA       219.1940  233.5200  162.2830 C.3    59  VAL59       0.1678
     37  C        219.1680  235.0410  162.3530 C.2    59  VAL59       0.2434
     38  O        220.2210  235.6610  162.1400 O.2    59  VAL59      -0.2733
     39  CB       218.5270  232.9850  161.0030 C.3    59  VAL59       0.0265
     40  CG1      218.9690  233.8100  159.8200 C.3    59  VAL59       0.0020
     41  CG2      218.8940  231.5330  160.7920 C.3    59  VAL59       0.0020
     42  N        218.0320  235.7030  162.6000 N.am   60  PRO60      -0.2729
     43  CA       218.0600  237.1740  162.6370 C.3    60  PRO60       0.1401
     44  C        219.1050  237.7440  163.5730 C.2    60  PRO60       0.2269
     45  O        219.8760  238.6230  163.1740 O.2    60  PRO60      -0.2865
     46  CB       216.6370  237.5250  163.0810 C.3    60  PRO60       0.0296
     47  CG       215.8240  236.4260  162.5610 C.3    60  PRO60       0.0237
     48  CD       216.6570  235.1960  162.7260 C.3    60  PRO60       0.0939
     49  N        222.6110  237.1380  161.9300 N.3    63  LEU63      -0.1245
     50  CA       222.9470  238.1110  160.8960 C.3    63  LEU63       0.1561
     51  C        223.5430  239.3740  161.5010 C.2    63  LEU63       0.2260
     52  O        224.6950  239.7250  161.2330 O.2    63  LEU63      -0.2867
     53  CB       221.6980  238.4500  160.0930 C.3    63  LEU63       0.0270
     54  CG       221.0670  237.2560  159.3970 C.3    63  LEU63       0.0019
     55  CD1      219.7710  237.6890  158.7540 C.3    63  LEU63       0.0001
     56  CD2      222.0250  236.6620  158.3760 C.3    63  LEU63       0.0001
     57  N        222.4580  243.4290  156.8670 N.3    70  LEU70      -0.1245
     58  CA       221.0700  243.2480  157.2730 C.3    70  LEU70       0.1561
     59  C        220.9580  243.0990  158.7860 C.2    70  LEU70       0.2260
     60  O        220.7550  241.9850  159.2820 O.2    70  LEU70      -0.2867
     61  CB       220.4680  242.0340  156.5630 C.3    70  LEU70       0.0270
     62  CG       218.9780  241.7330  156.7450 C.3    70  LEU70       0.0019
     63  CD1      218.1360  242.8680  156.1830 C.3    70  LEU70       0.0001
     64  CD2      218.6080  240.4150  156.0840 C.3    70  LEU70       0.0001
     65  N        219.2440  242.8820  162.2530 N.3    72  ALA72      -0.1231
     66  CA       217.8720  242.4640  162.5130 C.3    72  ALA72       0.1694
     67  C        217.1820  243.5100  163.3680 C.2    72  ALA72       0.2592
     68  O        217.5710  243.7440  164.5170 O.2    72  ALA72      -0.2718
     69  CB       217.8320  241.1090  163.2060 C.3    72  ALA72       0.0304
     70  N        216.1460  244.1200  162.8040 N.am   73  LYS73      -0.1966
     71  CA       215.2520  244.9530  163.5860 C.3    73  LYS73       0.1728
     72  C        214.5930  244.1000  164.6620 C.2    73  LYS73       0.2616
     73  O        214.2900  242.9220  164.4550 O.2    73  LYS73      -0.2715
     74  CB       214.2060  245.6000  162.6740 C.3    73  LYS73       0.0311
     75  CG       213.2420  246.5480  163.3620 C.3    73  LYS73       0.0038
     76  CD       212.2540  247.1220  162.3640 C.3    73  LYS73       0.0206
     77  CE       212.9630  248.0310  161.3910 C.3    73  LYS73       0.1093
     78  NZ       213.5610  249.1940  162.1020 N.3    73  LYS73      -0.1314
     79  N        214.3920  244.6950  165.8290 N.am   74  GLY74      -0.1955
     80  CA       213.9650  243.9240  166.9670 C.3    74  GLY74       0.1869
     81  C        215.0880  243.2520  167.7120 C.2    74  GLY74       0.2309
     82  O        214.8280  242.5970  168.7260 O.2    74  GLY74      -0.2863
     83  N        212.1620  241.6770  170.2640 N.3    80  ALA80      -0.1245
     84  CA       211.1640  241.8410  169.2200 C.3    80  ALA80       0.1562
     85  C        209.7510  241.8000  169.7660 C.2    80  ALA80       0.2260
     86  O        208.7980  241.8780  168.9880 O.2    80  ALA80      -0.2867
     87  CB       211.3320  240.7690  168.1440 C.3    80  ALA80       0.0290
     88  N        208.7360  244.2720  171.5870 N.3    82  ALA82      -0.1231
     89  CA       208.4990  245.6100  171.0900 C.3    82  ALA82       0.1694
     90  C        208.5770  245.5910  169.5690 C.2    82  ALA82       0.2591
     91  O        208.6980  244.5420  168.9360 O.2    82  ALA82      -0.2718
     92  CB       209.4990  246.5930  171.6910 C.3    82  ALA82       0.0304
     93  N        208.4790  246.7640  168.9800 N.am   83  ALA83      -0.1980
     94  CA       208.3260  246.9400  167.5430 C.3    83  ALA83       0.1597
     95  C        207.1060  246.2390  166.9420 C.2    83  ALA83       0.2287
     96  O        207.2480  245.5360  165.9340 O.2    83  ALA83      -0.2864
     97  CB       209.5890  246.4630  166.8230 C.3    83  ALA83       0.0319
@<TRIPOS>BOND
     1    64    62    1
     2    63    62    1
     3    61    62    1
     4    61    58    1
     5    57    58    1
     6    58    59    1
     7    56    54    1
     8    55    54    1
     9    59    60    2
    10    19    18    1
    11    18    17    1
    12    54    53    1
    13    40    39    1
    14    53    50    1
    15    17    16    1
    16    41    39    1
    17    29    28    1
    18    50    51    1
    19    50    49    1
    20    39    36    1
    21    52    51    2
    22    77    78    1
    23    77    76    1
    24    16    13    1
    25    28    30    1
    26    28    25    1
    27    38    37    2
    28    65    66    1
    29    36    37    1
    30    36    35    1
    31    37    42   am
    32    76    75    1
    33    13    12    1
    34    13    14    1
    35    66    69    1
    36    66    67    1
    37    47    48    1
    38    47    46    1
    39    42    43    1
    40    42    48    1
    41    43    46    1
    42    43    44    1
    43    74    75    1
    44    74    71    1
    45    70    67   am
    46    70    71    1
    47    27    26    2
    48    45    44    2
    49    15    14    2
    50    25    26    1
    51    25    24    1
    52    26    31   am
    53    67    68    2
    54    14    20   am
    55    71    72    1
    56    31    32    1
    57    32    33    1
    58    73    72    2
    59    20    21    1
    60    72    79   am
    61    34    33    2
    62     9    11   ar
    63     9     7   ar
    64     1     2    1
    65    11    10   ar
    66     7     6   ar
    67    21    22    1
    68     2     3    1
    69     2     5    1
    70     4     3    2
    71    79    80    1
    72    23    22    2
    73    96    95    2
    74    10     8   ar
    75     6     8   ar
    76     6     5    1
    77    97    94    1
    78    95    94    1
    79    80    81    1
    80    94    93    1
    81    81    82    2
    82    87    84    1
    83    91    90    2
    84    93    90   am
    85    86    85    2
    86    84    85    1
    87    84    83    1
    88    90    89    1
    89    89    88    1
    90    89    92    1
