@<TRIPOS>MOLECULE
tmp/6igzP04.pdb
 163 158 0 0 0
SMALL
GASTEIGER

@<TRIPOS>ATOM
      1  N        215.4900  217.9700  168.8250 N.3   163  LEU163     -0.1245
      2  CA       216.6180  218.7820  169.2380 C.3   163  LEU163      0.1561
      3  C        216.2560  220.2550  169.2570 C.2   163  LEU163      0.2260
      4  O        216.6770  220.9850  170.1560 O.2   163  LEU163     -0.2867
      5  CB       217.8020  218.5280  168.3140 C.3   163  LEU163      0.0270
      6  CG       219.1590  218.9590  168.8490 C.3   163  LEU163      0.0019
      7  CD1      220.2390  218.1000  168.2680 C.3   163  LEU163      0.0001
      8  CD2      219.4220  220.3640  168.5160 C.3   163  LEU163      0.0001
      9  N        214.3530  220.9510  172.3990 N.3   166  PHE166     -0.1227
     10  CA       215.2680  221.0150  173.5290 C.3   166  PHE166      0.1736
     11  C        216.1720  222.2320  173.4330 C.2   166  PHE166      0.2595
     12  O        216.4140  222.9150  174.4310 O.2   166  PHE166     -0.2718
     13  CB       216.0910  219.7320  173.6040 C.3   166  PHE166      0.0547
     14  CG       217.0660  219.7130  174.7300 C.ar  166  PHE166     -0.0202
     15  CD1      216.6420  219.4720  176.0190 C.ar  166  PHE166     -0.0042
     16  CD2      218.4060  219.9220  174.5030 C.ar  166  PHE166     -0.0042
     17  CE1      217.5330  219.4550  177.0600 C.ar  166  PHE166     -0.0003
     18  CE2      219.3020  219.9050  175.5440 C.ar  166  PHE166     -0.0003
     19  CZ       218.8650  219.6720  176.8240 C.ar  166  PHE166     -0.0000
     20  N        216.6620  222.5360  172.2350 N.am  167  ALA167     -0.1980
     21  CA       217.5380  223.6870  172.0810 C.3   167  ALA167      0.1597
     22  C        216.7980  224.9920  172.3140 C.2   167  ALA167      0.2287
     23  O        217.3840  225.9480  172.8270 O.2   167  ALA167     -0.2864
     24  CB       218.1740  223.6810  170.6980 C.3   167  ALA167      0.0319
     25  N        214.4980  225.5710  174.5110 N.3   169  LEU169     -0.1231
     26  CA       214.4480  225.7910  175.9490 C.3   169  LEU169      0.1693
     27  C        215.7160  226.4590  176.4530 C.2   169  LEU169      0.2592
     28  O        215.6660  227.2540  177.3930 O.2   169  LEU169     -0.2718
     29  CB       214.2160  224.4620  176.6570 C.3   169  LEU169      0.0284
     30  CG       214.1110  224.5110  178.1670 C.3   169  LEU169      0.0019
     31  CD1      212.9310  225.3570  178.5400 C.3   169  LEU169      0.0001
     32  CD2      213.9520  223.1120  178.6980 C.3   169  LEU169      0.0001
     33  N        216.8540  226.1660  175.8310 N.am  170  GLY170     -0.1957
     34  CA       218.0700  226.8730  176.1820 C.3   170  GLY170      0.1869
     35  C        217.9540  228.3660  175.9560 C.2   170  GLY170      0.2309
     36  O        218.2500  229.1630  176.8480 O.2   170  GLY170     -0.2863
     37  N        216.0640  229.8430  178.8870 N.3   173  CYS173     -0.1221
     38  CA       216.7570  229.8900  180.1710 C.3   173  CYS173      0.1808
     39  C        218.0390  230.7030  180.1000 C.2   173  CYS173      0.2601
     40  O        218.3670  231.4220  181.0470 O.2   173  CYS173     -0.2717
     41  CB       217.0510  228.4780  180.6600 C.3   173  CYS173      0.0970
     42  SG       215.5740  227.5210  181.0620 S.3   173  CYS173     -0.0800
     43  N        218.7880  230.5940  179.0030 N.am  174  GLN174     -0.1979
     44  CA       219.9820  231.4200  178.8610 C.3   174  GLN174      0.1601
     45  C        219.6340  232.8960  178.9800 C.2   174  GLN174      0.2287
     46  O        220.1120  233.5940  179.8800 O.2   174  GLN174     -0.2864
     47  CB       220.6730  231.1540  177.5300 C.3   174  GLN174      0.0394
     48  CG       221.2400  229.7790  177.3640 C.3   174  GLN174      0.0908
     49  CD       221.9820  229.6550  176.0670 C.2   174  GLN174      0.2608
     50  OE1      221.7860  230.4530  175.1590 O.2   174  GLN174     -0.2717
     51  NE2      222.8390  228.6580  175.9650 N.am  174  GLN174     -0.0878
     52  N        218.8080  234.3840  182.1090 N.3   177  VAL177     -0.1231
     53  CA       219.9110  234.6060  183.0320 C.3   177  VAL177      0.1692
     54  C        220.8910  235.6160  182.4600 C.2   177  VAL177      0.2592
     55  O        220.9490  236.7650  182.9090 O.2   177  VAL177     -0.2718
     56  CB       220.6370  233.2980  183.3640 C.3   177  VAL177      0.0266
     57  CG1      221.7840  233.5970  184.2800 C.3   177  VAL177      0.0020
     58  CG2      219.6920  232.3390  184.0110 C.3   177  VAL177      0.0020
     59  N        221.6700  235.1970  181.4670 N.am  178  THR178     -0.1953
     60  CA       222.7870  236.0160  181.0280 C.3   178  THR178      0.1897
     61  C        222.3560  237.3070  180.3580 C.2   178  THR178      0.2313
     62  O        223.2140  238.1460  180.0740 O.2   178  THR178     -0.2863
     63  CB       223.6820  235.2190  180.0890 C.3   178  THR178      0.1794
     64  OG1      222.8950  234.6950  179.0130 O.3   178  THR178     -0.2208
     65  CG2      224.3640  234.0840  180.8390 C.3   178  THR178      0.0378
     66  N        221.8430  238.2230  177.5840 N.3   180  LYS180     -0.1245
     67  CA       222.4770  238.4580  176.3010 C.3   180  LYS180      0.1561
     68  C        221.7410  237.6980  175.2050 C.2   180  LYS180      0.2260
     69  O        220.7570  236.9990  175.4500 O.2   180  LYS180     -0.2867
     70  CB       223.9420  238.0520  176.3670 C.3   180  LYS180      0.0271
     71  CG       224.7360  238.8890  177.3300 C.3   180  LYS180      0.0035
     72  CD       226.1420  238.3670  177.4610 C.3   180  LYS180      0.0206
     73  CE       226.9420  239.2290  178.4020 C.3   180  LYS180      0.1093
     74  NZ       228.3200  238.7120  178.5730 N.3   180  LYS180     -0.1314
     75  N        225.8670  234.6850  174.1270 N.3   185  CYS185     -0.1221
     76  CA       226.0630  233.5300  174.9970 C.3   185  CYS185      0.1808
     77  C        226.9700  232.5000  174.3400 C.2   185  CYS185      0.2601
     78  O        227.8300  231.9090  175.0000 O.2   185  CYS185     -0.2717
     79  CB       224.7190  232.9010  175.3620 C.3   185  CYS185      0.0970
     80  SG       223.6360  233.9110  176.3920 S.3   185  CYS185     -0.0800
     81  N        226.7890  232.2680  173.0420 N.am  186  TRP186     -0.1976
     82  CA       227.6730  231.4030  172.2690 C.3   186  TRP186      0.1640
     83  C        229.1260  231.8250  172.3650 C.2   186  TRP186      0.2290
     84  O        229.9330  231.1540  173.0110 O.2   186  TRP186     -0.2864
     85  CB       227.2610  231.4080  170.8000 C.3   186  TRP186      0.0576
     86  CG       228.2850  230.8540  169.8660 C.ar  186  TRP186      0.0006
     87  CD1      229.1330  231.5640  169.0660 C.ar  186  TRP186      0.0946
     88  CD2      228.5540  229.4840  169.6100 C.ar  186  TRP186      0.0152
     89  NE1      229.9230  230.7180  168.3390 N.ar  186  TRP186     -0.2442
     90  CE2      229.5840  229.4310  168.6540 C.ar  186  TRP186      0.0810
     91  CE3      228.0270  228.2940  170.0980 C.ar  186  TRP186      0.0012
     92  CZ2      230.0950  228.2380  168.1830 C.ar  186  TRP186      0.0191
     93  CZ3      228.5350  227.1150  169.6280 C.ar  186  TRP186      0.0001
     94  CH2      229.5550  227.0920  168.6770 C.ar  186  TRP186      0.0015
     95  N        230.8940  234.1460  173.8100 N.3   188  SER188     -0.1202
     96  CA       231.5260  234.4100  175.0940 C.3   188  SER188      0.2020
     97  C        231.9980  233.1150  175.7380 C.2   188  SER188      0.2618
     98  O        233.0810  233.0660  176.3260 O.2   188  SER188     -0.2717
     99  CB       230.5650  235.1630  176.0070 C.3   188  SER188      0.2103
    100  OG       231.1690  235.4580  177.2490 O.3   188  SER188     -0.2182
    101  N        231.2220  232.0440  175.6010 N.am  189  HIS189     -0.1975
    102  CA       231.7020  230.7430  176.0460 C.3   189  HIS189      0.1656
    103  C        232.8390  230.2590  175.1640 C.2   189  HIS189      0.2291
    104  O        233.9250  229.9370  175.6510 O.2   189  HIS189     -0.2864
    105  CB       230.5710  229.7260  176.0270 C.3   189  HIS189      0.0771
    106  CG       230.9890  228.3590  176.4630 C.ar  189  HIS189      0.0820
    107  ND1      231.3580  228.0720  177.7580 N.ar  189  HIS189     -0.2267
    108  CD2      231.1080  227.2030  175.7720 C.ar  189  HIS189      0.1154
    109  CE1      231.6720  226.7930  177.8490 C.ar  189  HIS189      0.1986
    110  NE2      231.5310  226.2440  176.6570 N.ar  189  HIS189     -0.2212
    111  N        233.2130  231.4380  181.4100 N.3   196  ASN196     -0.1225
    112  CA       231.9770  231.8210  180.7490 C.3   196  ASN196      0.1785
    113  C        230.9500  230.7030  180.7430 C.2   196  ASN196      0.2597
    114  O        229.9210  230.8170  180.0750 O.2   196  ASN196     -0.2718
    115  CB       232.2870  232.2870  179.3370 C.3   196  ASN196      0.1169
    116  CG       233.1880  233.4910  179.3350 C.2   196  ASN196      0.2627
    117  OD1      234.2260  233.5060  178.6810 O.2   196  ASN196     -0.2716
    118  ND2      232.8040  234.5110  180.0860 N.am  196  ASN196     -0.0877
    119  N        231.2130  229.6300  181.4710 N.am  197  ASN197     -0.1960
    120  CA       230.3370  228.4800  181.5260 C.3   197  ASN197      0.1819
    121  C        229.0390  228.8310  182.2460 C.2   197  ASN197      0.2621
    122  O        228.8290  229.9530  182.7070 O.2   197  ASN197     -0.2715
    123  CB       231.0600  227.3480  182.2490 C.3   197  ASN197      0.1195
    124  CG       230.3140  226.0540  182.1980 C.2   197  ASN197      0.2630
    125  OD1      229.5660  225.8000  181.2610 O.2   197  ASN197     -0.2716
    126  ND2      230.5070  225.2210  183.2070 N.am  197  ASN197     -0.0877
    127  N        228.1530  227.8460  182.3370 N.am  198  VAL198     -0.1963
    128  CA       227.0610  227.8760  183.2930 C.3   198  VAL198      0.1727
    129  C        227.6700  227.7020  184.6640 C.2   198  VAL198      0.2616
    130  O        228.8890  227.5600  184.8060 O.2   198  VAL198     -0.2715
    131  CB       226.0390  226.7540  183.0610 C.3   198  VAL198      0.0290
    132  CG1      225.2690  226.9780  181.8660 C.3   198  VAL198      0.0023
    133  CG2      226.7530  225.4500  182.9090 C.3   198  VAL198      0.0023
    134  N        226.8240  227.7130  185.6840 N.am  199  TRP199     -0.1974
    135  CA       227.1180  227.1400  186.9860 C.3   199  TRP199      0.1640
    136  C        228.2500  227.9030  187.6530 C.2   199  TRP199      0.2290
    137  O        228.5860  227.6270  188.8080 O.2   199  TRP199     -0.2864
    138  CB       227.4060  225.6350  186.8550 C.3   199  TRP199      0.0576
    139  CG       226.2170  224.9570  186.1390 C.ar  199  TRP199      0.0006
    140  CD1      225.0460  225.5570  185.7950 C.ar  199  TRP199      0.0946
    141  CD2      226.1160  223.6080  185.6560 C.ar  199  TRP199      0.0152
    142  NE1      224.2300  224.6850  185.1390 N.ar  199  TRP199     -0.2442
    143  CE2      224.8600  223.4770  185.0480 C.ar  199  TRP199      0.0810
    144  CE3      226.9560  222.5050  185.6850 C.ar  199  TRP199      0.0012
    145  CZ2      224.4250  222.2890  184.4870 C.ar  199  TRP199      0.0191
    146  CZ3      226.5230  221.3240  185.1280 C.ar  199  TRP199      0.0001
    147  CH2      225.2710  221.2250  184.5330 C.ar  199  TRP199      0.0015
    148  N        227.5200  231.2020  187.2770 N.3   201  ILE201     -0.1245
    149  CA       226.6750  232.3920  187.3380 C.3   201  ILE201      0.1561
    150  C        225.2770  232.0370  187.8290 C.2   201  ILE201      0.2260
    151  O        224.5820  231.2250  187.2100 O.2   201  ILE201     -0.2867
    152  CB       226.6050  233.1040  185.9800 C.3   201  ILE201      0.0252
    153  CG1      226.2950  232.1100  184.8670 C.3   201  ILE201      0.0019
    154  CG2      227.9090  233.8010  185.6890 C.3   201  ILE201      0.0019
    155  CD1      224.8940  232.1080  184.4130 C.3   201  ILE201      0.0001
    156  N        222.9480  230.5040  189.0820 N.3   203  LEU203     -0.1245
    157  CA       221.9120  229.4780  188.9970 C.3   203  LEU203      0.1561
    158  C        222.3130  228.2010  189.7250 C.2   203  LEU203      0.2260
    159  O        221.6350  227.7950  190.6710 O.2   203  LEU203     -0.2867
    160  CB       221.5590  229.2520  187.5320 C.3   203  LEU203      0.0270
    161  CG       222.5910  228.7160  186.5540 C.3   203  LEU203      0.0019
    162  CD1      222.3770  227.2510  186.3920 C.3   203  LEU203      0.0001
    163  CD2      222.5190  229.4260  185.2340 C.3   203  LEU203      0.0001
@<TRIPOS>BOND
     1    92    90   ar
     2    92    94   ar
     3     7     6    1
     4     5     6    1
     5     5     2    1
     6    89    90   ar
     7    89    87   ar
     8     8     6    1
     9    90    88   ar
    10    94    93   ar
    11     1     2    1
    12    87    86   ar
    13     2     3    1
    14     3     4    2
    15    88    86   ar
    16    88    91   ar
    17    93    91   ar
    18    86    85    1
    19    24    21    1
    20    85    82    1
    21    21    20    1
    22    21    22    1
    23    20    11   am
    24    82    83    1
    25    82    81    1
    26    22    23    2
    27    83    84    2
    28     9    10    1
    29    81    77   am
    30    11    10    1
    31    11    12    2
    32    10    13    1
    33    13    14    1
    34    95    96    1
    35    75    76    1
    36    77    76    1
    37    77    78    2
    38    16    14   ar
    39    16    18   ar
    40    25    26    1
    41    14    15   ar
    42    76    79    1
    43    96    97    1
    44    96    99    1
    45    50    49    2
    46   103   104    2
    47   103   102    1
    48    68    69    2
    49    68    67    1
    50    79    80    1
    51    18    19   ar
    52   101    97   am
    53   101   102    1
    54    97    98    2
    55   108   106   ar
    56   108   110   ar
    57    33    34    1
    58    33    27   am
    59    26    27    1
    60    26    29    1
    61    35    34    1
    62    35    36    2
    63    51    49   am
    64    99   100    1
    65    15    17   ar
    66   105   102    1
    67   105   106    1
    68    49    48    1
    69    67    70    1
    70    67    66    1
    71    70    71    1
    72    27    28    2
    73   106   107   ar
    74    29    30    1
    75   110   109   ar
    76    19    17   ar
    77    71    72    1
    78    48    47    1
    79    72    73    1
    80    47    44    1
    81   107   109   ar
    82    30    31    1
    83    30    32    1
    84    73    74    1
    85   117   116    2
    86    44    45    1
    87    44    43    1
    88    37    38    1
    89    45    46    2
    90    43    39   am
    91    64    63    1
    92   116   115    1
    93   116   118   am
    94   115   112    1
    95    62    61    2
    96   114   113    2
    97    63    65    1
    98    63    60    1
    99    39    38    1
   100    39    40    2
   101    38    41    1
   102    61    60    1
   103    41    42    1
   104   113   112    1
   105   113   119   am
   106   112   111    1
   107    60    59    1
   108   125   124    2
   109    59    54   am
   110   119   120    1
   111   120   121    1
   112   120   123    1
   113   132   131    1
   114    52    53    1
   115   124   123    1
   116   124   126   am
   117   121   127   am
   118   121   122    2
   119   127   128    1
   120    54    55    2
   121    54    53    1
   122   133   131    1
   123    53    56    1
   124   131   128    1
   125   128   129    1
   126    56    58    1
   127    56    57    1
   128   155   153    1
   129   145   147   ar
   130   145   143   ar
   131   147   146   ar
   132   129   130    2
   133   129   134   am
   134   153   152    1
   135   143   142   ar
   136   143   141   ar
   137   146   144   ar
   138   142   140   ar
   139   163   161    1
   140   141   144   ar
   141   141   139   ar
   142   134   135    1
   143   154   152    1
   144   140   139   ar
   145   152   149    1
   146   139   138    1
   147   162   161    1
   148   161   160    1
   149   138   135    1
   150   135   136    1
   151   151   150    2
   152   148   149    1
   153   149   150    1
   154   160   157    1
   155   136   137    2
   156   157   156    1
   157   157   158    1
   158   158   159    2
