@<TRIPOS>MOLECULE
tmp/6igzV00.pdb
 158 148 0 0 0
SMALL
GASTEIGER

@<TRIPOS>ATOM
      1  N        120.1110  228.9490  255.3720 N.3   137  LEU137     -0.1245
      2  CA       119.8740  230.3040  254.9060 C.3   137  LEU137      0.1561
      3  C        120.5800  231.3140  255.7980 C.2   137  LEU137      0.2260
      4  O        121.2710  232.2110  255.3050 O.2   137  LEU137     -0.2867
      5  CB       118.3720  230.5700  254.8560 C.3   137  LEU137      0.0270
      6  CG       117.9380  231.9370  254.3500 C.3   137  LEU137      0.0019
      7  CD1      118.4050  232.1090  252.9270 C.3   137  LEU137      0.0001
      8  CD2      116.4380  232.0560  254.4210 C.3   137  LEU137      0.0001
      9  N        124.2920  231.7760  255.1730 N.3   140  VAL140     -0.1231
     10  CA       124.7720  232.6270  254.0930 C.3   140  VAL140      0.1692
     11  C        124.8040  234.0860  254.5290 C.2   140  VAL140      0.2591
     12  O        125.7300  234.8310  254.1870 O.2   140  VAL140     -0.2718
     13  CB       123.9010  232.4170  252.8450 C.3   140  VAL140      0.0266
     14  CG1      124.3430  233.3280  251.7210 C.3   140  VAL140      0.0020
     15  CG2      123.9690  230.9730  252.4140 C.3   140  VAL140      0.0020
     16  N        123.8000  234.5200  255.2920 N.am  141  ALA141     -0.1980
     17  CA       123.8170  235.8830  255.8100 C.3   141  ALA141      0.1597
     18  C        124.9760  236.0880  256.7680 C.2   141  ALA141      0.2287
     19  O        125.5680  237.1710  256.8120 O.2   141  ALA141     -0.2864
     20  CB       122.4980  236.2010  256.5040 C.3   141  ALA141      0.0319
     21  N        127.9440  235.1080  256.5750 N.3   143  VAL143     -0.1231
     22  CA       129.0490  235.6210  255.7760 C.3   143  VAL143      0.1692
     23  C        128.8870  237.1150  255.5600 C.2   143  VAL143      0.2592
     24  O        129.8470  237.8830  255.6760 O.2   143  VAL143     -0.2718
     25  CB       129.1360  234.8660  254.4370 C.3   143  VAL143      0.0266
     26  CG1      130.2160  235.4630  253.5670 C.3   143  VAL143      0.0020
     27  CG2      129.3980  233.3920  254.6770 C.3   143  VAL143      0.0020
     28  N        127.6650  237.5490  255.2550 N.am  144  GLY144     -0.1957
     29  CA       127.4360  238.9580  254.9890 C.3   144  GLY144      0.1869
     30  C        127.8060  239.8390  256.1620 C.2   144  GLY144      0.2309
     31  O        128.4770  240.8590  255.9930 O.2   144  GLY144     -0.2863
     32  N        131.3190  240.8110  255.8750 N.3   147  SER147     -0.1202
     33  CA       131.5550  241.8600  254.8920 C.3   147  SER147      0.2020
     34  C        130.8250  243.1460  255.2460 C.2   147  SER147      0.2618
     35  O        131.2580  244.2300  254.8440 O.2   147  SER147     -0.2717
     36  CB       131.1330  241.3820  253.5080 C.3   147  SER147      0.2103
     37  OG       129.7470  241.1160  253.4830 O.3   147  SER147     -0.2182
     38  N        129.7150  243.0560  255.9790 N.am  148  GLN148     -0.1979
     39  CA       129.0720  244.2720  256.4620 C.3   148  GLN148      0.1601
     40  C        130.0400  245.0890  257.2990 C.2   148  GLN148      0.2287
     41  O        130.0830  246.3190  257.1930 O.2   148  GLN148     -0.2864
     42  CB       127.8230  243.9380  257.2740 C.3   148  GLN148      0.0394
     43  CG       126.7120  243.2760  256.4810 C.3   148  GLN148      0.0908
     44  CD       126.2210  244.1250  255.3420 C.2   148  GLN148      0.2608
     45  OE1      126.0930  245.3400  255.4730 O.2   148  GLN148     -0.2717
     46  NE2      125.9400  243.4910  254.2090 N.am  148  GLN148     -0.0878
     47  N        133.5720  245.4980  254.4410 N.3   151  VAL151     -0.1231
     48  CA       133.3460  246.4880  253.3930 C.3   151  VAL151      0.1692
     49  C        132.9170  247.8150  254.0010 C.2   151  VAL151      0.2592
     50  O        133.5870  248.8400  253.8430 O.2   151  VAL151     -0.2718
     51  CB       132.3080  245.9780  252.3840 C.3   151  VAL151      0.0266
     52  CG1      131.9200  247.0840  251.4340 C.3   151  VAL151      0.0020
     53  CG2      132.8700  244.8080  251.6160 C.3   151  VAL151      0.0020
     54  N        131.8080  247.8060  254.7320 N.am  152  THR152     -0.1953
     55  CA       131.2130  249.0420  255.2260 C.3   152  THR152      0.1897
     56  C        131.7150  249.3920  256.6200 C.2   152  THR152      0.2313
     57  O        132.3370  250.4380  256.8200 O.2   152  THR152     -0.2863
     58  CB       129.6890  248.9230  255.2290 C.3   152  THR152      0.1794
     59  OG1      129.2290  248.6600  253.8990 O.3   152  THR152     -0.2208
     60  CG2      129.0680  250.2110  255.7360 C.3   152  THR152      0.0378
     61  N        123.3030  249.1410  258.5060 N.3   159  ASN159     -0.1225
     62  CA       123.3870  248.9440  257.0660 C.3   159  ASN159      0.1785
     63  C        122.0020  248.8260  256.4530 C.2   159  ASN159      0.2597
     64  O        121.7600  249.3500  255.3620 O.2   159  ASN159     -0.2718
     65  CB       124.2140  247.6990  256.7410 C.3   159  ASN159      0.1169
     66  CG       125.6750  247.8480  257.1210 C.2   159  ASN159      0.2627
     67  OD1      126.4220  248.5770  256.4760 O.2   159  ASN159     -0.2716
     68  ND2      126.0950  247.1300  258.1530 N.am  159  ASN159     -0.0877
     69  N        121.0870  248.1380  257.1390 N.am  160  LEU160     -0.1980
     70  CA       119.7170  248.0180  256.6500 C.3   160  LEU160      0.1596
     71  C        119.1080  249.3840  256.3840 C.2   160  LEU160      0.2287
     72  O        118.6310  249.6570  255.2780 O.2   160  LEU160     -0.2864
     73  CB       118.8640  247.2560  257.6600 C.3   160  LEU160      0.0297
     74  CG       119.2100  245.7870  257.8660 C.3   160  LEU160      0.0022
     75  CD1      118.4340  245.2150  259.0360 C.3   160  LEU160      0.0001
     76  CD2      118.9010  245.0260  256.5950 C.3   160  LEU160      0.0001
     77  N        120.3760  252.2550  255.8680 N.3   162  ASP162     -0.1225
     78  CA       120.9710  252.9120  254.7120 C.3   162  ASP162      0.1805
     79  C        120.3970  252.3600  253.4190 C.2   162  ASP162      0.2597
     80  O        120.1370  253.1110  252.4730 O.2   162  ASP162     -0.2718
     81  CB       122.4870  252.7490  254.7310 C.3   162  ASP162      0.1424
     82  CG       123.1360  253.5250  255.8440 C.2   162  ASP162      0.3668
     83  OD1      122.4530  254.3750  256.4460 O.co2 162  ASP162     -0.2456
     84  OD2      124.3320  253.2990  256.1070 O.co2 162  ASP162     -0.2456
     85  N        120.1910  251.0460  253.3580 N.am  163  HIS163     -0.1975
     86  CA       119.5580  250.4640  252.1830 C.3   163  HIS163      0.1656
     87  C        118.1010  250.8800  252.0980 C.2   163  HIS163      0.2291
     88  O        117.5400  250.9770  251.0040 O.2   163  HIS163     -0.2864
     89  CB       119.6900  248.9440  252.2230 C.3   163  HIS163      0.0771
     90  CG       119.1600  248.2530  251.0060 C.ar  163  HIS163      0.0820
     91  ND1      119.6290  248.5150  249.7370 N.ar  163  HIS163     -0.2267
     92  CD2      118.2300  247.2810  250.8690 C.ar  163  HIS163      0.1154
     93  CE1      118.9940  247.7480  248.8690 C.ar  163  HIS163      0.1986
     94  NE2      118.1450  246.9870  249.5310 N.ar  163  HIS163     -0.2212
     95  N        122.9860  252.1850  248.0860 N.3   170  ASN170     -0.1225
     96  CA       123.5970  251.4200  249.1590 C.3   170  ASN170      0.1785
     97  C        124.0980  250.0560  248.7080 C.2   170  ASN170      0.2597
     98  O        124.6360  249.3100  249.5310 O.2   170  ASN170     -0.2718
     99  CB       122.6150  251.2330  250.3130 C.3   170  ASN170      0.1169
    100  CG       123.3080  250.8180  251.5920 C.2   170  ASN170      0.2627
    101  OD1      124.4040  251.2860  251.8890 O.2   170  ASN170     -0.2716
    102  ND2      122.7070  249.8960  252.3260 N.am  170  ASN170     -0.0877
    103  N        123.9570  249.7100  247.4340 N.am  171  ASN171     -0.1960
    104  CA       124.3140  248.3670  247.0050 C.3   171  ASN171      0.1819
    105  C        125.8020  248.1050  247.1760 C.2   171  ASN171      0.2621
    106  O        126.6160  249.0250  247.2730 O.2   171  ASN171     -0.2715
    107  CB       123.9240  248.1370  245.5490 C.3   171  ASN171      0.1195
    108  CG       122.4420  247.9530  245.3730 C.2   171  ASN171      0.2630
    109  OD1      121.9000  246.9010  245.7010 O.2   171  ASN171     -0.2716
    110  ND2      121.7740  248.9720  244.8430 N.am  171  ASN171     -0.0877
    111  N        126.1410  246.8190  247.2550 N.am  172  ILE172     -0.1963
    112  CA       127.5320  246.4010  247.1370 C.3   172  ILE172      0.1727
    113  C        128.1260  246.9120  245.8380 C.2   172  ILE172      0.2616
    114  O        129.2820  247.3500  245.7920 O.2   172  ILE172     -0.2715
    115  CB       127.6320  244.8700  247.2240 C.3   172  ILE172      0.0290
    116  CG1      129.0760  244.4250  247.0430 C.3   172  ILE172      0.0022
    117  CG2      126.7520  244.2110  246.1840 C.3   172  ILE172      0.0023
    118  CD1      129.2750  242.9760  247.3230 C.3   172  ILE172      0.0001
    119  N        127.3260  246.8930  244.7720 N.am  173  TYR173     -0.1974
    120  CA       127.8210  247.1270  243.4250 C.3   173  TYR173      0.1639
    121  C        128.5520  248.4530  243.3170 C.2   173  TYR173      0.2290
    122  O        129.4420  248.6110  242.4750 O.2   173  TYR173     -0.2864
    123  CB       126.6400  247.0770  242.4670 C.3   173  TYR173      0.0560
    124  CG       125.8610  245.7930  242.5760 C.ar  173  TYR173     -0.0198
    125  CD1      126.5050  244.5720  242.6580 C.ar  173  TYR173     -0.0009
    126  CD2      124.4830  245.8060  242.6510 C.ar  173  TYR173     -0.0009
    127  CE1      125.7950  243.3990  242.7660 C.ar  173  TYR173      0.0417
    128  CE2      123.7670  244.6410  242.7620 C.ar  173  TYR173      0.0417
    129  CZ       124.4270  243.4400  242.8200 C.ar  173  TYR173      0.1957
    130  OH       123.7050  242.2800  242.9350 O.3   173  TYR173     -0.2866
    131  N        130.1850  249.9690  246.2690 N.3   175  SER175     -0.1217
    132  CA       131.3270  249.9920  247.1670 C.3   175  SER175      0.1889
    133  C        132.2280  248.7830  246.9600 C.2   175  SER175      0.2288
    134  O        131.7640  247.6400  246.9750 O.2   175  SER175     -0.2866
    135  CB       130.8490  250.0490  248.6170 C.3   175  SER175      0.2089
    136  OG       131.9400  250.0610  249.5200 O.3   175  SER175     -0.2183
    137  N        134.1370  245.7000  246.5070 N.3   177  VAL177     -0.1245
    138  CA       134.0660  244.4340  245.7890 C.3   177  VAL177      0.1561
    139  C        132.9240  244.4400  244.7830 C.2   177  VAL177      0.2260
    140  O        132.7380  243.4700  244.0430 O.2   177  VAL177     -0.2867
    141  CB       133.9140  243.2580  246.7680 C.3   177  VAL177      0.0252
    142  CG1      135.1640  243.0970  247.6080 C.3   177  VAL177      0.0019
    143  CG2      132.7270  243.4920  247.6580 C.3   177  VAL177      0.0019
    144  N        132.0970  241.5400  242.4300 N.3   181  VAL181     -0.1245
    145  CA       130.9040  240.7020  242.4410 C.3   181  VAL181      0.1561
    146  C        130.1930  240.7620  241.1040 C.2   181  VAL181      0.2260
    147  O        129.7990  239.7300  240.5480 O.2   181  VAL181     -0.2867
    148  CB       129.9700  241.1130  243.5870 C.3   181  VAL181      0.0252
    149  CG1      128.6500  240.3960  243.4600 C.3   181  VAL181      0.0019
    150  CG2      130.6080  240.7790  244.8990 C.3   181  VAL181      0.0019
    151  N        128.7750  237.7100  239.1400 N.3   185  ILE185     -0.1245
    152  CA       127.3800  237.5240  238.7610 C.3   185  ILE185      0.1561
    153  C        127.2780  237.1400  237.2920 C.2   185  ILE185      0.2260
    154  O        126.5050  236.2510  236.9170 O.2   185  ILE185     -0.2867
    155  CB       126.5690  238.7930  239.0670 C.3   185  ILE185      0.0252
    156  CG1      126.6160  239.1140  240.5610 C.3   185  ILE185      0.0019
    157  CG2      125.1540  238.6090  238.6110 C.3   185  ILE185      0.0019
    158  CD1      126.0320  238.0350  241.4200 C.3   185  ILE185      0.0001
@<TRIPOS>BOND
     1   154   153    2
     2   153   152    1
     3   157   155    1
     4   152   155    1
     5   152   151    1
     6   155   156    1
     7   147   146    2
     8   156   158    1
     9   146   145    1
    10   144   145    1
    11   145   148    1
    12   123   124    1
    13   123   120    1
    14   122   121    2
    15   124   126   ar
    16   124   125   ar
    17   126   128   ar
    18   125   127   ar
    19   128   129   ar
    20   127   129   ar
    21   129   130    1
    22   121   120    1
    23   120   119    1
    24   149   148    1
    25   148   150    1
    26   140   139    2
    27   119   113   am
    28   139   138    1
    29   110   108   am
    30   108   107    1
    31   108   109    2
    32   107   104    1
    33   138   137    1
    34   138   141    1
    35   114   113    2
    36   113   112    1
    37   117   115    1
    38   131   132    1
    39   141   142    1
    40   141   143    1
    41   133   134    2
    42   133   132    1
    43   104   105    1
    44   104   103    1
    45   116   115    1
    46   116   118    1
    47   112   115    1
    48   112   111    1
    49   132   135    1
    50   105   111   am
    51   105   106    2
    52   103    97   am
    53    95    96    1
    54   135   136    1
    55    97    96    1
    56    97    98    2
    57    93    94   ar
    58    93    91   ar
    59    96    99    1
    60    94    92   ar
    61    91    90   ar
    62    99   100    1
    63    92    90   ar
    64    88    87    2
    65    90    89    1
    66    52    51    1
    67   100   101    2
    68   100   102   am
    69    53    51    1
    70    14    13    1
    71    87    86    1
    72    86    89    1
    73    86    85    1
    74    51    48    1
    75    15    13    1
    76    80    79    2
    77    13    10    1
    78     7     6    1
    79    85    79   am
    80    48    49    1
    81    48    47    1
    82    79    78    1
    83    37    36    1
    84    36    33    1
    85    26    25    1
    86    50    49    2
    87    59    58    1
    88    49    54   am
    89    10    11    1
    90    10     9    1
    91    12    11    2
    92    46    44   am
    93     6     8    1
    94     6     5    1
    95    25    27    1
    96    25    22    1
    97    11    16   am
    98    78    81    1
    99    78    77    1
   100    81    82    1
   101    54    55    1
   102    35    34    2
   103     5     2    1
   104    33    34    1
   105    33    32    1
   106     2     1    1
   107     2     3    1
   108    29    28    1
   109    29    30    1
   110    55    58    1
   111    55    56    1
   112    58    60    1
   113    34    38   am
   114    28    23   am
   115    72    71    2
   116    16    17    1
   117     4     3    2
   118    44    45    2
   119    44    43    1
   120    64    63    2
   121    23    24    2
   122    23    22    1
   123    22    21    1
   124    17    20    1
   125    17    18    1
   126    82    84   ar
   127    82    83   ar
   128    38    39    1
   129    31    30    2
   130    71    70    1
   131    63    62    1
   132    63    69   am
   133    39    42    1
   134    39    40    1
   135    67    66    2
   136    43    42    1
   137    76    74    1
   138    56    57    2
   139    70    69    1
   140    70    73    1
   141    65    62    1
   142    65    66    1
   143    18    19    2
   144    62    61    1
   145    66    68   am
   146    41    40    2
   147    73    74    1
   148    74    75    1
