@<TRIPOS>MOLECULE
tmp/6igzL08.pdb
 106 103 0 0 0
SMALL
GASTEIGER

@<TRIPOS>ATOM
      1  N        176.8910  190.8500  264.8010 N.3    20  VAL20      -0.1245
      2  CA       175.8820  191.9020  264.8380 C.3    20  VAL20       0.1561
      3  C        174.5470  191.4140  264.2780 C.2    20  VAL20       0.2260
      4  O        173.5920  192.1820  264.2060 O.2    20  VAL20      -0.2867
      5  CB       176.3450  193.1710  264.1150 C.3    20  VAL20       0.0252
      6  CG1      177.5690  193.7550  264.7830 C.3    20  VAL20       0.0019
      7  CG2      176.6180  192.8580  262.6930 C.3    20  VAL20       0.0019
      8  N        168.3770  193.0910  271.8830 N.3    29  PHE29      -0.1227
      9  CA       168.2150  194.5410  271.8360 C.3    29  PHE29       0.1736
     10  C        167.2720  194.9630  270.7240 C.2    29  PHE29       0.2595
     11  O        166.2490  195.6040  270.9810 O.2    29  PHE29      -0.2718
     12  CB       169.5620  195.2270  271.6550 C.3    29  PHE29       0.0547
     13  CG       169.4570  196.7150  271.5480 C.ar   29  PHE29      -0.0202
     14  CD1      169.2890  197.4880  272.6820 C.ar   29  PHE29      -0.0042
     15  CD2      169.5210  197.3440  270.3200 C.ar   29  PHE29      -0.0042
     16  CE1      169.1890  198.8610  272.5950 C.ar   29  PHE29      -0.0003
     17  CE2      169.4220  198.7190  270.2260 C.ar   29  PHE29      -0.0003
     18  CZ       169.2540  199.4780  271.3650 C.ar   29  PHE29      -0.0000
     19  N        167.5970  194.6070  269.4810 N.am   30  LEU30      -0.1980
     20  CA       166.7780  195.0270  268.3510 C.3    30  LEU30       0.1596
     21  C        165.3560  194.5100  268.4870 C.2    30  LEU30       0.2287
     22  O        164.4220  195.0860  267.9200 O.2    30  LEU30      -0.2864
     23  CB       167.4000  194.5380  267.0470 C.3    30  LEU30       0.0297
     24  CG       168.8090  195.0590  266.7740 C.3    30  LEU30       0.0022
     25  CD1      169.3630  194.4460  265.5050 C.3    30  LEU30       0.0001
     26  CD2      168.8200  196.5700  266.6950 C.3    30  LEU30       0.0001
     27  N        163.1330  196.8140  271.0710 N.3    33  LEU33      -0.1231
     28  CA       162.6760  198.0890  270.5320 C.3    33  LEU33       0.1678
     29  C        161.1870  198.0610  270.2270 C.2    33  LEU33       0.2434
     30  O        160.6400  197.0120  269.8670 O.2    33  LEU33      -0.2733
     31  CB       163.4560  198.4440  269.2670 C.3    33  LEU33       0.0284
     32  CG       164.7280  199.2750  269.4020 C.3    33  LEU33       0.0019
     33  CD1      165.7590  198.5940  270.2630 C.3    33  LEU33       0.0001
     34  CD2      165.2900  199.5080  268.0200 C.3    33  LEU33       0.0001
     35  N        160.5050  199.1840  270.3510 N.am   34  PRO34      -0.2718
     36  CA       159.0940  199.2350  269.9590 C.3    34  PRO34       0.1535
     37  C        158.9330  199.1620  268.4550 C.2    34  PRO34       0.2598
     38  O        158.3150  200.0370  267.8420 O.2    34  PRO34      -0.2715
     39  CB       158.6330  200.5860  270.5100 C.3    34  PRO34       0.0310
     40  CG       159.8620  201.3990  270.5270 C.3    34  PRO34       0.0237
     41  CD       160.9620  200.4640  270.9050 C.3    34  PRO34       0.0939
     42  N        159.4930  198.1190  267.8550 N.am   35  ALA35      -0.1978
     43  CA       159.4160  197.9320  266.4160 C.3    35  ALA35       0.1597
     44  C        158.9630  196.5200  266.0850 C.2    35  ALA35       0.2287
     45  O        157.8680  196.3160  265.5560 O.2    35  ALA35      -0.2864
     46  CB       160.7670  198.2180  265.7720 C.3    35  ALA35       0.0319
     47  N        154.8120  205.7770  270.4000 N.3    48  GLU48      -0.1231
     48  CA       156.1280  205.5500  270.9760 C.3    48  GLU48       0.1699
     49  C        157.1830  206.0820  270.0230 C.2    48  GLU48       0.2592
     50  O        157.9510  206.9840  270.3700 O.2    48  GLU48      -0.2718
     51  CB       156.3420  204.0610  271.2350 C.3    48  GLU48       0.0402
     52  CG       157.6910  203.6910  271.8120 C.3    48  GLU48       0.1161
     53  CD       157.8630  204.0630  273.2640 C.2    48  GLU48       0.3649
     54  OE1      156.8590  204.3930  273.9230 O.co2  48  GLU48      -0.2457
     55  OE2      159.0110  204.0040  273.7520 O.co2  48  GLU48      -0.2457
     56  N        157.2190  205.5100  268.8150 N.am   49  ILE49      -0.1980
     57  CA       158.2400  205.8540  267.8260 C.3    49  ILE49       0.1595
     58  C        158.1960  207.3370  267.4970 C.2    49  ILE49       0.2287
     59  O        159.1790  208.0630  267.6800 O.2    49  ILE49      -0.2864
     60  CB       158.0570  205.0050  266.5570 C.3    49  ILE49       0.0276
     61  CG1      158.1620  203.5220  266.8860 C.3    49  ILE49       0.0022
     62  CG2      159.0910  205.3590  265.5420 C.3    49  ILE49       0.0022
     63  CD1      159.4830  203.1510  267.4760 C.3    49  ILE49       0.0001
     64  N        159.4370  209.9030  269.9600 N.3    52  THR52      -0.1203
     65  CA       160.8670  210.1190  270.1320 C.3    52  THR52       0.1994
     66  C        161.4260  211.0090  269.0300 C.2    52  THR52       0.2617
     67  O        162.2330  211.9080  269.2910 O.2    52  THR52      -0.2717
     68  CB       161.5950  208.7800  270.1470 C.3    52  THR52       0.1784
     69  OG1      161.3690  208.1090  268.9050 O.3    52  THR52      -0.2211
     70  CG2      161.0730  207.9150  271.2500 C.3    52  THR52       0.0376
     71  N        161.0040  210.7760  267.7870 N.am   53  HIS53      -0.1975
     72  CA       161.6520  211.4290  266.6550 C.3    53  HIS53       0.1656
     73  C        161.2880  212.9040  266.5800 C.2    53  HIS53       0.2291
     74  O        161.8750  213.6600  265.8030 O.2    53  HIS53      -0.2864
     75  CB       161.2860  210.7210  265.3530 C.3    53  HIS53       0.0771
     76  CG       161.6880  209.2820  265.3190 C.ar   53  HIS53       0.0820
     77  ND1      163.0040  208.8770  265.3530 N.ar   53  HIS53      -0.2267
     78  CD2      160.9510  208.1520  265.2300 C.ar   53  HIS53       0.1154
     79  CE1      163.0590  207.5590  265.3080 C.ar   53  HIS53       0.1986
     80  NE2      161.8270  207.0950  265.2270 N.ar   53  HIS53      -0.2212
     81  N        164.2550  214.6900  269.1100 N.3    56  LEU56      -0.1231
     82  CA       165.6360  214.7480  268.6490 C.3    56  LEU56       0.1693
     83  C        165.7690  215.6030  267.3950 C.2    56  LEU56       0.2591
     84  O        166.8300  216.1760  267.1310 O.2    56  LEU56      -0.2718
     85  CB       166.1380  213.3250  268.4250 C.3    56  LEU56       0.0284
     86  CG       165.3450  212.4630  267.4380 C.3    56  LEU56       0.0019
     87  CD1      165.8630  212.5990  266.0130 C.3    56  LEU56       0.0001
     88  CD2      165.2890  211.0060  267.8690 C.3    56  LEU56       0.0001
     89  N        164.6960  215.7030  266.6060 N.am   57  VAL57      -0.1980
     90  CA       164.7220  216.5260  265.4000 C.3    57  VAL57       0.1595
     91  C        164.6330  218.0050  265.7310 C.2    57  VAL57       0.2287
     92  O        165.1680  218.8380  264.9930 O.2    57  VAL57      -0.2864
     93  CB       163.5960  216.0940  264.4380 C.3    57  VAL57       0.0276
     94  CG1      163.4110  217.1000  263.3330 C.3    57  VAL57       0.0022
     95  CG2      163.9410  214.7630  263.8200 C.3    57  VAL57       0.0022
     96  N        148.6730  202.9940  263.0880 N.3   133  PHE133     -0.1241
     97  CA       150.0410  203.3860  263.3980 C.3   133  PHE133      0.1605
     98  C        150.3040  204.8300  262.9920 C.2   133  PHE133      0.2264
     99  O        150.8950  205.6010  263.7580 O.2   133  PHE133     -0.2867
    100  CB       151.0090  202.4290  262.7010 C.3   133  PHE133      0.0534
    101  CG       152.4490  202.8300  262.7960 C.ar  133  PHE133     -0.0203
    102  CD1      153.1770  202.5940  263.9440 C.ar  133  PHE133     -0.0042
    103  CD2      153.0840  203.4210  261.7190 C.ar  133  PHE133     -0.0042
    104  CE1      154.5040  202.9620  264.0200 C.ar  133  PHE133     -0.0003
    105  CE2      154.4070  203.7880  261.7930 C.ar  133  PHE133     -0.0003
    106  CZ       155.1180  203.5590  262.9420 C.ar  133  PHE133     -0.0000
@<TRIPOS>BOND
     1   103   105   ar
     2   103   101   ar
     3   105   106   ar
     4     7     5    1
     5   100   101    1
     6   100    97    1
     7   101   102   ar
     8   106   104   ar
     9    98    97    1
    10    98    99    2
    11    96    97    1
    12    94    93    1
    13    95    93    1
    14   102   104   ar
    15     5     6    1
    16     5     2    1
    17     4     3    2
    18     3     2    1
    19    93    90    1
    20     1     2    1
    21    92    91    2
    22    80    78   ar
    23    80    79   ar
    24    78    76   ar
    25    79    77   ar
    26    76    77   ar
    27    76    75    1
    28    75    72    1
    29    90    91    1
    30    90    89    1
    31    25    24    1
    32    62    60    1
    33    45    44    2
    34    46    43    1
    35    74    73    2
    36    87    86    1
    37    44    43    1
    38    43    42    1
    39    60    61    1
    40    60    57    1
    41    73    72    1
    42    89    83   am
    43    72    71    1
    44    26    24    1
    45    24    23    1
    46    61    63    1
    47    23    20    1
    48    84    83    2
    49    83    82    1
    50    86    88    1
    51    86    85    1
    52    58    59    2
    53    58    57    1
    54    71    66   am
    55    57    56    1
    56    38    37    2
    57    42    37   am
    58    22    21    2
    59    34    32    1
    60    20    21    1
    61    20    19    1
    62    85    82    1
    63    37    36    1
    64    82    81    1
    65    56    49   am
    66    69    68    1
    67    66    67    2
    68    66    65    1
    69    31    32    1
    70    31    28    1
    71    32    33    1
    72    19    10   am
    73    30    29    2
    74    36    35    1
    75    36    39    1
    76    64    65    1
    77    49    50    2
    78    49    48    1
    79    65    68    1
    80    68    70    1
    81    17    15   ar
    82    17    18   ar
    83    29    35   am
    84    29    28    1
    85    15    13   ar
    86    35    41    1
    87    47    48    1
    88    39    40    1
    89    40    41    1
    90    28    27    1
    91    10    11    2
    92    10     9    1
    93    48    51    1
    94    51    52    1
    95    18    16   ar
    96    13    12    1
    97    13    14   ar
    98    12     9    1
    99    52    53    1
   100     9     8    1
   101    16    14   ar
   102    53    55   ar
   103    53    54   ar
