@<TRIPOS>MOLECULE
tmp/6igzP15.pdb
 88 85 0 0 0
SMALL
GASTEIGER

@<TRIPOS>ATOM
      1  N        191.4500  234.1060  166.1650 N.3    98  LEU98      -0.1231
      2  CA       190.3660  233.7280  165.2680 C.3    98  LEU98       0.1693
      3  C        190.9040  233.0530  164.0200 C.2    98  LEU98       0.2591
      4  O        190.3030  232.1050  163.5080 O.2    98  LEU98      -0.2718
      5  CB       189.5500  234.9660  164.9010 C.3    98  LEU98       0.0284
      6  CG       188.3960  235.3730  165.8150 C.3    98  LEU98       0.0019
      7  CD1      188.8460  235.5820  167.2350 C.3    98  LEU98       0.0001
      8  CD2      187.8270  236.6580  165.3010 C.3    98  LEU98       0.0001
      9  N        192.0390  233.5260  163.5190 N.am   99  LEU99      -0.1980
     10  CA       192.5470  233.0360  162.2480 C.3    99  LEU99       0.1596
     11  C        193.1840  231.6640  162.4080 C.2    99  LEU99       0.2287
     12  O        192.8680  230.7360  161.6600 O.2    99  LEU99      -0.2864
     13  CB       193.5410  234.0430  161.6850 C.3    99  LEU99       0.0297
     14  CG       194.0500  233.8380  160.2760 C.3    99  LEU99       0.0022
     15  CD1      192.8910  233.9940  159.3310 C.3    99  LEU99       0.0001
     16  CD2      195.1010  234.8690  159.9850 C.3    99  LEU99       0.0001
     17  N        192.8150  229.4960  165.0450 N.3   101  GLY101     -0.1210
     18  CA       191.8690  228.5340  165.5710 C.3   101  GLY101      0.1956
     19  C        190.9510  227.9440  164.5340 C.2   101  GLY101      0.2611
     20  O        190.4080  226.8590  164.7450 O.2   101  GLY101     -0.2717
     21  N        190.7570  228.6330  163.4190 N.am  102  TRP102     -0.1976
     22  CA       190.0720  228.0020  162.3050 C.3   102  TRP102      0.1640
     23  C        190.8820  226.8320  161.7770 C.2   102  TRP102      0.2290
     24  O        190.3550  225.7350  161.5830 O.2   102  TRP102     -0.2864
     25  CB       189.8340  229.0040  161.1890 C.3   102  TRP102      0.0576
     26  CG       189.0720  228.4050  160.1050 C.ar  102  TRP102      0.0006
     27  CD1      189.5650  227.8220  158.9920 C.ar  102  TRP102      0.0946
     28  CD2      187.6530  228.3420  160.0020 C.ar  102  TRP102      0.0152
     29  NE1      188.5420  227.3740  158.2020 N.ar  102  TRP102     -0.2442
     30  CE2      187.3540  227.6890  158.8020 C.ar  102  TRP102      0.0810
     31  CE3      186.6020  228.7770  160.8120 C.ar  102  TRP102      0.0012
     32  CZ2      186.0560  227.4600  158.3900 C.ar  102  TRP102      0.0191
     33  CZ3      185.3160  228.5440  160.4040 C.ar  102  TRP102      0.0001
     34  CH2      185.0510  227.8960  159.2050 C.ar  102  TRP102      0.0015
     35  N        191.4750  223.8870  164.7240 N.3   105  ILE105     -0.1231
     36  CA       190.3380  223.0100  164.9760 C.3   105  ILE105      0.1692
     37  C        190.1350  222.0640  163.8040 C.2   105  ILE105      0.2591
     38  O        189.8100  220.8880  163.9910 O.2   105  ILE105     -0.2718
     39  CB       189.0660  223.8110  165.2820 C.3   105  ILE105      0.0266
     40  CG1      189.2120  224.5560  166.5970 C.3   105  ILE105      0.0019
     41  CG2      187.9060  222.8800  165.4260 C.3   105  ILE105      0.0020
     42  CD1      189.4050  223.6290  167.7680 C.3   105  ILE105      0.0001
     43  N        190.3220  222.5570  162.5780 N.am  106  ARG106     -0.1980
     44  CA       190.3550  221.6710  161.4200 C.3   106  ARG106      0.1597
     45  C        191.3670  220.5570  161.6110 C.2   106  ARG106      0.2287
     46  O        191.1480  219.4270  161.1690 O.2   106  ARG106     -0.2864
     47  CB       190.6940  222.4590  160.1590 C.3   106  ARG106      0.0334
     48  CG       189.6600  223.4510  159.7130 C.3   106  ARG106      0.0492
     49  CD       188.5590  222.8030  158.9400 C.3   106  ARG106      0.2205
     50  NE       189.0360  222.2960  157.6650 N.pl3 106  ARG106     -0.0865
     51  CZ       188.2660  221.6550  156.7960 C.cat 106  ARG106      0.5346
     52  NH1      186.9880  221.4660  157.0670 N.pl3 106  ARG106      0.1354
     53  NH2      188.7690  221.2100  155.6560 N.pl3 106  ARG106      0.1354
     54  N        189.6660  218.0890  164.5510 N.3   109  GLN109     -0.1245
     55  CA       188.5230  217.3270  164.0810 C.3   109  GLN109      0.1566
     56  C        188.9000  216.3490  162.9880 C.2   109  GLN109      0.2260
     57  O        188.0990  215.4710  162.6620 O.2   109  GLN109     -0.2867
     58  CB       187.4430  218.2740  163.5850 C.3   109  GLN109      0.0367
     59  CG       186.8930  219.1820  164.6630 C.3   109  GLN109      0.0905
     60  CD       186.2480  218.4210  165.7770 C.2   109  GLN109      0.2608
     61  OE1      185.5940  217.4090  165.5510 O.2   109  GLN109     -0.2717
     62  NE2      186.4160  218.9050  166.9950 N.am  109  GLN109     -0.0878
     63  N        188.7200  215.5180  156.9790 N.3   117  VAL117     -0.1245
     64  CA       188.3360  216.7290  157.6850 C.3   117  VAL117      0.1561
     65  C        187.0490  217.2510  157.0960 C.2   117  VAL117      0.2260
     66  O        186.0590  217.4720  157.7970 O.2   117  VAL117     -0.2867
     67  CB       189.4260  217.8000  157.5660 C.3   117  VAL117      0.0252
     68  CG1      189.1060  218.9600  158.4780 C.3   117  VAL117      0.0019
     69  CG2      190.7510  217.2200  157.8270 C.3   117  VAL117      0.0019
     70  N        181.0370  220.3600  151.8540 N.3   122  ILE122     -0.1231
     71  CA       181.0630  221.3610  152.9150 C.3   122  ILE122      0.1692
     72  C        182.3450  222.1850  152.8200 C.2   122  ILE122      0.2592
     73  O        183.3570  221.7340  152.2920 O.2   122  ILE122     -0.2718
     74  CB       180.9160  220.6910  154.2930 C.3   122  ILE122      0.0266
     75  CG1      179.6300  219.8670  154.3480 C.3   122  ILE122      0.0019
     76  CG2      180.8690  221.7190  155.4090 C.3   122  ILE122      0.0020
     77  CD1      179.8460  218.3860  154.1350 C.3   122  ILE122      0.0001
     78  N        182.2940  223.4170  153.3400 N.am  123  PHE123     -0.1976
     79  CA       183.4300  224.3440  153.3390 C.3   123  PHE123      0.1639
     80  C        183.8550  224.6650  151.9050 C.2   123  PHE123      0.2290
     81  O        184.8900  224.2240  151.4130 O.2   123  PHE123     -0.2864
     82  CB       184.5870  223.7700  154.1610 C.3   123  PHE123      0.0560
     83  CG       185.7930  224.6420  154.2270 C.ar  123  PHE123     -0.0200
     84  CD1      185.7790  225.7990  154.9730 C.ar  123  PHE123     -0.0042
     85  CD2      186.9700  224.2570  153.6330 C.ar  123  PHE123     -0.0042
     86  CE1      186.8910  226.5890  155.0680 C.ar  123  PHE123     -0.0003
     87  CE2      188.0910  225.0420  153.7340 C.ar  123  PHE123     -0.0003
     88  CZ       188.0500  226.2080  154.4520 C.ar  123  PHE123     -0.0000
@<TRIPOS>BOND
     1    81    80    2
     2    70    71    1
     3    80    79    1
     4    73    72    2
     5    72    71    1
     6    72    78   am
     7    71    74    1
     8    79    78    1
     9    79    82    1
    10    85    87   ar
    11    85    83   ar
    12    87    88   ar
    13    77    75    1
    14    82    83    1
    15    83    84   ar
    16    74    75    1
    17    74    76    1
    18    88    86   ar
    19    84    86   ar
    20    53    51    1
    21    51    52    1
    22    51    50    2
    23    63    64    1
    24    65    64    1
    25    65    66    2
    26    67    64    1
    27    67    69    1
    28    67    68    1
    29    50    49    1
    30    29    30   ar
    31    29    27   ar
    32    32    30   ar
    33    32    34   ar
    34    30    28   ar
    35    49    48    1
    36    27    26   ar
    37    34    33   ar
    38    15    14    1
    39    48    47    1
    40    16    14    1
    41    28    26   ar
    42    28    31   ar
    43    26    25    1
    44    47    44    1
    45    14    13    1
    46    33    31   ar
    47    46    45    2
    48    25    22    1
    49    44    45    1
    50    44    43    1
    51    24    23    2
    52    12    11    2
    53    13    10    1
    54    23    22    1
    55    10    11    1
    56    10     9    1
    57    22    21    1
    58    43    37   am
    59    57    56    2
    60    56    55    1
    61    21    19   am
    62     4     3    2
    63     9     3   am
    64    58    55    1
    65    58    59    1
    66    37    38    2
    67    37    36    1
    68     3     2    1
    69    55    54    1
    70    19    20    2
    71    19    18    1
    72    59    60    1
    73    35    36    1
    74     5     2    1
    75     5     6    1
    76    36    39    1
    77    17    18    1
    78     2     1    1
    79    39    41    1
    80    39    40    1
    81     8     6    1
    82    61    60    2
    83    60    62   am
    84     6     7    1
    85    40    42    1
