@<TRIPOS>MOLECULE
tmp/6igzL10.pdb
 99 98 0 0 0
SMALL
GASTEIGER

@<TRIPOS>ATOM
      1  N        157.2190  205.5100  268.8150 N.3    49  ILE49      -0.1245
      2  CA       158.2400  205.8540  267.8260 C.3    49  ILE49       0.1561
      3  C        158.1960  207.3370  267.4970 C.2    49  ILE49       0.2260
      4  O        159.1790  208.0630  267.6800 O.2    49  ILE49      -0.2867
      5  CB       158.0570  205.0050  266.5570 C.3    49  ILE49       0.0252
      6  CG1      158.1620  203.5220  266.8860 C.3    49  ILE49       0.0019
      7  CG2      159.0910  205.3590  265.5420 C.3    49  ILE49       0.0019
      8  CD1      159.4830  203.1510  267.4760 C.3    49  ILE49       0.0001
      9  N        161.0040  210.7760  267.7870 N.3    53  HIS53      -0.1241
     10  CA       161.6520  211.4290  266.6550 C.3    53  HIS53       0.1621
     11  C        161.2880  212.9040  266.5800 C.2    53  HIS53       0.2264
     12  O        161.8750  213.6600  265.8030 O.2    53  HIS53      -0.2867
     13  CB       161.2860  210.7210  265.3530 C.3    53  HIS53       0.0745
     14  CG       161.6880  209.2820  265.3190 C.ar   53  HIS53       0.0817
     15  ND1      163.0040  208.8770  265.3530 N.ar   53  HIS53      -0.2268
     16  CD2      160.9510  208.1520  265.2300 C.ar   53  HIS53       0.1154
     17  CE1      163.0590  207.5590  265.3080 C.ar   53  HIS53       0.1986
     18  NE2      161.8270  207.0950  265.2270 N.ar   53  HIS53      -0.2212
     19  N        155.9830  214.2220  257.3890 N.3    90  LEU90      -0.1245
     20  CA       156.1770  212.7750  257.3910 C.3    90  LEU90       0.1561
     21  C        154.8700  212.0280  257.6190 C.2    90  LEU90       0.2260
     22  O        154.7540  210.8500  257.2660 O.2    90  LEU90      -0.2867
     23  CB       157.2030  212.3900  258.4500 C.3    90  LEU90       0.0270
     24  CG       158.6210  212.8740  258.1920 C.3    90  LEU90       0.0019
     25  CD1      159.4710  212.5740  259.4030 C.3    90  LEU90       0.0001
     26  CD2      159.1710  212.1910  256.9650 C.3    90  LEU90       0.0001
     27  N        153.7670  211.3910  254.2550 N.3    93  CYS93      -0.1221
     28  CA       154.5410  210.2800  253.7160 C.3    93  CYS93       0.1808
     29  C        154.0760  208.9490  254.2950 C.2    93  CYS93       0.2601
     30  O        153.7440  208.0240  253.5430 O.2    93  CYS93      -0.2717
     31  CB       156.0260  210.5090  253.9880 C.3    93  CYS93       0.0970
     32  SG       156.6790  211.9810  253.1750 S.3    93  CYS93      -0.0800
     33  N        154.0230  208.8420  255.6280 N.am   94  LEU94      -0.1979
     34  CA       153.5930  207.6000  256.2690 C.3    94  LEU94       0.1596
     35  C        152.2920  207.0870  255.6940 C.2    94  LEU94       0.2287
     36  O        152.2080  205.9480  255.2230 O.2    94  LEU94      -0.2864
     37  CB       153.4390  207.8180  257.7760 C.3    94  LEU94       0.0297
     38  CG       154.6930  207.8500  258.6240 C.3    94  LEU94       0.0022
     39  CD1      154.3820  208.3440  260.0060 C.3    94  LEU94       0.0001
     40  CD2      155.1530  206.4290  258.6990 C.3    94  LEU94       0.0001
     41  N        150.7820  207.8360  252.9870 N.3    96  ILE96      -0.1231
     42  CA       150.8860  207.5160  251.5650 C.3    96  ILE96       0.1692
     43  C        151.4200  206.1030  251.3720 C.2    96  ILE96       0.2592
     44  O        150.9620  205.3600  250.4970 O.2    96  ILE96      -0.2718
     45  CB       151.7500  208.5600  250.8370 C.3    96  ILE96       0.0266
     46  CG1      150.9660  209.8540  250.6080 C.3    96  ILE96       0.0019
     47  CG2      152.2340  208.0360  249.5250 C.3    96  ILE96       0.0020
     48  CD1      151.8030  210.9690  250.0360 C.3    96  ILE96       0.0001
     49  N        152.3850  205.7010  252.1990 N.am   97  TYR97      -0.1976
     50  CA       152.9880  204.3850  252.0200 C.3    97  TYR97       0.1639
     51  C        151.9800  203.2780  252.2990 C.2    97  TYR97       0.2290
     52  O        152.1520  202.1410  251.8460 O.2    97  TYR97      -0.2864
     53  CB       154.2160  204.2470  252.9150 C.3    97  TYR97       0.0560
     54  CG       154.8700  202.8870  252.8970 C.ar   97  TYR97      -0.0198
     55  CD1      155.7470  202.5200  251.8960 C.ar   97  TYR97      -0.0009
     56  CD2      154.6070  201.9690  253.8950 C.ar   97  TYR97      -0.0009
     57  CE1      156.3480  201.2770  251.9010 C.ar   97  TYR97       0.0417
     58  CE2      155.1990  200.7290  253.9090 C.ar   97  TYR97       0.0417
     59  CZ       156.0660  200.3850  252.9130 C.ar   97  TYR97       0.1957
     60  OH       156.6470  199.1400  252.9350 O.3    97  TYR97      -0.2866
     61  N        148.1000  199.5800  259.6480 N.3   130  TRP130     -0.1241
     62  CA       149.0330  200.6450  259.3010 C.3   130  TRP130      0.1605
     63  C        148.4850  202.0140  259.6810 C.2   130  TRP130      0.2264
     64  O        149.1980  202.8320  260.2710 O.2   130  TRP130     -0.2867
     65  CB       149.3490  200.6030  257.8080 C.3   130  TRP130      0.0550
     66  CG       150.2860  201.6750  257.3760 C.ar  130  TRP130      0.0003
     67  CD1      149.9500  202.8760  256.8410 C.ar  130  TRP130      0.0946
     68  CD2      151.7160  201.6310  257.3970 C.ar  130  TRP130      0.0152
     69  NE1      151.0790  203.5980  256.5530 N.ar  130  TRP130     -0.2442
     70  CE2      152.1770  202.8520  256.8810 C.ar  130  TRP130      0.0810
     71  CE3      152.6490  200.6810  257.8060 C.ar  130  TRP130      0.0012
     72  CZ2      153.5270  203.1500  256.7690 C.ar  130  TRP130      0.0191
     73  CZ3      153.9900  200.9800  257.6920 C.ar  130  TRP130      0.0001
     74  CH2      154.4160  202.2030  257.1830 C.ar  130  TRP130      0.0015
     75  N        148.6730  202.9940  263.0880 N.3   133  PHE133     -0.1241
     76  CA       150.0410  203.3860  263.3980 C.3   133  PHE133      0.1605
     77  C        150.3040  204.8300  262.9920 C.2   133  PHE133      0.2264
     78  O        150.8950  205.6010  263.7580 O.2   133  PHE133     -0.2867
     79  CB       151.0090  202.4290  262.7010 C.3   133  PHE133      0.0534
     80  CG       152.4490  202.8300  262.7960 C.ar  133  PHE133     -0.0203
     81  CD1      153.1770  202.5940  263.9440 C.ar  133  PHE133     -0.0042
     82  CD2      153.0840  203.4210  261.7190 C.ar  133  PHE133     -0.0042
     83  CE1      154.5040  202.9620  264.0200 C.ar  133  PHE133     -0.0003
     84  CE2      154.4070  203.7880  261.7930 C.ar  133  PHE133     -0.0003
     85  CZ       155.1180  203.5590  262.9420 C.ar  133  PHE133     -0.0000
     86  N        151.6310  207.7190  265.0650 N.3   137  TRP137     -0.1241
     87  CA       152.8590  208.4770  264.8560 C.3   137  TRP137      0.1605
     88  C        152.5950  209.9620  265.0210 C.2   137  TRP137      0.2264
     89  O        153.4000  210.6930  265.6060 O.2   137  TRP137     -0.2867
     90  CB       153.4390  208.2060  263.4700 C.3   137  TRP137      0.0550
     91  CG       154.8020  208.7860  263.3190 C.ar  137  TRP137      0.0003
     92  CD1      155.9800  208.1570  263.5700 C.ar  137  TRP137      0.0946
     93  CD2      155.1380  210.1210  262.9270 C.ar  137  TRP137      0.0152
     94  NE1      157.0330  209.0070  263.3440 N.ar  137  TRP137     -0.2442
     95  CE2      156.5420  210.2210  262.9480 C.ar  137  TRP137      0.0810
     96  CE3      154.3940  211.2380  262.5540 C.ar  137  TRP137      0.0012
     97  CZ2      157.2140  211.3930  262.6100 C.ar  137  TRP137      0.0191
     98  CZ3      155.0660  212.4010  262.2180 C.ar  137  TRP137      0.0001
     99  CH2      156.4580  212.4700  262.2480 C.ar  137  TRP137      0.0015
@<TRIPOS>BOND
     1    47    45    1
     2    48    46    1
     3    44    43    2
     4    46    45    1
     5    45    42    1
     6    43    42    1
     7    43    49   am
     8    42    41    1
     9    52    51    2
    10    55    57   ar
    11    55    54   ar
    12    57    59   ar
    13    50    49    1
    14    50    51    1
    15    50    53    1
    16    54    53    1
    17    54    56   ar
    18    59    60    1
    19    59    58   ar
    20    32    31    1
    21    30    29    2
    22    28    31    1
    23    28    27    1
    24    28    29    1
    25    56    58   ar
    26    29    33   am
    27    36    35    2
    28    33    34    1
    29    35    34    1
    30    34    37    1
    31    69    67   ar
    32    69    70   ar
    33    72    70   ar
    34    72    74   ar
    35    67    66   ar
    36    70    68   ar
    37    26    24    1
    38    74    73   ar
    39    22    21    2
    40    66    68   ar
    41    66    65    1
    42    19    20    1
    43    20    21    1
    44    20    23    1
    45    68    71   ar
    46    73    71   ar
    47    37    38    1
    48    65    62    1
    49    24    23    1
    50    24    25    1
    51    38    40    1
    52    38    39    1
    53    62    61    1
    54    62    63    1
    55    63    64    2
    56    82    84   ar
    57    82    80   ar
    58    84    85   ar
    59    98    99   ar
    60    98    96   ar
    61    99    97   ar
    62    96    93   ar
    63    97    95   ar
    64    79    80    1
    65    79    76    1
    66    80    81   ar
    67    93    95   ar
    68    93    91   ar
    69    85    83   ar
    70    95    94   ar
    71    77    76    1
    72    77    78    2
    73    75    76    1
    74    91    90    1
    75    91    92   ar
    76    94    92   ar
    77    90    87    1
    78    81    83   ar
    79    87    88    1
    80    87    86    1
    81    88    89    2
    82    18    16   ar
    83    18    17   ar
    84    16    14   ar
    85    17    15   ar
    86    14    15   ar
    87    14    13    1
    88    13    10    1
    89     7     5    1
    90    12    11    2
    91     5     6    1
    92     5     2    1
    93    11    10    1
    94    10     9    1
    95     6     8    1
    96     3     4    2
    97     3     2    1
    98     2     1    1
