@<TRIPOS>MOLECULE
tmp/6igzN16.pdb
 115 113 0 0 0
SMALL
GASTEIGER

@<TRIPOS>ATOM
      1  N        248.7190  216.5870  200.6520 N.3    73  TRP73      -0.1227
      2  CA       247.4710  216.1990  200.0150 C.3    73  TRP73       0.1737
      3  C        246.3230  217.0490  200.5320 C.2    73  TRP73       0.2595
      4  O        245.5080  217.5480  199.7520 O.2    73  TRP73      -0.2718
      5  CB       247.1980  214.7190  200.2380 C.3    73  TRP73       0.0564
      6  CG       247.0630  214.3310  201.6460 C.ar   73  TRP73       0.0003
      7  CD1      248.0530  213.9310  202.4790 C.ar   73  TRP73       0.0946
      8  CD2      245.8580  214.2970  202.4040 C.ar   73  TRP73       0.0152
      9  NE1      247.5410  213.6500  203.7160 N.ar   73  TRP73      -0.2442
     10  CE2      246.1900  213.8690  203.6910 C.ar   73  TRP73       0.0810
     11  CE3      244.5280  214.5970  202.1180 C.ar   73  TRP73       0.0012
     12  CZ2      245.2450  213.7270  204.6870 C.ar   73  TRP73       0.0191
     13  CZ3      243.5950  214.4550  203.1050 C.ar   73  TRP73       0.0001
     14  CH2      243.9520  214.0210  204.3710 C.ar   73  TRP73       0.0015
     15  N        246.2490  217.2310  201.8430 N.am   74  TYR74      -0.1962
     16  CA       245.3990  218.2760  202.3780 C.3    74  TYR74       0.1771
     17  C        245.9380  219.6180  201.9250 C.2    74  TYR74       0.2619
     18  O        247.1450  219.8020  201.7660 O.2    74  TYR74      -0.2715
     19  CB       245.3670  218.2220  203.8980 C.3    74  TYR74       0.0574
     20  CG       246.7110  218.4710  204.5300 C.ar   74  TYR74      -0.0198
     21  CD1      247.1240  219.7530  204.8490 C.ar   74  TYR74      -0.0009
     22  CD2      247.5680  217.4230  204.8140 C.ar   74  TYR74      -0.0009
     23  CE1      248.3540  219.9840  205.4220 C.ar   74  TYR74       0.0417
     24  CE2      248.7930  217.6430  205.3960 C.ar   74  TYR74       0.0417
     25  CZ       249.1840  218.9230  205.6940 C.ar   74  TYR74       0.1957
     26  OH       250.4110  219.1390  206.2710 O.3    74  TYR74      -0.2866
     27  N        245.0320  220.5580  201.6990 N.am   75  ASP75      -0.1971
     28  CA       245.4060  221.9000  201.2830 C.3    75  ASP75       0.1709
     29  C        246.2000  221.8670  199.9850 C.2    75  ASP75       0.2293
     30  O        247.0070  222.7520  199.7110 O.2    75  ASP75      -0.2864
     31  CB       246.1900  222.6150  202.3860 C.3    75  ASP75       0.1436
     32  CG       246.3000  224.1120  202.1600 C.2    75  ASP75       0.3671
     33  OD1      245.7120  224.6210  201.1860 O.co2  75  ASP75      -0.2456
     34  OD2      246.9640  224.7890  202.9740 O.co2  75  ASP75      -0.2456
     35  N        243.9160  221.3230  197.5990 N.3    77  GLY77      -0.1210
     36  CA       242.7530  221.9050  196.9610 C.3    77  GLY77       0.1956
     37  C        242.8720  223.4100  196.8450 C.2    77  GLY77       0.2611
     38  O        242.6930  223.9750  195.7640 O.2    77  GLY77      -0.2717
     39  N        243.1840  224.0800  197.9550 N.am   78  LYS78      -0.1979
     40  CA       243.3680  225.5230  197.9130 C.3    78  LYS78       0.1596
     41  C        244.4380  225.9010  196.9060 C.2    78  LYS78       0.2287
     42  O        244.1740  226.6290  195.9450 O.2    78  LYS78      -0.2864
     43  CB       243.7350  226.0560  199.2940 C.3    78  LYS78       0.0298
     44  CG       242.6240  225.9730  200.3070 C.3    78  LYS78       0.0038
     45  CD       243.0580  226.4690  201.6760 C.3    78  LYS78       0.0206
     46  CE       241.9020  226.4310  202.6670 C.3    78  LYS78       0.1093
     47  NZ       242.3300  226.8520  204.0290 N.3    78  LYS78      -0.1314
     48  N        243.3780  226.3020  193.3540 N.3    81  ILE81      -0.1245
     49  CA       242.4820  227.4260  193.0980 C.3    81  ILE81       0.1561
     50  C        242.9510  228.7020  193.7720 C.2    81  ILE81       0.2260
     51  O        242.3690  229.7660  193.5330 O.2    81  ILE81      -0.2867
     52  CB       241.0370  227.1230  193.5270 C.3    81  ILE81       0.0252
     53  CG1      240.9480  226.9420  195.0360 C.3    81  ILE81       0.0019
     54  CG2      240.5410  225.8930  192.8190 C.3    81  ILE81       0.0019
     55  CD1      240.3810  228.1450  195.7740 C.3    81  ILE81       0.0001
     56  N        236.2370  227.6610  190.2780 N.3    88  PHE88      -0.1241
     57  CA       235.9340  226.4220  190.9820 C.3    88  PHE88       0.1605
     58  C        234.6770  225.7700  190.4310 C.2    88  PHE88       0.2264
     59  O        234.6200  224.5440  190.2840 O.2    88  PHE88      -0.2867
     60  CB       235.7800  226.7020  192.4720 C.3    88  PHE88       0.0534
     61  CG       235.3730  225.5060  193.2800 C.ar   88  PHE88      -0.0203
     62  CD1      236.3090  224.5820  193.6940 C.ar   88  PHE88      -0.0042
     63  CD2      234.0510  225.3180  193.6420 C.ar   88  PHE88      -0.0042
     64  CE1      235.9310  223.4920  194.4480 C.ar   88  PHE88      -0.0003
     65  CE2      233.6720  224.2300  194.3930 C.ar   88  PHE88      -0.0003
     66  CZ       234.6100  223.3170  194.7950 C.ar   88  PHE88      -0.0000
     67  N        235.0880  223.7410  187.2530 N.3    91  LEU91      -0.1231
     68  CA       235.8310  222.5020  187.4390 C.3    91  LEU91       0.1693
     69  C        234.9550  221.4330  188.0670 C.2    91  LEU91       0.2591
     70  O        234.8830  220.3080  187.5660 O.2    91  LEU91      -0.2718
     71  CB       237.0600  222.7580  188.3050 C.3    91  LEU91       0.0284
     72  CG       238.1440  221.6900  188.3390 C.3    91  LEU91       0.0019
     73  CD1      239.4540  222.3670  188.6270 C.3    91  LEU91       0.0001
     74  CD2      237.8710  220.6180  189.3690 C.3    91  LEU91       0.0001
     75  N        234.2800  221.7700  189.1650 N.am   92  LEU92      -0.1980
     76  CA       233.4340  220.8000  189.8460 C.3    92  LEU92       0.1596
     77  C        232.2680  220.3630  188.9820 C.2    92  LEU92       0.2287
     78  O        231.7800  219.2390  189.1210 O.2    92  LEU92      -0.2864
     79  CB       232.9240  221.3880  191.1540 C.3    92  LEU92       0.0297
     80  CG       231.8590  220.5840  191.8890 C.3    92  LEU92       0.0022
     81  CD1      232.3710  219.2200  192.2900 C.3    92  LEU92       0.0001
     82  CD2      231.3510  221.3460  193.0940 C.3    92  LEU92       0.0001
     83  N        233.5380  217.8690  186.3830 N.3    95  GLN95      -0.1245
     84  CA       233.5170  216.6170  187.1220 C.3    95  GLN95       0.1566
     85  C        232.1910  215.9140  186.9020 C.2    95  GLN95       0.2260
     86  O        232.1160  214.9310  186.1640 O.2    95  GLN95      -0.2867
     87  CB       233.6880  216.8950  188.6130 C.3    95  GLN95       0.0367
     88  CG       233.6650  215.7000  189.5180 C.3    95  GLN95       0.0905
     89  CD       234.9730  215.0220  189.5860 C.2    95  GLN95       0.2608
     90  OE1      235.2150  214.0380  188.9030 O.2    95  GLN95      -0.2717
     91  NE2      235.8440  215.5340  190.4350 N.am   95  GLN95      -0.0878
     92  N        244.0180  209.9820  206.6630 N.3   177  TYR177     -0.1241
     93  CA       243.0270  210.8940  207.2080 C.3   177  TYR177      0.1605
     94  C        243.2120  211.0590  208.7040 C.2   177  TYR177      0.2264
     95  O        243.3820  212.1760  209.2030 O.2   177  TYR177     -0.2867
     96  CB       241.6300  210.3780  206.9030 C.3   177  TYR177      0.0534
     97  CG       241.3370  210.3040  205.4390 C.ar  177  TYR177     -0.0201
     98  CD1      241.7790  211.2860  204.5820 C.ar  177  TYR177     -0.0009
     99  CD2      240.6100  209.2570  204.9120 C.ar  177  TYR177     -0.0009
    100  CE1      241.5130  211.2230  203.2460 C.ar  177  TYR177      0.0417
    101  CE2      240.3350  209.1890  203.5730 C.ar  177  TYR177      0.0417
    102  CZ       240.7910  210.1730  202.7470 C.ar  177  TYR177      0.1957
    103  OH       240.5200  210.1090  201.4080 O.3   177  TYR177     -0.2866
    104  N        246.3180  212.7140  209.9000 N.3   180  TYR180     -0.1241
    105  CA       246.3190  214.1370  209.6030 C.3   180  TYR180      0.1605
    106  C        245.5340  214.9130  210.6430 C.2   180  TYR180      0.2264
    107  O        246.0070  215.9320  211.1510 O.2   180  TYR180     -0.2867
    108  CB       245.7500  214.4020  208.2160 C.3   180  TYR180      0.0534
    109  CG       245.3360  215.8410  208.0170 C.ar  180  TYR180     -0.0201
    110  CD1      246.2740  216.8460  207.8940 C.ar  180  TYR180     -0.0009
    111  CD2      244.0000  216.1850  207.9390 C.ar  180  TYR180     -0.0009
    112  CE1      245.8940  218.1490  207.7170 C.ar  180  TYR180      0.0417
    113  CE2      243.6120  217.4820  207.7560 C.ar  180  TYR180      0.0417
    114  CZ       244.5610  218.4610  207.6470 C.ar  180  TYR180      0.1957
    115  OH       244.1690  219.7640  207.4620 O.3   180  TYR180     -0.2866
@<TRIPOS>BOND
     1    86    85    2
     2    83    84    1
     3    85    84    1
     4    84    87    1
     5    67    68    1
     6    68    69    1
     7    68    71    1
     8    70    69    2
     9    69    75   am
    10    71    72    1
    11    72    73    1
    12    72    74    1
    13    87    88    1
    14    90    89    2
    15    77    78    2
    16    77    76    1
    17    75    76    1
    18    88    89    1
    19    89    91   am
    20    76    79    1
    21    56    57    1
    22    59    58    2
    23    58    57    1
    24    57    60    1
    25    79    80    1
    26    80    81    1
    27    80    82    1
    28    60    61    1
    29    54    52    1
    30    49    48    1
    31    49    52    1
    32    49    50    1
    33    61    63   ar
    34    61    62   ar
    35    52    53    1
    36    51    50    2
    37    63    65   ar
    38    62    64   ar
    39    65    66   ar
    40    64    66   ar
    41    53    55    1
    42    38    37    2
    43    42    41    2
    44    37    36    1
    45    37    39   am
    46    41    40    1
    47    36    35    1
    48    40    39    1
    49    40    43    1
    50    43    44    1
    51    30    29    2
    52     4     3    2
    53    29    28    1
    54     2     5    1
    55     2     3    1
    56     2     1    1
    57     5     6    1
    58    44    45    1
    59     3    15   am
    60    33    32   ar
    61    28    27    1
    62    28    31    1
    63   103   102    1
    64     6     8   ar
    65     6     7   ar
    66    45    46    1
    67    27    17   am
    68    18    17    2
    69    15    16    1
    70    17    16    1
    71    11     8   ar
    72    11    13   ar
    73    32    31    1
    74    32    34   ar
    75    16    19    1
    76     8    10   ar
    77     7     9   ar
    78    46    47    1
    79   102   100   ar
    80   102   101   ar
    81    13    14   ar
    82   100    98   ar
    83   101    99   ar
    84    10     9   ar
    85    10    12   ar
    86    19    20    1
    87    14    12   ar
    88    20    22   ar
    89    20    21   ar
    90    98    97   ar
    91    22    24   ar
    92    21    23   ar
    93    99    97   ar
    94    24    25   ar
    95    23    25   ar
    96    97    96    1
    97    25    26    1
    98    92    93    1
    99    96    93    1
   100    93    94    1
   101   115   114    1
   102   114   112   ar
   103   114   113   ar
   104   112   110   ar
   105   113   111   ar
   106   110   109   ar
   107   111   109   ar
   108   109   108    1
   109   108   105    1
   110    94    95    2
   111   105   104    1
   112   105   106    1
   113   106   107    2
