@<TRIPOS>MOLECULE
tmp/6igzN12.pdb
 197 194 0 0 0
SMALL
GASTEIGER

@<TRIPOS>ATOM
      1  N        239.9640  184.5570  208.5610 N.3     4  TRP4       -0.1241
      2  CA       240.3150  185.4970  209.6110 C.3     4  TRP4        0.1605
      3  C        239.8130  184.9600  210.9390 C.2     4  TRP4        0.2264
      4  O        238.8660  184.1750  210.9900 O.2     4  TRP4       -0.2867
      5  CB       239.6670  186.8490  209.3530 C.3     4  TRP4        0.0550
      6  CG       238.2170  186.7720  209.5670 C.ar    4  TRP4        0.0003
      7  CD1      237.3080  186.1790  208.7600 C.ar    4  TRP4        0.0946
      8  CD2      237.4810  187.3290  210.6610 C.ar    4  TRP4        0.0152
      9  NE1      236.0520  186.2960  209.2940 N.ar    4  TRP4       -0.2442
     10  CE2      236.1370  187.0090  210.4600 C.ar    4  TRP4        0.0810
     11  CE3      237.8330  188.0590  211.7920 C.ar    4  TRP4        0.0012
     12  CZ2      235.1470  187.3970  211.3410 C.ar    4  TRP4        0.0191
     13  CZ3      236.8490  188.4370  212.6660 C.ar    4  TRP4        0.0001
     14  CH2      235.5250  188.1080  212.4370 C.ar    4  TRP4        0.0015
     15  N        228.7220  182.5790  202.4290 N.3    14  LEU14      -0.1245
     16  CA       229.9040  182.7250  201.5900 C.3    14  LEU14       0.1561
     17  C        230.9970  181.8150  202.1370 C.2    14  LEU14       0.2260
     18  O        231.6420  182.1170  203.1410 O.2    14  LEU14      -0.2867
     19  CB       230.3370  184.1880  201.5070 C.3    14  LEU14       0.0270
     20  CG       230.6990  185.1110  202.6810 C.3    14  LEU14       0.0019
     21  CD1      232.1190  184.9910  203.1750 C.3    14  LEU14       0.0001
     22  CD2      230.4600  186.5300  202.2600 C.3    14  LEU14       0.0001
     23  N        235.4750  183.8380  195.5770 N.3    18  LEU18      -0.1231
     24  CA       235.5830  185.2480  195.3560 C.3    18  LEU18       0.1678
     25  C        237.0530  185.5340  195.5860 C.2    18  LEU18       0.2434
     26  O        237.6620  184.9300  196.4780 O.2    18  LEU18      -0.2733
     27  CB       234.7220  186.0700  196.3140 C.3    18  LEU18       0.0284
     28  CG       233.2130  185.9120  196.1780 C.3    18  LEU18       0.0019
     29  CD1      232.4950  186.7000  197.2510 C.3    18  LEU18       0.0001
     30  CD2      232.7680  186.3710  194.8120 C.3    18  LEU18       0.0001
     31  N        237.6590  186.4150  194.8030 N.am   19  PRO19      -0.2718
     32  CA       239.0580  186.7550  195.0610 C.3    19  PRO19       0.1535
     33  C        239.1940  187.3940  196.4330 C.2    19  PRO19       0.2599
     34  O        238.4790  188.3360  196.7720 O.2    19  PRO19      -0.2715
     35  CB       239.3990  187.7250  193.9300 C.3    19  PRO19       0.0310
     36  CG       238.0910  188.2900  193.5210 C.3    19  PRO19       0.0237
     37  CD       237.1110  187.1710  193.6700 C.3    19  PRO19       0.0939
     38  N        240.1090  186.8570  197.2280 N.am   20  GLY20      -0.1941
     39  CA       240.3210  187.3500  198.5680 C.3    20  GLY20       0.2014
     40  C        239.1310  187.1570  199.4800 C.2    20  GLY20       0.2639
     41  O        238.7110  188.1010  200.1480 O.2    20  GLY20      -0.2714
     42  N        238.5840  185.9490  199.5390 N.am   21  ASP21      -0.1957
     43  CA       237.4650  185.6470  200.4270 C.3    21  ASP21       0.1840
     44  C        237.9960  184.9180  201.6510 C.2    21  ASP21       0.2622
     45  O        238.3160  183.7290  201.5920 O.2    21  ASP21      -0.2715
     46  CB       236.4250  184.8020  199.7090 C.3    21  ASP21       0.1450
     47  CG       235.3380  184.3220  200.6340 C.2    21  ASP21       0.3671
     48  OD1      234.5620  185.1630  201.1190 O.co2  21  ASP21      -0.2456
     49  OD2      235.2610  183.1020  200.8810 O.co2  21  ASP21      -0.2456
     50  N        238.0670  185.6290  202.7660 N.am   22  TYR22      -0.1960
     51  CA       238.5260  185.0750  204.0260 C.3    22  TYR22       0.1771
     52  C        237.3960  184.7230  204.9680 C.2    22  TYR22       0.2620
     53  O        237.6590  184.3590  206.1130 O.2    22  TYR22      -0.2715
     54  CB       239.4800  186.0510  204.6830 C.3    22  TYR22       0.0574
     55  CG       240.7040  186.2350  203.8470 C.ar   22  TYR22      -0.0198
     56  CD1      241.3990  185.1430  203.3720 C.ar   22  TYR22      -0.0009
     57  CD2      241.1200  187.4930  203.4600 C.ar   22  TYR22      -0.0009
     58  CE1      242.5120  185.2990  202.5930 C.ar   22  TYR22       0.0417
     59  CE2      242.2300  187.6570  202.6740 C.ar   22  TYR22       0.0417
     60  CZ       242.9210  186.5560  202.2460 C.ar   22  TYR22       0.1957
     61  OH       244.0300  186.7100  201.4580 O.3    22  TYR22      -0.2866
     62  N        236.1530  184.8560  204.5360 N.am   23  GLY23      -0.1940
     63  CA       235.0500  184.5590  205.4210 C.3    23  GLY23       0.2014
     64  C        234.8570  185.6020  206.4910 C.2    23  GLY23       0.2639
     65  O        234.6850  185.2640  207.6650 O.2    23  GLY23      -0.2714
     66  N        234.9060  186.8650  206.1230 N.am   24  TYR24      -0.1959
     67  CA       234.6970  187.9550  207.0540 C.3    24  TYR24       0.1771
     68  C        233.4360  188.6830  206.6400 C.2    24  TYR24       0.2619
     69  O        233.4370  189.4330  205.6660 O.2    24  TYR24      -0.2715
     70  CB       235.9120  188.8600  207.0390 C.3    24  TYR24       0.0574
     71  CG       235.8090  190.1280  207.8180 C.ar   24  TYR24      -0.0198
     72  CD1      235.8330  190.1200  209.1870 C.ar   24  TYR24      -0.0009
     73  CD2      235.7750  191.3410  207.1800 C.ar   24  TYR24      -0.0009
     74  CE1      235.7730  191.2790  209.8910 C.ar   24  TYR24       0.0417
     75  CE2      235.7220  192.4990  207.8810 C.ar   24  TYR24       0.0417
     76  CZ       235.7190  192.4650  209.2340 C.ar   24  TYR24       0.1957
     77  OH       235.6630  193.6310  209.9440 O.3    24  TYR24      -0.2866
     78  N        232.3650  188.4520  207.3720 N.am   25  ASP25      -0.1971
     79  CA       231.1520  189.2360  207.2330 C.3    25  ASP25       0.1709
     80  C        230.5030  189.3340  208.6060 C.2    25  ASP25       0.2293
     81  O        229.3670  188.8870  208.7830 O.2    25  ASP25      -0.2864
     82  CB       230.2140  188.5830  206.2190 C.3    25  ASP25       0.1436
     83  CG       229.0080  189.4300  205.9080 C.2    25  ASP25       0.3671
     84  OD1      228.9330  190.5680  206.4050 O.co2  25  ASP25      -0.2456
     85  OD2      228.1250  188.9540  205.1720 O.co2  25  ASP25      -0.2456
     86  N        228.9350  191.3780  210.4380 N.3    27  LEU27      -0.1245
     87  CA       227.5660  191.8580  210.5290 C.3    27  LEU27       0.1561
     88  C        226.6430  191.1920  209.5240 C.2    27  LEU27       0.2260
     89  O        225.4670  191.5520  209.4590 O.2    27  LEU27      -0.2867
     90  CB       227.5000  193.3730  210.3500 C.3    27  LEU27       0.0270
     91  CG       228.1590  194.2500  211.4020 C.3    27  LEU27       0.0019
     92  CD1      227.9440  195.7000  211.0520 C.3    27  LEU27       0.0001
     93  CD2      227.6060  193.9400  212.7650 C.3    27  LEU27       0.0001
     94  N        226.3140  191.2120  206.0730 N.3    29  LEU29      -0.1231
     95  CA       225.7070  192.0350  205.0390 C.3    29  LEU29       0.1693
     96  C        225.7810  191.4070  203.6600 C.2    29  LEU29       0.2591
     97  O        225.2660  191.9900  202.7050 O.2    29  LEU29      -0.2718
     98  CB       226.3460  193.4220  205.0020 C.3    29  LEU29       0.0284
     99  CG       225.6840  194.4170  205.9520 C.3    29  LEU29       0.0019
    100  CD1      225.9500  194.0380  207.3700 C.3    29  LEU29       0.0001
    101  CD2      226.1340  195.8270  205.7040 C.3    29  LEU29       0.0001
    102  N        226.4020  190.2480  203.5270 N.am   30  ALA30      -0.1980
    103  CA       226.3370  189.4970  202.2870 C.3    30  ALA30       0.1597
    104  C        225.1780  188.5170  202.2660 C.2    30  ALA30       0.2287
    105  O        225.0430  187.7600  201.3000 O.2    30  ALA30      -0.2864
    106  CB       227.6430  188.7460  202.0560 C.3    30  ALA30       0.0319
    107  N        225.1110  190.6930  197.3490 N.3    36  LEU36      -0.1245
    108  CA       226.5370  190.4160  197.4840 C.3    36  LEU36       0.1561
    109  C        227.3120  190.8960  196.2680 C.2    36  LEU36       0.2260
    110  O        228.3280  191.5850  196.4010 O.2    36  LEU36      -0.2867
    111  CB       226.7680  188.9310  197.7100 C.3    36  LEU36       0.0270
    112  CG       228.2460  188.5900  197.7330 C.3    36  LEU36       0.0019
    113  CD1      228.9230  189.3670  198.8250 C.3    36  LEU36       0.0001
    114  CD2      228.4180  187.1100  197.9550 C.3    36  LEU36       0.0001
    115  N        228.0950  194.3590  196.5950 N.3    39  TRP39      -0.1227
    116  CA       229.1840  194.7440  197.4750 C.3    39  TRP39       0.1737
    117  C        230.5220  194.3850  196.8670 C.2    39  TRP39       0.2595
    118  O        231.5040  195.1050  197.0570 O.2    39  TRP39      -0.2718
    119  CB       229.0550  194.0820  198.8390 C.3    39  TRP39       0.0564
    120  CG       227.8880  194.5230  199.5940 C.ar   39  TRP39       0.0003
    121  CD1      226.7970  193.7910  199.9100 C.ar   39  TRP39       0.0946
    122  CD2      227.6370  195.8410  200.0530 C.ar   39  TRP39       0.0152
    123  NE1      225.9020  194.5570  200.6020 N.ar   39  TRP39      -0.2442
    124  CE2      226.3920  195.8290  200.6910 C.ar   39  TRP39       0.0810
    125  CE3      228.3580  197.0300  200.0080 C.ar   39  TRP39       0.0012
    126  CZ2      225.8500  196.9580  201.2760 C.ar   39  TRP39       0.0191
    127  CZ3      227.8260  198.1400  200.5930 C.ar   39  TRP39       0.0001
    128  CH2      226.5840  198.1040  201.2170 C.ar   39  TRP39       0.0015
    129  N        230.5810  193.2660  196.1460 N.am   40  VAL40      -0.1980
    130  CA       231.8340  192.8560  195.5270 C.3    40  VAL40       0.1595
    131  C        232.3070  193.9170  194.5530 C.2    40  VAL40       0.2287
    132  O        233.5050  194.1950  194.4540 O.2    40  VAL40      -0.2864
    133  CB       231.6780  191.4930  194.8380 C.3    40  VAL40       0.0276
    134  CG1      232.9540  191.1280  194.1430 C.3    40  VAL40       0.0022
    135  CG2      231.3250  190.4390  195.8470 C.3    40  VAL40       0.0022
    136  N        231.3400  197.1120  194.9010 N.3    42  ALA42      -0.1231
    137  CA       231.6020  198.2460  195.7780 C.3    42  ALA42       0.1694
    138  C        233.0190  198.2010  196.3310 C.2    42  ALA42       0.2591
    139  O        233.7240  199.2120  196.3300 O.2    42  ALA42      -0.2718
    140  CB       230.5840  198.2760  196.9110 C.3    42  ALA42       0.0304
    141  N        233.4570  197.0410  196.8120 N.am   43  GLU43      -0.1979
    142  CA       234.8320  196.9370  197.2790 C.3    43  GLU43       0.1602
    143  C        235.8120  197.1870  196.1510 C.2    43  GLU43       0.2287
    144  O        236.6900  198.0470  196.2590 O.2    43  GLU43      -0.2864
    145  CB       235.1020  195.5730  197.8980 C.3    43  GLU43       0.0415
    146  CG       236.5700  195.3910  198.2680 C.3    43  GLU43       0.1163
    147  CD       236.8210  194.1030  199.0020 C.2    43  GLU43       0.3649
    148  OE1      235.8470  193.3690  199.2240 O.co2  43  GLU43      -0.2457
    149  OE2      237.9780  193.8200  199.3620 O.co2  43  GLU43      -0.2457
    150  N        236.2180  200.8580  195.4630 N.3    46  HIS46      -0.1241
    151  CA       236.9790  201.5220  196.5140 C.3    46  HIS46       0.1621
    152  C        238.4330  201.0910  196.5070 C.2    46  HIS46       0.2264
    153  O        239.3340  201.9200  196.6640 O.2    46  HIS46      -0.2867
    154  CB       236.3560  201.2410  197.8720 C.3    46  HIS46       0.0745
    155  CG       235.0850  201.9780  198.1190 C.ar   46  HIS46       0.0817
    156  ND1      235.0620  203.2990  198.4950 N.ar   46  HIS46      -0.2268
    157  CD2      233.7950  201.5920  198.0200 C.ar   46  HIS46       0.1154
    158  CE1      233.8120  203.6890  198.6440 C.ar   46  HIS46       0.1986
    159  NE2      233.0230  202.6740  198.3520 N.ar   46  HIS46      -0.2212
    160  N        242.6600  196.2130  199.7770 N.3   167  ARG167     -0.1245
    161  CA       242.2300  196.2780  201.1670 C.3   167  ARG167      0.1563
    162  C        243.2720  196.9870  202.0180 C.2   167  ARG167      0.2260
    163  O        242.9300  197.6290  203.0110 O.2   167  ARG167     -0.2867
    164  CB       241.9780  194.8790  201.7300 C.3   167  ARG167      0.0307
    165  CG       241.0350  193.9600  200.9680 C.3   167  ARG167      0.0489
    166  CD       240.9440  192.6580  201.7380 C.3   167  ARG167      0.2205
    167  NE       240.4070  191.5470  200.9790 N.pl3 167  ARG167     -0.0865
    168  CZ       239.1220  191.3700  200.7070 C.cat 167  ARG167      0.5346
    169  NH1      238.7450  190.3190  200.0120 N.pl3 167  ARG167      0.1354
    170  NH2      238.2440  192.2890  201.0500 N.pl3 167  ARG167      0.1354
    171  N        243.0640  200.9200  201.2030 N.3   170  MET170     -0.1230
    172  CA       241.9860  201.5210  201.9720 C.3   170  MET170      0.1702
    173  C        242.4200  201.7270  203.4130 C.2   170  MET170      0.2592
    174  O        242.4150  202.8460  203.9310 O.2   170  MET170     -0.2718
    175  CB       240.7570  200.6260  201.9360 C.3   170  MET170      0.0401
    176  CG       240.1620  200.3350  200.5970 C.3   170  MET170      0.0596
    177  SD       238.8730  199.1390  200.9280 S.3   170  MET170     -0.1393
    178  CE       238.2960  198.7350  199.3060 C.3   170  MET170      0.0692
    179  N        242.8210  200.6430  204.0730 N.am  171  PHE171     -0.1976
    180  CA       243.1600  200.7010  205.4860 C.3   171  PHE171      0.1639
    181  C        244.3350  201.6160  205.7690 C.2   171  PHE171      0.2290
    182  O        244.4630  202.1070  206.8910 O.2   171  PHE171     -0.2864
    183  CB       243.4550  199.3020  206.0020 C.3   171  PHE171      0.0560
    184  CG       243.8970  199.2680  207.4240 C.ar  171  PHE171     -0.0200
    185  CD1      242.9880  199.4450  208.4430 C.ar  171  PHE171     -0.0042
    186  CD2      245.2130  199.0340  207.7460 C.ar  171  PHE171     -0.0042
    187  CE1      243.3840  199.4080  209.7480 C.ar  171  PHE171     -0.0003
    188  CE2      245.6120  198.9920  209.0530 C.ar  171  PHE171     -0.0003
    189  CZ       244.6960  199.1770  210.0560 C.ar  171  PHE171     -0.0000
    190  N        242.8070  205.1470  205.3870 N.3   174  LEU174     -0.1245
    191  CA       242.1760  205.5750  206.6220 C.3   174  LEU174      0.1561
    192  C        243.1970  206.1640  207.5770 C.2   174  LEU174      0.2260
    193  O        242.8560  207.0200  208.3950 O.2   174  LEU174     -0.2867
    194  CB       241.4420  204.4060  207.2710 C.3   174  LEU174      0.0270
    195  CG       240.7850  204.6490  208.6210 C.3   174  LEU174      0.0019
    196  CD1      239.7670  205.7440  208.5120 C.3   174  LEU174      0.0001
    197  CD2      240.1250  203.3760  209.0800 C.3   174  LEU174      0.0001
@<TRIPOS>BOND
     1    36    37    1
     2    36    35    1
     3    37    31    1
     4    35    32    1
     5   134   133    1
     6   132   131    2
     7   131   130    1
     8    31    32    1
     9    31    25   am
    10    30    28    1
    11   133   130    1
    12   133   135    1
    13   136   137    1
    14    32    33    1
    15    24    23    1
    16    24    25    1
    17    24    27    1
    18   150   151    1
    19   130   129    1
    20    25    26    2
    21   137   138    1
    22   137   140    1
    23   129   117   am
    24   143   144    2
    25   143   142    1
    26    28    27    1
    27    28    29    1
    28   109   110    2
    29   109   108    1
    30   139   138    2
    31   138   141   am
    32    33    34    2
    33    33    38   am
    34   152   151    1
    35   152   153    2
    36   151   154    1
    37   115   116    1
    38   141   142    1
    39   117   118    2
    40   117   116    1
    41    38    39    1
    42   142   145    1
    43   107   108    1
    44   116   119    1
    45   108   111    1
    46   111   112    1
    47   112   114    1
    48   112   113    1
    49   154   155    1
    50   145   146    1
    51   157   155   ar
    52   157   159   ar
    53   155   156   ar
    54   146   147    1
    55   159   158   ar
    56   156   158   ar
    57    39    40    1
    58   119   120    1
    59   147   148   ar
    60   147   149   ar
    61   178   177    1
    62    40    42   am
    63    40    41    2
    64    42    43    1
    65   120   121   ar
    66   120   122   ar
    67    46    43    1
    68    46    47    1
    69   160   161    1
    70   121   123   ar
    71   125   122   ar
    72   125   127   ar
    73   169   168    1
    74   122   124   ar
    75    43    44    1
    76   127   128   ar
    77   176   177    1
    78   176   175    1
    79   123   124   ar
    80    47    49   ar
    81    47    48   ar
    82   124   126   ar
    83   168   167    2
    84   168   170    1
    85   165   164    1
    86   165   166    1
    87   167   166    1
    88   161   164    1
    89   161   162    1
    90   171   172    1
    91   128   126   ar
    92   105   104    2
    93    61    60    1
    94    19    16    1
    95    19    20    1
    96    16    17    1
    97    16    15    1
    98    45    44    2
    99    44    50   am
   100   175   172    1
   101   172   173    1
   102   162   163    2
   103   106   103    1
   104    17    18    2
   105    60    58   ar
   106    60    59   ar
   107    22    20    1
   108   104   103    1
   109   103   102    1
   110    58    56   ar
   111    59    57   ar
   112    20    21    1
   113    97    96    2
   114    50    51    1
   115    56    55   ar
   116   173   174    2
   117   173   179   am
   118    57    55   ar
   119   102    96   am
   120    96    95    1
   121    55    54    1
   122    51    54    1
   123    51    52    1
   124   179   180    1
   125    62    52   am
   126    62    63    1
   127    52    53    2
   128    98    95    1
   129    98    99    1
   130    95    94    1
   131    85    83   ar
   132   190   191    1
   133    63    64    1
   134   180   181    1
   135   180   183    1
   136    69    68    2
   137   101    99    1
   138   181   182    2
   139    83    82    1
   140    83    84   ar
   141    99   100    1
   142   183   184    1
   143    66    64   am
   144    66    67    1
   145    82    79    1
   146    64    65    2
   147   191   194    1
   148   191   192    1
   149    68    67    1
   150    68    78   am
   151    70    67    1
   152    70    71    1
   153    73    71   ar
   154    73    75   ar
   155    79    78    1
   156    79    80    1
   157   194   195    1
   158   184   186   ar
   159   184   185   ar
   160   192   193    2
   161   186   188   ar
   162    71    72   ar
   163    75    76   ar
   164   185   187   ar
   165   196   195    1
   166     1     2    1
   167    80    81    2
   168   195   197    1
   169     7     9   ar
   170     7     6   ar
   171   188   189   ar
   172    72    74   ar
   173    76    74   ar
   174    76    77    1
   175     9    10   ar
   176     5     6    1
   177     5     2    1
   178    89    88    2
   179    88    87    1
   180     6     8   ar
   181     2     3    1
   182   187   189   ar
   183    90    87    1
   184    90    91    1
   185    86    87    1
   186    10     8   ar
   187    10    12   ar
   188     8    11   ar
   189     3     4    2
   190    92    91    1
   191    12    14   ar
   192    91    93    1
   193    11    13   ar
   194    14    13   ar
