@<TRIPOS>MOLECULE
tmp/6igzS11.pdb
 171 167 0 0 0
SMALL
GASTEIGER

@<TRIPOS>ATOM
      1  N        281.6560  181.3650  212.7210 N.3    53  MET53      -0.1230
      2  CA       282.9710  180.7760  212.9270 C.3    53  MET53       0.1702
      3  C        284.0530  181.6210  212.2810 C.2    53  MET53       0.2592
      4  O        285.1150  181.8370  212.8710 O.2    53  MET53      -0.2718
      5  CB       283.0030  179.3520  212.3860 C.3    53  MET53       0.0401
      6  CG       282.1890  178.3820  213.1860 C.3    53  MET53       0.0596
      7  SD       282.3790  176.6960  212.6020 S.3    53  MET53      -0.1393
      8  CE       281.3940  176.7360  211.1170 C.3    53  MET53       0.0692
      9  N        283.8020  182.1220  211.0760 N.am   54  MET54      -0.1979
     10  CA       284.7350  183.0740  210.4930 C.3    54  MET54       0.1605
     11  C        284.7330  184.3770  211.2710 C.2    54  MET54       0.2287
     12  O        285.7830  184.9990  211.4550 O.2    54  MET54      -0.2864
     13  CB       284.3900  183.3260  209.0350 C.3    54  MET54       0.0413
     14  CG       284.6500  182.1560  208.1480 C.3    54  MET54       0.0598
     15  SD       286.3900  181.7300  208.2190 S.3    54  MET54      -0.1393
     16  CE       287.1080  183.2160  207.5350 C.3    54  MET54       0.0692
     17  N        284.0200  184.9760  214.5890 N.3    56  VAL56      -0.1231
     18  CA       284.7000  184.8500  215.8760 C.3    56  VAL56       0.1692
     19  C        286.2090  184.8880  215.6890 C.2    56  VAL56       0.2591
     20  O        286.9230  185.6160  216.3860 O.2    56  VAL56      -0.2718
     21  CB       284.2640  183.5610  216.5900 C.3    56  VAL56       0.0266
     22  CG1      285.0920  183.3540  217.8240 C.3    56  VAL56       0.0020
     23  CG2      282.8090  183.6310  216.9560 C.3    56  VAL56       0.0020
     24  N        286.7170  184.1000  214.7440 N.am   57  VAL57      -0.1980
     25  CA       288.1550  184.0650  214.5230 C.3    57  VAL57       0.1595
     26  C        288.6460  185.4080  214.0070 C.2    57  VAL57       0.2287
     27  O        289.7170  185.8850  214.3950 O.2    57  VAL57      -0.2864
     28  CB       288.5110  182.9200  213.5650 C.3    57  VAL57       0.0276
     29  CG1      289.9790  182.9480  213.2330 C.3    57  VAL57       0.0022
     30  CG2      288.1360  181.5990  214.1870 C.3    57  VAL57       0.0022
     31  N        288.9660  187.9020  217.0260 N.3    60  LEU60      -0.1245
     32  CA       290.1700  187.5840  217.7810 C.3    60  LEU60       0.1561
     33  C        291.4150  187.9450  216.9820 C.2    60  LEU60       0.2260
     34  O        292.3900  188.4690  217.5250 O.2    60  LEU60      -0.2867
     35  CB       290.1680  186.1030  218.1470 C.3    60  LEU60       0.0270
     36  CG       288.9700  185.6700  218.9870 C.3    60  LEU60       0.0019
     37  CD1      288.9710  184.1760  219.1910 C.3    60  LEU60       0.0001
     38  CD2      288.9730  186.3810  220.3140 C.3    60  LEU60       0.0001
     39  N        285.0320  173.6390  196.5190 N.3   140  PHE140     -0.1227
     40  CA       284.9540  174.1850  197.8690 C.3   140  PHE140      0.1736
     41  C        285.6440  173.3060  198.8960 C.2   140  PHE140      0.2595
     42  O        286.0120  173.7990  199.9670 O.2   140  PHE140     -0.2718
     43  CB       283.4980  174.4170  198.2400 C.3   140  PHE140      0.0547
     44  CG       282.8520  175.4900  197.4370 C.ar  140  PHE140     -0.0202
     45  CD1      283.5930  176.5520  196.9750 C.ar  140  PHE140     -0.0042
     46  CD2      281.5290  175.4010  197.0820 C.ar  140  PHE140     -0.0042
     47  CE1      283.0100  177.5300  196.2260 C.ar  140  PHE140     -0.0003
     48  CE2      280.9460  176.3710  196.3230 C.ar  140  PHE140     -0.0003
     49  CZ       281.6880  177.4340  195.8930 C.ar  140  PHE140     -0.0000
     50  N        285.8280  172.0250  198.6100 N.am  141  ASP141     -0.1960
     51  CA       286.8230  171.2500  199.3360 C.3   141  ASP141      0.1825
     52  C        287.8860  170.8540  198.3270 C.2   141  ASP141      0.2464
     53  O        287.6840  169.9070  197.5570 O.2   141  ASP141     -0.2730
     54  CB       286.1900  170.0110  199.9700 C.3   141  ASP141      0.1450
     55  CG       287.1610  169.2200  200.7990 C.2   141  ASP141      0.3671
     56  OD1      287.5260  169.6810  201.8920 O.co2 141  ASP141     -0.2456
     57  OD2      287.5710  168.1350  200.3530 O.co2 141  ASP141     -0.2456
     58  N        289.0290  171.5350  198.2810 N.am  142  PRO142     -0.2715
     59  CA       290.1120  171.0510  197.4230 C.3   142  PRO142      0.1536
     60  C        290.8110  169.8290  197.9780 C.2   142  PRO142      0.2598
     61  O        291.3120  169.0100  197.1980 O.2   142  PRO142     -0.2715
     62  CB       291.0550  172.2570  197.3370 C.3   142  PRO142      0.0310
     63  CG       290.8010  173.0070  198.5790 C.3   142  PRO142      0.0237
     64  CD       289.3320  172.8580  198.8500 C.3   142  PRO142      0.0939
     65  N        290.8490  169.6620  199.2960 N.am  143  PHE143     -0.1974
     66  CA       291.7640  168.7050  199.8980 C.3   143  PHE143      0.1639
     67  C        291.1680  167.3190  200.0540 C.2   143  PHE143      0.2290
     68  O        291.8410  166.4290  200.5820 O.2   143  PHE143     -0.2864
     69  CB       292.2610  169.2170  201.2490 C.3   143  PHE143      0.0560
     70  CG       293.0700  170.4770  201.1500 C.ar  143  PHE143     -0.0200
     71  CD1      293.5440  170.9150  199.9280 C.ar  143  PHE143     -0.0042
     72  CD2      293.3850  171.2020  202.2770 C.ar  143  PHE143     -0.0042
     73  CE1      294.2880  172.0620  199.8300 C.ar  143  PHE143     -0.0003
     74  CE2      294.1370  172.3490  202.1830 C.ar  143  PHE143     -0.0003
     75  CZ       294.5870  172.7800  200.9580 C.ar  143  PHE143     -0.0000
     76  N        289.4630  165.2830  201.7250 N.3   145  PHE145     -0.1241
     77  CA       288.9820  164.5120  202.8550 C.3   145  PHE145      0.1605
     78  C        287.5150  164.8410  203.0980 C.2   145  PHE145      0.2264
     79  O        286.8990  165.6340  202.3800 O.2   145  PHE145     -0.2867
     80  CB       289.8300  164.7720  204.0940 C.3   145  PHE145      0.0534
     81  CG       289.8650  166.2010  204.5160 C.ar  145  PHE145     -0.0203
     82  CD1      288.8860  166.7140  205.3320 C.ar  145  PHE145     -0.0042
     83  CD2      290.8970  167.0210  204.1200 C.ar  145  PHE145     -0.0042
     84  CE1      288.9240  168.0170  205.7250 C.ar  145  PHE145     -0.0003
     85  CE2      290.9410  168.3270  204.5170 C.ar  145  PHE145     -0.0003
     86  CZ       289.9530  168.8270  205.3180 C.ar  145  PHE145     -0.0000
     87  N        280.8320  173.1120  216.5350 N.3   161  ASN161     -0.1240
     88  CA       281.6950  174.2850  216.5440 C.3   161  ASN161      0.1653
     89  C        280.9590  175.5120  216.0330 C.2   161  ASN161      0.2266
     90  O        281.1920  176.6230  216.5160 O.2   161  ASN161     -0.2867
     91  CB       282.9470  174.0380  215.7140 C.3   161  ASN161      0.1155
     92  CG       283.9310  173.1450  216.4140 C.2   161  ASN161      0.2627
     93  OD1      283.9280  173.0430  217.6340 O.2   161  ASN161     -0.2716
     94  ND2      284.7930  172.4990  215.6500 N.am  161  ASN161     -0.0877
     95  N        278.5410  176.9310  218.6970 N.3   164  LEU164     -0.1231
     96  CA       279.3630  177.5930  219.6960 C.3   164  LEU164      0.1693
     97  C        279.6960  179.0090  219.2650 C.2   164  LEU164      0.2591
     98  O        279.5890  179.9500  220.0560 O.2   164  LEU164     -0.2718
     99  CB       280.6340  176.7840  219.9220 C.3   164  LEU164      0.0284
    100  CG       281.6280  177.3300  220.9250 C.3   164  LEU164      0.0019
    101  CD1      280.9760  177.3880  222.2790 C.3   164  LEU164      0.0001
    102  CD2      282.8260  176.4240  220.9570 C.3   164  LEU164      0.0001
    103  N        280.0720  179.1830  218.0010 N.am  165  ALA165     -0.1980
    104  CA       280.4400  180.5050  217.5150 C.3   165  ALA165      0.1597
    105  C        279.2580  181.4610  217.5690 C.2   165  ALA165      0.2287
    106  O        279.3590  182.5540  218.1380 O.2   165  ALA165     -0.2864
    107  CB       280.9900  180.4010  216.0960 C.3   165  ALA165      0.0319
    108  N        279.0240  182.4630  220.8900 N.3   168  ALA168     -0.1245
    109  CA       280.2290  183.1930  221.2510 C.3   168  ALA168      0.1562
    110  C        280.2710  184.5390  220.5510 C.2   168  ALA168      0.2260
    111  O        280.5090  185.5720  221.1840 O.2   168  ALA168     -0.2867
    112  CB       281.4630  182.3660  220.9100 C.3   168  ALA168      0.0290
    113  N        278.0840  186.9210  222.1030 N.3   171  GLY171     -0.1210
    114  CA       278.7220  187.4880  223.2750 C.3   171  GLY171      0.1956
    115  C        279.5760  188.6830  222.9250 C.2   171  GLY171      0.2611
    116  O        279.5010  189.7240  223.5740 O.2   171  GLY171     -0.2717
    117  N        280.3770  188.5570  221.8640 N.am  172  PHE172     -0.1976
    118  CA       281.1830  189.6770  221.3960 C.3   172  PHE172      0.1639
    119  C        280.3440  190.9340  221.2510 C.2   172  PHE172      0.2290
    120  O        280.6680  191.9850  221.8110 O.2   172  PHE172     -0.2864
    121  CB       281.8150  189.3480  220.0460 C.3   172  PHE172      0.0560
    122  CG       282.8550  188.2810  220.0870 C.ar  172  PHE172     -0.0200
    123  CD1      283.5470  187.9960  221.2340 C.ar  172  PHE172     -0.0042
    124  CD2      283.1430  187.5580  218.9530 C.ar  172  PHE172     -0.0042
    125  CE1      284.5160  187.0170  221.2290 C.ar  172  PHE172     -0.0003
    126  CE2      284.1030  186.5780  218.9580 C.ar  172  PHE172     -0.0003
    127  CZ       284.7830  186.3060  220.0990 C.ar  172  PHE172     -0.0000
    128  N        278.9550  192.1670  224.6060 N.3   175  GLN175     -0.1245
    129  CA       280.0390  192.5780  225.4940 C.3   175  GLN175      0.1566
    130  C        280.6370  193.8950  225.0420 C.2   175  GLN175      0.2260
    131  O        280.6960  194.8650  225.8040 O.2   175  GLN175     -0.2867
    132  CB       281.1410  191.5280  225.5320 C.3   175  GLN175      0.0367
    133  CG       280.8310  190.2560  226.2430 C.3   175  GLN175      0.0905
    134  CD       281.9880  189.2990  226.1560 C.2   175  GLN175      0.2608
    135  OE1      282.7760  189.3470  225.2190 O.2   175  GLN175     -0.2717
    136  NE2      282.1190  188.4450  227.1470 N.am  175  GLN175     -0.0878
    137  N        286.8880  191.6590  222.8170 N.3   183  PRO183     -0.2102
    138  CA       286.6590  190.4020  223.5470 C.3   183  PRO183      0.1504
    139  C        287.7930  189.9900  224.4640 C.2   183  PRO183      0.2575
    140  O        287.5480  189.6380  225.6230 O.2   183  PRO183     -0.2718
    141  CB       286.4520  189.3940  222.4150 C.3   183  PRO183      0.0282
    142  CG       287.1110  190.0070  221.2380 C.3   183  PRO183      0.0208
    143  CD       286.7880  191.4530  221.3660 C.3   183  PRO183      0.0893
    144  N        289.0360  190.0130  223.9860 N.am  184  ILE184     -0.1980
    145  CA       290.1240  189.5980  224.8560 C.3   184  ILE184      0.1595
    146  C        290.4170  190.6560  225.9000 C.2   184  ILE184      0.2287
    147  O        291.0010  190.3470  226.9430 O.2   184  ILE184     -0.2864
    148  CB       291.3770  189.2640  224.0350 C.3   184  ILE184      0.0276
    149  CG1      291.8130  190.4720  223.2170 C.3   184  ILE184      0.0022
    150  CG2      291.1020  188.0910  223.1240 C.3   184  ILE184      0.0022
    151  CD1      292.9110  191.2890  223.8470 C.3   184  ILE184      0.0001
    152  N        287.9450  192.6450  227.5080 N.3   186  CYS186     -0.1221
    153  CA       286.9700  192.4610  228.5770 C.3   186  CYS186      0.1808
    154  C        287.1960  191.1460  229.3100 C.2   186  CYS186      0.2601
    155  O        286.8600  191.0320  230.4940 O.2   186  CYS186     -0.2717
    156  CB       285.5450  192.5360  228.0270 C.3   186  CYS186      0.0970
    157  SG       285.1360  191.3450  226.7470 S.3   186  CYS186     -0.0800
    158  N        287.7680  190.1490  228.6340 N.am  187  TRP187     -0.1976
    159  CA       288.1690  188.9320  229.3280 C.3   187  TRP187      0.1640
    160  C        289.2970  189.2150  230.3040 C.2   187  TRP187      0.2290
    161  O        289.2840  188.7250  231.4390 O.2   187  TRP187     -0.2864
    162  CB       288.5920  187.8730  228.3170 C.3   187  TRP187      0.0576
    163  CG       289.0600  186.5950  228.9240 C.ar  187  TRP187      0.0006
    164  CD1      288.2900  185.5460  229.3200 C.ar  187  TRP187      0.0946
    165  CD2      290.4160  186.2100  229.1680 C.ar  187  TRP187      0.0152
    166  NE1      289.0770  184.5370  229.8110 N.ar  187  TRP187     -0.2442
    167  CE2      290.3880  184.9220  229.7280 C.ar  187  TRP187      0.0810
    168  CE3      291.6500  186.8330  228.9760 C.ar  187  TRP187      0.0012
    169  CZ2      291.5450  184.2480  230.1000 C.ar  187  TRP187      0.0191
    170  CZ3      292.7960  186.1620  229.3450 C.ar  187  TRP187      0.0001
    171  CH2      292.7370  184.8840  229.8980 C.ar  187  TRP187      0.0015
@<TRIPOS>BOND
     1    49    47   ar
     2    49    48   ar
     3    47    45   ar
     4    48    46   ar
     5    39    40    1
     6    45    44   ar
     7    46    44   ar
     8    61    60    2
     9    62    59    1
    10    62    63    1
    11    59    60    1
    12    59    58    1
    13    44    43    1
    14    53    52    2
    15    40    43    1
    16    40    41    1
    17    60    65   am
    18    58    52   am
    19    58    64    1
    20    52    51    1
    21    63    64    1
    22    50    41   am
    23    50    51    1
    24    41    42    2
    25    65    66    1
    26    51    54    1
    27    73    71   ar
    28    73    75   ar
    29    66    67    1
    30    66    69    1
    31    71    70   ar
    32    54    55    1
    33    67    68    2
    34    57    55   ar
    35    55    56   ar
    36    75    74   ar
    37    70    69    1
    38    70    72   ar
    39    76    77    1
    40    74    72   ar
    41    79    78    2
    42    77    78    1
    43    77    80    1
    44    80    81    1
    45    83    81   ar
    46    83    85   ar
    47    81    82   ar
    48    85    86   ar
    49    86    84   ar
    50    82    84   ar
    51    16    15    1
    52    14    15    1
    53    14    13    1
    54    13    10    1
    55    10     9    1
    56    10    11    1
    57     9     3   am
    58     8     7    1
    59    11    12    2
    60     3     4    2
    61     3     2    1
    62     5     2    1
    63     5     6    1
    64     7     6    1
    65     1     2    1
    66    29    28    1
    67    28    30    1
    68    28    25    1
    69    26    27    2
    70    26    25    1
    71    25    24    1
    72    17    18    1
    73    24    19   am
    74    94    92   am
    75    19    18    1
    76    19    20    2
    77    91    92    1
    78    91    88    1
    79    18    21    1
    80    89    90    2
    81    89    88    1
    82   107   104    1
    83    92    93    2
    84    87    88    1
    85    21    23    1
    86    21    22    1
    87    33    34    2
    88    33    32    1
    89    31    32    1
    90   104   105    1
    91   104   103    1
    92   105   106    2
    93    32    35    1
    94   103    97   am
    95    35    36    1
    96    95    96    1
    97   124   126   ar
    98   124   122   ar
    99   126   127   ar
   100    36    37    1
   101    36    38    1
   102    97    96    1
   103    97    98    2
   104    96    99    1
   105    99   100    1
   106   121   122    1
   107   121   118    1
   108   122   123   ar
   109   127   125   ar
   110   110   111    2
   111   110   109    1
   112   108   109    1
   113   112   109    1
   114   100   102    1
   115   100   101    1
   116   125   123   ar
   117   142   143    1
   118   142   141    1
   119   119   118    1
   120   119   120    2
   121   143   137    1
   122   118   117    1
   123   117   115   am
   124   113   114    1
   125   141   138    1
   126   137   138    1
   127   115   114    1
   128   115   116    2
   129   150   148    1
   130   149   151    1
   131   149   148    1
   132   138   139    1
   133   144   139   am
   134   144   145    1
   135   148   145    1
   136   139   140    2
   137   128   129    1
   138   145   146    1
   139   130   129    1
   140   130   131    2
   141   135   134    2
   142   129   132    1
   143   132   133    1
   144   146   147    2
   145   134   133    1
   146   134   136   am
   147   157   156    1
   148   152   153    1
   149   156   153    1
   150   162   163    1
   151   162   159    1
   152   153   154    1
   153   158   154   am
   154   158   159    1
   155   163   165   ar
   156   163   164   ar
   157   168   165   ar
   158   168   170   ar
   159   165   167   ar
   160   154   155    2
   161   164   166   ar
   162   159   160    1
   163   170   171   ar
   164   167   166   ar
   165   167   169   ar
   166   171   169   ar
   167   160   161    2
