@<TRIPOS>MOLECULE
tmp/6igzN04.pdb
 164 159 0 0 0
SMALL
GASTEIGER

@<TRIPOS>ATOM
      1  N        244.0490  202.6530  195.9410 N.3    51  MET51      -0.1230
      2  CA       245.3960  202.4830  195.4140 C.3    51  MET51       0.1702
      3  C        245.8500  203.6660  194.5720 C.2    51  MET51       0.2592
      4  O        247.0460  203.9630  194.5190 O.2    51  MET51      -0.2718
      5  CB       245.4700  201.1910  194.6100 C.3    51  MET51       0.0401
      6  CG       245.3260  199.9640  195.4620 C.3    51  MET51       0.0596
      7  SD       245.5650  198.4230  194.5800 S.3    51  MET51      -0.1393
      8  CE       244.0140  198.2890  193.7290 C.3    51  MET51       0.0692
      9  N        244.9270  204.3580  193.9130 N.am   52  LEU52      -0.1980
     10  CA       245.3120  205.6060  193.2730 C.3    52  LEU52       0.1596
     11  C        245.4270  206.7390  194.2740 C.2    52  LEU52       0.2287
     12  O        246.2720  207.6200  194.1060 O.2    52  LEU52      -0.2864
     13  CB       244.3190  206.0000  192.1840 C.3    52  LEU52       0.0297
     14  CG       244.2150  205.1700  190.9090 C.3    52  LEU52       0.0022
     15  CD1      243.1070  205.7350  190.0550 C.3    52  LEU52       0.0001
     16  CD2      245.5180  205.1820  190.1480 C.3    52  LEU52       0.0001
     17  N        246.3370  206.6330  197.5270 N.3    54  THR54      -0.1203
     18  CA       247.5170  206.5200  198.3700 C.3    54  THR54       0.1994
     19  C        248.7460  207.0670  197.6690 C.2    54  THR54       0.2617
     20  O        249.4370  207.9460  198.1910 O.2    54  THR54      -0.2717
     21  CB       247.7280  205.0660  198.7610 C.3    54  THR54       0.1784
     22  OG1      246.6410  204.6350  199.5850 O.3    54  THR54      -0.2211
     23  CG2      249.0140  204.9170  199.5060 C.3    54  THR54       0.0376
     24  N        249.0340  206.5550  196.4760 N.am   55  VAL55      -0.1979
     25  CA       250.1570  207.0660  195.7020 C.3    55  VAL55       0.1595
     26  C        249.9960  208.5570  195.4560 C.2    55  VAL55       0.2287
     27  O        250.9670  209.3180  195.5050 O.2    55  VAL55      -0.2864
     28  CB       250.2840  206.2880  194.3840 C.3    55  VAL55       0.0276
     29  CG1      251.3980  206.8510  193.5510 C.3    55  VAL55       0.0022
     30  CG2      250.5080  204.8290  194.6670 C.3    55  VAL55       0.0022
     31  N        251.2020  210.0930  198.7250 N.3    58  ILE58      -0.1245
     32  CA       252.5790  209.8840  199.1490 C.3    58  ILE58       0.1561
     33  C        253.5450  210.6130  198.2290 C.2    58  ILE58       0.2260
     34  O        254.4460  211.3220  198.6910 O.2    58  ILE58      -0.2867
     35  CB       252.8950  208.3840  199.2250 C.3    58  ILE58       0.0252
     36  CG1      252.0500  207.7370  200.3070 C.3    58  ILE58       0.0019
     37  CG2      254.3510  208.1640  199.5300 C.3    58  ILE58       0.0019
     38  CD1      252.3000  208.3390  201.6570 C.3    58  ILE58       0.0001
     39  N        240.2860  199.7500  178.7810 N.3   142  PHE142     -0.1227
     40  CA       240.5430  199.5110  180.1930 C.3   142  PHE142      0.1736
     41  C        241.6660  198.5250  180.4220 C.2   142  PHE142      0.2595
     42  O        242.1240  198.3760  181.5560 O.2   142  PHE142     -0.2718
     43  CB       239.2760  198.9980  180.8460 C.3   142  PHE142      0.0547
     44  CG       238.1630  199.9650  180.7870 C.ar  142  PHE142     -0.0202
     45  CD1      238.4230  201.3110  180.7200 C.ar  142  PHE142     -0.0042
     46  CD2      236.8640  199.5390  180.7240 C.ar  142  PHE142     -0.0042
     47  CE1      237.4120  202.2080  180.6430 C.ar  142  PHE142     -0.0003
     48  CE2      235.8510  200.4350  180.6450 C.ar  142  PHE142     -0.0003
     49  CZ       236.1270  201.7700  180.6020 C.ar  142  PHE142     -0.0000
     50  N        242.1050  197.8490  179.3760 N.am  143  ASP143     -0.1960
     51  CA       243.0900  196.7790  179.4770 C.3   143  ASP143      0.1825
     52  C        243.9850  196.8630  178.2520 C.2   143  ASP143      0.2464
     53  O        243.9170  196.0240  177.3480 O.2   143  ASP143     -0.2730
     54  CB       242.3760  195.4370  179.5820 C.3   143  ASP143      0.1450
     55  CG       243.3050  194.2930  179.7300 C.2   143  ASP143      0.3671
     56  OD1      244.5250  194.4960  179.8530 O.co2 143  ASP143     -0.2456
     57  OD2      242.7850  193.1690  179.7110 O.co2 143  ASP143     -0.2456
     58  N        244.8280  197.8920  178.1790 N.am  144  PRO144     -0.2715
     59  CA       245.6160  198.0950  176.9630 C.3   144  PRO144      0.1536
     60  C        246.6960  197.0620  176.7480 C.2   144  PRO144      0.2598
     61  O        247.0520  196.7990  175.5960 O.2   144  PRO144     -0.2715
     62  CB       246.2110  199.4880  177.1720 C.3   144  PRO144      0.0310
     63  CG       246.2820  199.6310  178.6340 C.3   144  PRO144      0.0237
     64  CD       245.0700  198.9510  179.1680 C.3   144  PRO144      0.0939
     65  N        247.2380  196.4620  177.7990 N.am  145  PHE145     -0.1974
     66  CA       248.3120  195.4970  177.6210 C.3   145  PHE145      0.1639
     67  C        247.8180  194.0970  177.3240 C.2   145  PHE145      0.2290
     68  O        248.6340  193.1780  177.2190 O.2   145  PHE145     -0.2864
     69  CB       249.2360  195.4860  178.8310 C.3   145  PHE145      0.0560
     70  CG       250.1680  196.6450  178.8630 C.ar  145  PHE145     -0.0200
     71  CD1      251.3290  196.6180  178.1190 C.ar  145  PHE145     -0.0042
     72  CD2      249.8820  197.7650  179.6070 C.ar  145  PHE145     -0.0042
     73  CE1      252.1910  197.6760  178.1280 C.ar  145  PHE145     -0.0003
     74  CE2      250.7440  198.8330  179.6210 C.ar  145  PHE145     -0.0003
     75  CZ       251.9010  198.7860  178.8800 C.ar  145  PHE145     -0.0000
     76  N        246.5270  192.0050  179.0160 N.3   147  LEU147     -0.1245
     77  CA       246.6000  191.1070  180.1480 C.3   147  LEU147      0.1561
     78  C        245.1840  190.6510  180.4830 C.2   147  LEU147      0.2260
     79  O        244.2120  191.1770  179.9490 O.2   147  LEU147     -0.2867
     80  CB       247.2760  191.8170  181.3140 C.3   147  LEU147      0.0270
     81  CG       247.9560  190.9840  182.3800 C.3   147  LEU147      0.0019
     82  CD1      249.1450  191.7680  182.8770 C.3   147  LEU147      0.0001
     83  CD2      247.0100  190.6900  183.4960 C.3   147  LEU147      0.0001
     84  N        245.9230  194.0310  197.8000 N.3   165  ASN165     -0.1240
     85  CA       246.6190  195.3090  197.7480 C.3   165  ASN165      0.1653
     86  C        245.6520  196.4600  197.9030 C.2   165  ASN165      0.2266
     87  O        246.0410  197.5360  198.3650 O.2   165  ASN165     -0.2867
     88  CB       247.3700  195.4620  196.4320 C.3   165  ASN165      0.1155
     89  CG       248.5280  194.5290  196.3260 C.2   165  ASN165      0.2627
     90  OD1      249.5900  194.7750  196.8850 O.2   165  ASN165     -0.2716
     91  ND2      248.3310  193.4320  195.6170 N.am  165  ASN165     -0.0877
     92  N        244.5410  196.8900  201.6440 N.3   168  LEU168     -0.1231
     93  CA       245.5870  197.5780  202.3850 C.3   168  LEU168      0.1693
     94  C        245.6380  199.0540  202.0370 C.2   168  LEU168      0.2591
     95  O        245.9410  199.8880  202.8950 O.2   168  LEU168     -0.2718
     96  CB       246.9290  196.9260  202.1020 C.3   168  LEU168      0.0284
     97  CG       248.1420  197.6010  202.6940 C.3   168  LEU168      0.0019
     98  CD1      248.0160  197.6600  204.1820 C.3   168  LEU168      0.0001
     99  CD2      249.3210  196.7760  202.3180 C.3   168  LEU168      0.0001
    100  N        245.3540  199.3950  200.7850 N.am  169  ALA169     -0.1980
    101  CA       245.3580  200.7950  200.3970 C.3   169  ALA169      0.1597
    102  C        244.2280  201.5500  201.0720 C.2   169  ALA169      0.2287
    103  O        244.4010  202.7020  201.4750 O.2   169  ALA169     -0.2864
    104  CB       245.2550  200.9150  198.8840 C.3   169  ALA169      0.0319
    105  N        245.2090  201.8400  204.7960 N.3   172  SER172     -0.1217
    106  CA       246.2090  202.8830  204.9560 C.3   172  SER172      0.1889
    107  C        245.6000  204.2510  204.7320 C.2   172  SER172      0.2288
    108  O        245.8630  205.1870  205.4910 O.2   172  SER172     -0.2866
    109  CB       247.3570  202.6660  203.9860 C.3   172  SER172      0.2089
    110  OG       248.0120  201.4560  204.2700 O.3   172  SER172     -0.2183
    111  N        244.4540  205.7420  207.4740 N.3   175  GLY175     -0.1210
    112  CA       245.4770  206.3120  208.3290 C.3   175  GLY175      0.1956
    113  C        245.8470  207.7190  207.9150 C.2   175  GLY175      0.2611
    114  O        246.0140  208.5970  208.7630 O.2   175  GLY175     -0.2717
    115  N        245.9740  207.9560  206.6100 N.am  176  TYR176     -0.1976
    116  CA       246.2820  209.2950  206.1240 C.3   176  TYR176      0.1639
    117  C        245.3020  210.3190  206.6580 C.2   176  TYR176      0.2290
    118  O        245.6960  211.4210  207.0500 O.2   176  TYR176     -0.2864
    119  CB       246.2610  209.3130  204.6050 C.3   176  TYR176      0.0560
    120  CG       247.3170  208.4550  203.9930 C.ar  176  TYR176     -0.0198
    121  CD1      248.6000  208.4630  204.4770 C.ar  176  TYR176     -0.0009
    122  CD2      247.0250  207.6190  202.9440 C.ar  176  TYR176     -0.0009
    123  CE1      249.5610  207.6850  203.9150 C.ar  176  TYR176      0.0417
    124  CE2      247.9810  206.8300  202.3810 C.ar  176  TYR176      0.0417
    125  CZ       249.2490  206.8650  202.8690 C.ar  176  TYR176      0.1957
    126  OH       250.2160  206.0700  202.3100 O.3   176  TYR176     -0.2866
    127  N        245.6240  210.2720  210.8450 N.3   179  GLN179     -0.1245
    128  CA       246.8400  210.8470  211.3910 C.3   179  GLN179      0.1566
    129  C        247.1150  212.2350  210.8500 C.2   179  GLN179      0.2260
    130  O        248.0720  212.8710  211.2930 O.2   179  GLN179     -0.2867
    131  CB       248.0350  209.9360  211.1410 C.3   179  GLN179      0.0367
    132  CG       248.5780  209.9100  209.7530 C.3   179  GLN179      0.0905
    133  CD       249.6810  208.8920  209.6320 C.2   179  GLN179      0.2608
    134  OE1      249.7090  207.9090  210.3710 O.2   179  GLN179     -0.2717
    135  NE2      250.6230  209.1410  208.7380 N.am  179  GLN179     -0.0878
    136  N        251.8200  212.7730  205.2430 N.3   187  PRO187     -0.2116
    137  CA       252.0400  211.3430  205.4900 C.3   187  PRO187      0.1372
    138  C        253.5000  210.9500  205.5090 C.2   187  PRO187      0.2244
    139  O        253.8950  210.1170  206.3330 O.2   187  PRO187     -0.2868
    140  CB       251.2860  210.6820  204.3360 C.3   187  PRO187      0.0268
    141  CG       251.3100  211.6900  203.2650 C.3   187  PRO187      0.0207
    142  CD       251.1930  213.0140  203.9370 C.3   187  PRO187      0.0892
    143  N        255.2750  212.3320  208.6900 N.3   190  ASN190     -0.1225
    144  CA       255.1290  211.4110  209.8070 C.3   190  ASN190      0.1785
    145  C        256.0160  210.1900  209.6280 C.2   190  ASN190      0.2597
    146  O        256.5500  209.6500  210.6010 O.2   190  ASN190     -0.2718
    147  CB       253.6700  210.9960  209.9430 C.3   190  ASN190      0.1169
    148  CG       252.7910  212.1270  210.3950 C.2   190  ASN190      0.2627
    149  OD1      253.2600  213.0870  210.9950 O.2   190  ASN190     -0.2716
    150  ND2      251.5010  212.0140  210.1240 N.am  190  ASN190     -0.0877
    151  N        256.1850  209.7380  208.3910 N.am  191  TRP191     -0.1976
    152  CA       257.0270  208.5790  208.1470 C.3   191  TRP191      0.1640
    153  C        258.4900  208.8890  208.4040 C.2   191  TRP191      0.2290
    154  O        259.2700  207.9650  208.6460 O.2   191  TRP191     -0.2864
    155  CB       256.7820  208.0780  206.7210 C.3   191  TRP191      0.0576
    156  CG       257.4840  206.8160  206.3400 C.ar  191  TRP191      0.0006
    157  CD1      257.1970  205.5680  206.7810 C.ar  191  TRP191      0.0946
    158  CD2      258.4810  206.6580  205.3330 C.ar  191  TRP191      0.0152
    159  NE1      258.0060  204.6480  206.1750 N.ar  191  TRP191     -0.2442
    160  CE2      258.8000  205.2920  205.2720 C.ar  191  TRP191      0.0810
    161  CE3      259.1670  207.5450  204.5030 C.ar  191  TRP191      0.0012
    162  CZ2      259.7720  204.7890  204.4200 C.ar  191  TRP191      0.0191
    163  CZ3      260.1360  207.0460  203.6570 C.ar  191  TRP191      0.0001
    164  CH2      260.4300  205.6790  203.6220 C.ar  191  TRP191      0.0015
@<TRIPOS>BOND
     1    61    60    2
     2    60    59    1
     3    60    65   am
     4    59    62    1
     5    59    58    1
     6    62    63    1
     7    68    67    2
     8    67    66    1
     9    53    52    2
    10    66    65    1
    11    66    69    1
    12    71    73   ar
    13    71    70   ar
    14    73    75   ar
    15    58    52   am
    16    58    64    1
    17    52    51    1
    18    63    64    1
    19    39    40    1
    20    69    70    1
    21    70    72   ar
    22    75    74   ar
    23    76    77    1
    24    50    51    1
    25    50    41   am
    26    51    54    1
    27    54    55    1
    28    72    74   ar
    29    57    55   ar
    30    55    56   ar
    31    79    78    2
    32    77    78    1
    33    77    80    1
    34    40    41    1
    35    40    43    1
    36    41    42    2
    37    49    47   ar
    38    49    48   ar
    39    47    45   ar
    40    48    46   ar
    41    45    44   ar
    42    46    44   ar
    43    44    43    1
    44    80    81    1
    45    81    82    1
    46    81    83    1
    47    15    14    1
    48    16    14    1
    49    14    13    1
    50    13    10    1
    51    10     9    1
    52    10    11    1
    53    29    28    1
    54     8     7    1
    55     9     3   am
    56    12    11    2
    57    28    30    1
    58    28    25    1
    59     4     3    2
    60     3     2    1
    61     7     6    1
    62     5     2    1
    63     5     6    1
    64     2     1    1
    65    26    27    2
    66    26    25    1
    67    91    89   am
    68    25    24    1
    69    89    88    1
    70    89    90    2
    71    88    85    1
    72    24    19   am
    73    17    18    1
    74    19    20    2
    75    19    18    1
    76    85    84    1
    77    85    86    1
    78    86    87    2
    79    33    34    2
    80    33    32    1
    81    18    21    1
    82    31    32    1
    83    21    23    1
    84    21    22    1
    85   104   101    1
    86    32    35    1
    87    35    37    1
    88    35    36    1
    89    36    38    1
    90   101   100    1
    91   101   102    1
    92   100    94   am
    93   102   103    2
    94    92    93    1
    95    94    93    1
    96    94    95    2
    97    96    93    1
    98    96    97    1
    99   126   125    1
   100    99    97    1
   101   124   125   ar
   102   124   122   ar
   103    97    98    1
   104   125   123   ar
   105   122   120   ar
   106   141   142    1
   107   141   140    1
   108   164   163   ar
   109   164   162   ar
   110   163   161   ar
   111   123   121   ar
   112   142   136    1
   113   109   110    1
   114   109   106    1
   115   120   121   ar
   116   120   119    1
   117   140   137    1
   118   162   160   ar
   119   161   158   ar
   120   119   116    1
   121   107   106    1
   122   107   108    2
   123   105   106    1
   124   136   137    1
   125   160   158   ar
   126   160   159   ar
   127   158   156   ar
   128   137   138    1
   129   138   139    2
   130   116   115    1
   131   116   117    1
   132   159   157   ar
   133   156   155    1
   134   156   157   ar
   135   115   113   am
   136   117   118    2
   137   155   152    1
   138   111   112    1
   139   113   112    1
   140   113   114    2
   141   152   151    1
   142   152   153    1
   143   151   145   am
   144   153   154    2
   145   143   144    1
   146   135   133   am
   147   145   144    1
   148   145   146    2
   149   133   132    1
   150   133   134    2
   151   132   131    1
   152   144   147    1
   153   147   148    1
   154   150   148   am
   155   148   149    2
   156   127   128    1
   157   129   130    2
   158   129   128    1
   159   131   128    1
