@<TRIPOS>MOLECULE
tmp/6igzF05.pdb
 82 81 0 0 0
SMALL
GASTEIGER

@<TRIPOS>ATOM
      1  N        192.9950  248.4970  196.6130 N.3     2  ILE2       -0.1231
      2  CA       192.0520  247.3900  196.5950 C.3     2  ILE2        0.1692
      3  C        191.3700  247.2370  197.9430 C.2     2  ILE2        0.2591
      4  O        192.0240  247.1890  198.9900 O.2     2  ILE2       -0.2718
      5  CB       192.7730  246.1020  196.1820 C.3     2  ILE2        0.0266
      6  CG1      193.0640  246.1350  194.6850 C.3     2  ILE2        0.0019
      7  CG2      192.0210  244.8940  196.6310 C.3     2  ILE2        0.0020
      8  CD1      191.8280  246.4060  193.8540 C.3     2  ILE2        0.0001
      9  N        190.0380  247.1740  197.9160 N.am    3  ALA3       -0.1980
     10  CA       189.2270  246.8610  199.0890 C.3     3  ALA3        0.1597
     11  C        189.5350  247.7760  200.2630 C.2     3  ALA3        0.2287
     12  O        189.4110  247.3750  201.4200 O.2     3  ALA3       -0.2864
     13  CB       189.4030  245.4000  199.5020 C.3     3  ALA3        0.0319
     14  N        194.1430  237.8670  198.8340 N.3    72  ILE72      -0.1245
     15  CA       192.9500  238.0390  198.0090 C.3    72  ILE72       0.1561
     16  C        192.7220  236.7760  197.1920 C.2    72  ILE72       0.2260
     17  O        193.6250  236.3140  196.4860 O.2    72  ILE72      -0.2867
     18  CB       193.0580  239.2650  197.0870 C.3    72  ILE72       0.0252
     19  CG1      192.9160  240.5500  197.8950 C.3    72  ILE72       0.0019
     20  CG2      192.0200  239.2040  196.0010 C.3    72  ILE72       0.0019
     21  CD1      194.2180  241.1930  198.2510 C.3    72  ILE72       0.0001
     22  N        189.9800  235.8580  194.7430 N.3    74  ASP74      -0.1225
     23  CA       189.4510  235.8210  193.3870 C.3    74  ASP74       0.1790
     24  C        190.5530  235.9000  192.3420 C.2    74  ASP74       0.2440
     25  O        191.4330  236.7660  192.4280 O.2    74  ASP74      -0.2733
     26  CB       188.4890  236.9750  193.1700 C.3    74  ASP74       0.1423
     27  CG       187.2340  236.7580  193.8870 C.2    74  ASP74       0.3668
     28  OD1      187.0110  235.5840  194.2130 O.co2  74  ASP74      -0.2456
     29  OD2      186.4990  237.7220  194.1530 O.co2  74  ASP74      -0.2456
     30  N        190.5300  235.0240  191.3420 N.am   75  PRO75      -0.2718
     31  CA       191.4820  235.1670  190.2380 C.3    75  PRO75       0.1535
     32  C        191.3770  236.5180  189.5590 C.2    75  PRO75       0.2599
     33  O        192.3960  237.1840  189.3510 O.2    75  PRO75      -0.2715
     34  CB       191.0860  234.0180  189.3080 C.3    75  PRO75       0.0310
     35  CG       190.4140  233.0300  190.1940 C.3    75  PRO75       0.0237
     36  CD       189.6690  233.8440  191.1850 C.3    75  PRO75       0.0939
     37  N        190.1600  236.9610  189.2500 N.am   76  GLY76      -0.1941
     38  CA       189.9850  238.2200  188.5500 C.3    76  GLY76       0.2014
     39  C        190.5100  239.4170  189.3030 C.2    76  GLY76       0.2638
     40  O        190.7150  240.4770  188.7060 O.2    76  GLY76      -0.2714
     41  N        190.7450  239.2680  190.6000 N.am   77  LEU77      -0.1977
     42  CA       191.3120  240.3240  191.4270 C.3    77  LEU77       0.1596
     43  C        192.8160  240.1460  191.5740 C.2    77  LEU77       0.2287
     44  O        193.5870  241.0530  191.2530 O.2    77  LEU77      -0.2864
     45  CB       190.6180  240.3380  192.7820 C.3    77  LEU77       0.0297
     46  CG       189.1370  240.4960  192.4520 C.3    77  LEU77       0.0022
     47  CD1      188.2930  240.4060  193.6880 C.3    77  LEU77       0.0001
     48  CD2      188.8710  241.7760  191.6690 C.3    77  LEU77       0.0001
     49  N        194.8460  238.2510  189.7660 N.3    79  PHE79      -0.1227
     50  CA       195.4840  238.3360  188.4550 C.3    79  PHE79       0.1736
     51  C        195.5700  239.7720  187.9640 C.2    79  PHE79       0.2595
     52  O        196.6640  240.3210  187.7960 O.2    79  PHE79      -0.2718
     53  CB       194.7360  237.4810  187.4340 C.3    79  PHE79       0.0547
     54  CG       194.9310  236.0120  187.6120 C.ar   79  PHE79      -0.0202
     55  CD1      196.0270  235.5260  188.2970 C.ar   79  PHE79      -0.0042
     56  CD2      194.0260  235.1120  187.0810 C.ar   79  PHE79      -0.0042
     57  CE1      196.2150  234.1690  188.4550 C.ar   79  PHE79      -0.0003
     58  CE2      194.2070  233.7540  187.2400 C.ar   79  PHE79      -0.0003
     59  CZ       195.3030  233.2820  187.9270 C.ar   79  PHE79      -0.0000
     60  N        194.4180  240.3900  187.7120 N.am   80  ARG80      -0.1966
     61  CA       194.4060  241.6820  187.0400 C.3    80  ARG80       0.1729
     62  C        195.2010  242.7170  187.8170 C.2    80  ARG80       0.2616
     63  O        195.9770  243.4790  187.2330 O.2    80  ARG80      -0.2715
     64  CB       192.9670  242.1490  186.8430 C.3    80  ARG80       0.0348
     65  CG       192.8280  243.4280  186.0350 C.3    80  ARG80       0.0492
     66  CD       191.3690  243.8110  185.9090 C.3    80  ARG80       0.2205
     67  NE       190.6090  242.7860  185.2030 N.pl3  80  ARG80      -0.0865
     68  CZ       189.2940  242.8230  185.0310 C.cat  80  ARG80       0.5346
     69  NH1      188.5990  243.8400  185.5080 N.pl3  80  ARG80       0.1354
     70  NH2      188.6730  241.8510  184.3820 N.pl3  80  ARG80       0.1354
     71  N        195.0490  242.7410  189.1330 N.am   81  TYR81      -0.1974
     72  CA       195.7040  243.7390  189.9600 C.3    81  TYR81       0.1639
     73  C        197.0770  243.2950  190.4340 C.2    81  TYR81       0.2290
     74  O        197.6900  243.9780  191.2580 O.2    81  TYR81      -0.2864
     75  CB       194.7880  244.1110  191.1130 C.3    81  TYR81       0.0560
     76  CG       193.5340  244.7010  190.5500 C.ar   81  TYR81      -0.0198
     77  CD1      193.6000  245.6660  189.5650 C.ar   81  TYR81      -0.0009
     78  CD2      192.2920  244.2350  190.9230 C.ar   81  TYR81      -0.0009
     79  CE1      192.4620  246.1990  189.0110 C.ar   81  TYR81       0.0417
     80  CE2      191.1450  244.7570  190.3710 C.ar   81  TYR81       0.0417
     81  CZ       191.2360  245.7380  189.4160 C.ar   81  TYR81       0.1957
     82  OH       190.0950  246.2640  188.8630 O.3    81  TYR81      -0.2866
@<TRIPOS>BOND
     1    70    68    1
     2    68    67    2
     3    68    69    1
     4    67    66    1
     5    66    65    1
     6    65    64    1
     7    64    61    1
     8    61    60    1
     9    61    62    1
    10    56    58   ar
    11    56    54   ar
    12    63    62    2
    13    58    59   ar
    14    53    54    1
    15    53    50    1
    16    54    55   ar
    17    60    51   am
    18    52    51    2
    19    62    71   am
    20    59    57   ar
    21    51    50    1
    22    55    57   ar
    23    50    49    1
    24    38    37    1
    25    38    39    1
    26    40    39    2
    27    82    81    1
    28    79    81   ar
    29    79    77   ar
    30    71    72    1
    31    37    32   am
    32    39    41   am
    33    34    35    1
    34    34    31    1
    35    33    32    2
    36    81    80   ar
    37    32    31    1
    38    77    76   ar
    39    72    73    1
    40    72    75    1
    41    35    36    1
    42    31    30    1
    43    80    78   ar
    44    73    74    2
    45    76    78   ar
    46    76    75    1
    47    41    42    1
    48    36    30    1
    49    44    43    2
    50    30    24   am
    51    42    43    1
    52    42    45    1
    53    48    46    1
    54    24    25    2
    55    24    23    1
    56    46    45    1
    57    46    47    1
    58    26    23    1
    59    26    27    1
    60    23    22    1
    61     8     6    1
    62    27    29   ar
    63    27    28   ar
    64     6     5    1
    65    20    18    1
    66     5     2    1
    67     5     7    1
    68    17    16    2
    69     2     1    1
    70     2     3    1
    71    18    19    1
    72    18    15    1
    73    16    15    1
    74    19    21    1
    75     9     3   am
    76     9    10    1
    77     3     4    2
    78    15    14    1
    79    10    13    1
    80    10    11    1
    81    11    12    2
