@<TRIPOS>MOLECULE
tmp/6igzO22.pdb
 205 196 0 0 0
SMALL
GASTEIGER

@<TRIPOS>ATOM
      1  N        238.3470  176.3640  234.8180 N.3    48  TYR48      -0.1241
      2  CA       239.3550  176.8850  233.9140 C.3    48  TYR48       0.1605
      3  C        239.7320  178.3200  234.2310 C.2    48  TYR48       0.2264
      4  O        240.8450  178.7430  233.9120 O.2    48  TYR48      -0.2867
      5  CB       238.8650  176.7000  232.4830 C.3    48  TYR48       0.0534
      6  CG       239.7250  177.2900  231.4170 C.ar   48  TYR48      -0.0201
      7  CD1      241.0620  176.9820  231.3370 C.ar   48  TYR48      -0.0009
      8  CD2      239.1690  178.0390  230.4070 C.ar   48  TYR48      -0.0009
      9  CE1      241.8410  177.4860  230.3330 C.ar   48  TYR48       0.0417
     10  CE2      239.9320  178.5360  229.3990 C.ar   48  TYR48       0.0417
     11  CZ       241.2660  178.2530  229.3620 C.ar   48  TYR48       0.1957
     12  OH       242.0330  178.7570  228.3500 O.3    48  TYR48      -0.2866
     13  N        242.1880  177.8850  237.4470 N.3    51  VAL51      -0.1231
     14  CA       243.5760  177.6090  237.0960 C.3    51  VAL51       0.1692
     15  C        244.2550  178.8680  236.5920 C.2    51  VAL51       0.2591
     16  O        245.3670  179.2040  237.0110 O.2    51  VAL51      -0.2718
     17  CB       243.6540  176.4870  236.0530 C.3    51  VAL51       0.0266
     18  CG1      245.0590  176.3610  235.5550 C.3    51  VAL51       0.0020
     19  CG2      243.2060  175.1860  236.6600 C.3    51  VAL51       0.0020
     20  N        243.5970  179.5860  235.6840 N.am   52  ILE52      -0.1980
     21  CA       244.2160  180.7620  235.0860 C.3    52  ILE52       0.1595
     22  C        244.4550  181.8370  236.1380 C.2    52  ILE52       0.2287
     23  O        245.5440  182.4130  236.2110 O.2    52  ILE52      -0.2864
     24  CB       243.3660  181.2810  233.9190 C.3    52  ILE52       0.0276
     25  CG1      243.4340  180.3030  232.7600 C.3    52  ILE52       0.0022
     26  CG2      243.8500  182.6210  233.4720 C.3    52  ILE52       0.0022
     27  CD1      242.5160  180.6530  231.6410 C.3    52  ILE52       0.0001
     28  N        247.5460  180.9600  237.9260 N.3    55  ARG55      -0.1231
     29  CA       248.8390  181.1320  237.2910 C.3    55  ARG55       0.1694
     30  C        249.2560  182.5960  237.2970 C.2    55  ARG55       0.2592
     31  O        250.3730  182.9220  237.7000 O.2    55  ARG55      -0.2718
     32  CB       248.7950  180.5700  235.8790 C.3    55  ARG55       0.0321
     33  CG       248.3740  179.1110  235.8140 C.3    55  ARG55       0.0489
     34  CD       248.4500  178.6980  234.3920 C.3    55  ARG55       0.2205
     35  NE       247.8240  177.4260  234.0630 N.pl3  55  ARG55      -0.0865
     36  CZ       248.3540  176.2400  234.3310 C.cat  55  ARG55       0.5346
     37  NH1      249.4870  176.1440  234.9930 N.pl3  55  ARG55       0.1354
     38  NH2      247.7150  175.1470  233.9670 N.pl3  55  ARG55       0.1354
     39  N        248.3660  183.4970  236.8780 N.am   56  PHE56      -0.1976
     40  CA       248.6720  184.9210  236.9690 C.3    56  PHE56       0.1639
     41  C        249.0540  185.3180  238.3840 C.2    56  PHE56       0.2290
     42  O        250.0120  186.0690  238.5920 O.2    56  PHE56      -0.2864
     43  CB       247.4940  185.7640  236.4940 C.3    56  PHE56       0.0560
     44  CG       247.3080  185.7700  235.0140 C.ar   56  PHE56      -0.0200
     45  CD1      248.0600  186.6110  234.2260 C.ar   56  PHE56      -0.0042
     46  CD2      246.3730  184.9670  234.4110 C.ar   56  PHE56      -0.0042
     47  CE1      247.8920  186.6350  232.8660 C.ar   56  PHE56      -0.0003
     48  CE2      246.2060  184.9960  233.0540 C.ar   56  PHE56      -0.0003
     49  CZ       246.9640  185.8280  232.2840 C.ar   56  PHE56      -0.0000
     50  N        252.4730  184.4890  238.9360 N.3    59  LEU59      -0.1245
     51  CA       253.3060  185.4600  238.2500 C.3    59  LEU59       0.1561
     52  C        253.1190  186.8470  238.8290 C.2    59  LEU59       0.2260
     53  O        254.0370  187.6690  238.7780 O.2    59  LEU59      -0.2867
     54  CB       252.9950  185.4620  236.7630 C.3    59  LEU59       0.0270
     55  CG       253.2590  184.1190  236.1010 C.3    59  LEU59       0.0019
     56  CD1      252.9010  184.1810  234.6390 C.3    59  LEU59       0.0001
     57  CD2      254.6970  183.7300  236.2920 C.3    59  LEU59       0.0001
     58  N        249.6200  192.6140  221.2890 N.3   113  ALA113     -0.1231
     59  CA       250.2880  191.3270  221.3870 C.3   113  ALA113      0.1694
     60  C        249.6430  190.4410  222.4350 C.2   113  ALA113      0.2591
     61  O        249.5720  189.2230  222.2580 O.2   113  ALA113     -0.2718
     62  CB       251.7630  191.5360  221.6930 C.3   113  ALA113      0.0304
     63  N        249.1730  191.0210  223.5350 N.am  114  MET114     -0.1979
     64  CA       248.5300  190.1960  224.5480 C.3   114  MET114      0.1605
     65  C        247.2080  189.6480  224.0550 C.2   114  MET114      0.2287
     66  O        246.7480  188.6180  224.5500 O.2   114  MET114     -0.2864
     67  CB       248.3290  190.9860  225.8380 C.3   114  MET114      0.0413
     68  CG       247.7210  190.1790  226.9390 C.3   114  MET114      0.0598
     69  SD       248.8070  188.8140  227.3430 S.3   114  MET114     -0.1393
     70  CE       247.8490  187.9770  228.5920 C.3   114  MET114      0.0692
     71  N        246.6230  188.6460  220.7920 N.3   116  PHE116     -0.1227
     72  CA       246.9940  187.4330  220.0750 C.3   116  PHE116      0.1736
     73  C        247.1770  186.2620  221.0160 C.2   116  PHE116      0.2595
     74  O        246.9600  185.1190  220.6200 O.2   116  PHE116     -0.2718
     75  CB       248.2770  187.6160  219.2710 C.3   116  PHE116      0.0547
     76  CG       248.0800  188.2750  217.9540 C.ar  116  PHE116     -0.0202
     77  CD1      247.6880  187.5330  216.8620 C.ar  116  PHE116     -0.0042
     78  CD2      248.3200  189.6190  217.7920 C.ar  116  PHE116     -0.0042
     79  CE1      247.5170  188.1220  215.6400 C.ar  116  PHE116     -0.0003
     80  CE2      248.1510  190.2150  216.5680 C.ar  116  PHE116     -0.0003
     81  CZ       247.7500  189.4640  215.4910 C.ar  116  PHE116     -0.0000
     82  N        247.6090  186.5090  222.2470 N.am  117  ALA117     -0.1980
     83  CA       247.7430  185.4090  223.1880 C.3   117  ALA117      0.1597
     84  C        246.3840  184.8410  223.5660 C.2   117  ALA117      0.2287
     85  O        246.1100  183.6590  223.3490 O.2   117  ALA117     -0.2864
     86  CB       248.4900  185.8770  224.4320 C.3   117  ALA117      0.0319
     87  N        243.6330  183.7670  220.9420 N.3   120  ARG120     -0.1231
     88  CA       244.1180  182.4710  220.4960 C.3   120  ARG120      0.1694
     89  C        243.7550  181.3710  221.4830 C.2   120  ARG120      0.2591
     90  O        243.5750  180.2170  221.0880 O.2   120  ARG120     -0.2718
     91  CB       245.6260  182.5580  220.2840 C.3   120  ARG120      0.0321
     92  CG       246.3080  181.2930  219.9350 C.3   120  ARG120      0.0489
     93  CD       245.7870  180.7010  218.6860 C.3   120  ARG120      0.2205
     94  NE       246.0880  181.5040  217.5180 N.pl3 120  ARG120     -0.0865
     95  CZ       247.1800  181.3330  216.7900 C.cat 120  ARG120      0.5346
     96  NH1      248.0370  180.3940  217.1270 N.pl3 120  ARG120      0.1354
     97  NH2      247.4080  182.0950  215.7350 N.pl3 120  ARG120      0.1354
     98  N        243.6180  181.7050  222.7600 N.am  121  ARG121     -0.1980
     99  CA       243.4090  180.6690  223.7570 C.3   121  ARG121      0.1597
    100  C        241.9520  180.2250  223.8240 C.2   121  ARG121      0.2287
    101  O        241.6780  179.0460  224.0670 O.2   121  ARG121     -0.2864
    102  CB       243.8840  181.1630  225.1150 C.3   121  ARG121      0.0334
    103  CG       243.9400  180.0960  226.1610 C.3   121  ARG121      0.0492
    104  CD       244.3700  180.6850  227.4680 C.3   121  ARG121      0.2205
    105  NE       243.3370  181.5560  227.9850 N.pl3 121  ARG121     -0.0865
    106  CZ       243.5460  182.5090  228.8750 C.cat 121  ARG121      0.5346
    107  NH1      244.7620  182.7330  229.3280 N.pl3 121  ARG121      0.1354
    108  NH2      242.5410  183.2520  229.2980 N.pl3 121  ARG121      0.1354
    109  N        240.7480  177.5740  221.3430 N.3   124  ASP124     -0.1239
    110  CA       241.0420  176.2170  221.7600 C.3   124  ASP124      0.1674
    111  C        240.0570  175.7270  222.8060 C.2   124  ASP124      0.2266
    112  O        239.8240  174.5210  222.9170 O.2   124  ASP124     -0.2867
    113  CB       242.4480  176.1250  222.3210 C.3   124  ASP124      0.1410
    114  CG       242.8620  174.7070  222.5770 C.2   124  ASP124      0.3668
    115  OD1      243.1700  174.0000  221.6000 O.co2 124  ASP124     -0.2456
    116  OD2      242.8300  174.2800  223.7450 O.co2 124  ASP124     -0.2456
    117  N        243.0270  175.4300  216.8020 N.3   131  MET131     -0.1245
    118  CA       244.1040  176.3860  216.6150 C.3   131  MET131      0.1570
    119  C        245.3900  175.7380  216.1450 C.2   131  MET131      0.2261
    120  O        246.4030  176.4290  216.0040 O.2   131  MET131     -0.2867
    121  CB       244.3280  177.1700  217.9010 C.3   131  MET131      0.0387
    122  CG       243.0580  177.8670  218.2830 C.3   131  MET131      0.0595
    123  SD       242.3440  178.6210  216.7990 S.3   131  MET131     -0.1393
    124  CE       243.4650  179.9350  216.4090 C.3   131  MET131      0.0692
    125  N        249.7910  179.4430  211.2160 N.3   136  PHE136     -0.1241
    126  CA       250.3360  180.5700  211.9620 C.3   136  PHE136      0.1605
    127  C        251.8340  180.3520  212.1040 C.2   136  PHE136      0.2264
    128  O        252.2700  179.6350  213.0080 O.2   136  PHE136     -0.2867
    129  CB       249.6400  180.6410  213.3080 C.3   136  PHE136      0.0534
    130  CG       250.2110  181.6320  214.2460 C.ar  136  PHE136     -0.0203
    131  CD1      249.9640  182.9670  214.0800 C.ar  136  PHE136     -0.0042
    132  CD2      250.9250  181.2220  215.3420 C.ar  136  PHE136     -0.0042
    133  CE1      250.4600  183.8750  214.9520 C.ar  136  PHE136     -0.0003
    134  CE2      251.4230  182.1340  216.2250 C.ar  136  PHE136     -0.0003
    135  CZ       251.1880  183.4650  216.0290 C.ar  136  PHE136     -0.0000
    136  N        253.9520  177.6850  213.8130 N.3   139  LEU139     -0.1245
    137  CA       253.9380  177.3590  215.2310 C.3   139  LEU139      0.1561
    138  C        252.8100  176.4220  215.6270 C.2   139  LEU139      0.2260
    139  O        252.8940  175.8090  216.6940 O.2   139  LEU139     -0.2867
    140  CB       253.8340  178.6330  216.0690 C.3   139  LEU139      0.0270
    141  CG       255.1150  179.3320  216.5240 C.3   139  LEU139      0.0019
    142  CD1      255.9390  179.7890  215.3580 C.3   139  LEU139      0.0001
    143  CD2      254.7590  180.5210  217.3820 C.3   139  LEU139      0.0001
    144  N        251.5110  174.3050  218.8890 N.3   143  LEU143     -0.1245
    145  CA       250.4570  175.1360  219.5360 C.3   143  LEU143      0.1561
    146  C        249.0800  174.4740  219.4060 C.2   143  LEU143      0.2260
    147  O        248.0830  175.1300  219.7580 O.2   143  LEU143     -0.2867
    148  CB       250.4560  176.5260  218.8930 C.3   143  LEU143      0.0270
    149  CG       251.3670  177.5540  219.5610 C.3   143  LEU143      0.0019
    150  CD1      251.0090  178.9640  219.1200 C.3   143  LEU143      0.0001
    151  CD2      251.2950  177.4330  221.0740 C.3   143  LEU143      0.0001
    152  N        247.8060  171.9300  221.0970 N.3   145  GLY145     -0.1225
    153  CA       247.2640  171.6600  222.4430 C.3   145  GLY145      0.1811
    154  C        246.7900  170.2230  222.5800 C.2   145  GLY145      0.2280
    155  O        246.8300  169.4860  221.5750 O.2   145  GLY145     -0.2866
    156  N        241.1650  172.0010  228.1310 N.3   149  PRO149     -0.2102
    157  CA       241.7190  173.3320  227.8750 C.3   149  PRO149      0.1504
    158  C        242.6950  173.8120  228.9600 C.2   149  PRO149      0.2576
    159  O        243.6850  174.4280  228.6150 O.2   149  PRO149     -0.2718
    160  CB       240.4810  174.2410  227.8580 C.3   149  PRO149      0.0282
    161  CG       239.4630  173.4910  228.6820 C.3   149  PRO149      0.0208
    162  CD       239.7190  172.0360  228.3550 C.3   149  PRO149      0.0893
    163  N        242.3910  173.5270  230.2300 N.am  150  SER150     -0.1953
    164  CA       243.2420  174.0040  231.3520 C.3   150  SER150      0.1924
    165  C        244.6960  173.5600  231.1640 C.2   150  SER150      0.2314
    166  O        245.5890  174.4000  231.3720 O.2   150  SER150     -0.2863
    167  CB       242.7000  173.5200  232.6700 C.3   150  SER150      0.2116
    168  OG       241.4590  174.1430  232.9640 O.3   150  SER150     -0.2180
    169  N        247.4120  172.5280  228.4340 N.3   152  PRO152     -0.2116
    170  CA       247.7520  172.4250  227.0110 C.3   152  PRO152      0.1372
    171  C        248.7010  171.2780  226.6290 C.2   152  PRO152      0.2244
    172  O        248.5000  170.6840  225.5870 O.2   152  PRO152     -0.2868
    173  CB       248.4350  173.7650  226.6940 C.3   152  PRO152      0.0268
    174  CG       248.0070  174.6770  227.8180 C.3   152  PRO152      0.0207
    175  CD       247.9200  173.7650  229.0210 C.3   152  PRO152      0.0892
    176  N        255.9810  172.7790  223.2740 N.3   156  PHE156     -0.1227
    177  CA       256.4290  173.9430  224.0260 C.3   156  PHE156      0.1736
    178  C        255.9500  173.8880  225.4680 C.2   156  PHE156      0.2595
    179  O        256.7470  173.6890  226.3890 O.2   156  PHE156     -0.2718
    180  CB       255.9390  175.2270  223.3720 C.3   156  PHE156      0.0547
    181  CG       256.4380  176.4620  224.0430 C.ar  156  PHE156     -0.0202
    182  CD1      257.6700  176.9790  223.7180 C.ar  156  PHE156     -0.0042
    183  CD2      255.6970  177.0900  225.0120 C.ar  156  PHE156     -0.0042
    184  CE1      258.1430  178.1070  224.3270 C.ar  156  PHE156     -0.0003
    185  CE2      256.1690  178.2170  225.6240 C.ar  156  PHE156     -0.0003
    186  CZ       257.3950  178.7250  225.2800 C.ar  156  PHE156     -0.0000
    187  N        254.6380  174.0460  225.6770 N.am  157  PHE157     -0.1976
    188  CA       254.1300  174.3790  227.0030 C.3   157  PHE157      0.1639
    189  C        254.6330  173.4180  228.0610 C.2   157  PHE157      0.2290
    190  O        254.9430  173.8310  229.1810 O.2   157  PHE157     -0.2864
    191  CB       252.6080  174.4270  227.0080 C.3   157  PHE157      0.0560
    192  CG       252.0560  175.5720  226.2440 C.ar  157  PHE157     -0.0200
    193  CD1      252.1350  176.8450  226.7600 C.ar  157  PHE157     -0.0042
    194  CD2      251.4360  175.3830  225.0370 C.ar  157  PHE157     -0.0042
    195  CE1      251.6390  177.9080  226.0710 C.ar  157  PHE157     -0.0003
    196  CE2      250.9330  176.4470  224.3480 C.ar  157  PHE157     -0.0003
    197  CZ       251.0360  177.7110  224.8670 C.ar  157  PHE157     -0.0000
    198  N        257.8120  171.3630  227.7590 N.3   159  MET159     -0.1245
    199  CA       258.9920  170.8840  227.0630 C.3   159  MET159      0.1570
    200  C        259.7360  169.8220  227.8520 C.2   159  MET159      0.2261
    201  O        260.1180  168.7920  227.2920 O.2   159  MET159     -0.2867
    202  CB       259.8890  172.0670  226.7090 C.3   159  MET159      0.0387
    203  CG       260.3000  172.9280  227.8670 C.3   159  MET159      0.0595
    204  SD       260.9500  174.4860  227.2460 S.3   159  MET159     -0.1393
    205  CE       259.4200  175.3740  226.9780 C.3   159  MET159      0.0692
@<TRIPOS>BOND
     1   125   126    1
     2   126   127    1
     3   126   129    1
     4   127   128    2
     5   129   130    1
     6   136   137    1
     7   131   130   ar
     8   131   133   ar
     9   130   132   ar
    10   133   135   ar
    11   137   138    1
    12   137   140    1
    13   132   134   ar
    14   142   141    1
    15    81    79   ar
    16    81    80   ar
    17   138   139    2
    18    79    77   ar
    19    97    95    1
    20   120   119    2
    21   135   134   ar
    22   140   141    1
    23   119   118    1
    24   124   123    1
    25   141   143    1
    26    80    78   ar
    27   118   117    1
    28   118   121    1
    29    95    96    1
    30    95    94    2
    31   123   122    1
    32    77    76   ar
    33    94    93    1
    34    78    76   ar
    35   121   122    1
    36    76    75    1
    37    93    92    1
    38   144   145    1
    39   148   145    1
    40   148   149    1
    41   150   149    1
    42    75    72    1
    43   146   145    1
    44   146   147    2
    45   149   151    1
    46    92    91    1
    47    72    71    1
    48    72    73    1
    49    91    88    1
    50    88    87    1
    51    88    89    1
    52    74    73    2
    53    73    82   am
    54    90    89    2
    55   152   153    1
    56    58    59    1
    57   109   110    1
    58    59    62    1
    59    59    60    1
    60    89    98   am
    61   155   154    2
    62   115   114   ar
    63   110   113    1
    64   110   111    1
    65    82    83    1
    66    61    60    2
    67   113   114    1
    68    60    63   am
    69   153   154    1
    70   114   116   ar
    71    98    99    1
    72   111   112    2
    73    83    84    1
    74    83    86    1
    75   176   177    1
    76    85    84    2
    77   180   177    1
    78   180   181    1
    79    63    64    1
    80   182   181   ar
    81   182   184   ar
    82    99   100    1
    83    99   102    1
    84   100   101    2
    85   177   178    1
    86   181   183   ar
    87    65    64    1
    88    65    66    2
    89   184   186   ar
    90   196   197   ar
    91   196   194   ar
    92    64    67    1
    93   197   195   ar
    94   183   185   ar
    95   194   192   ar
    96   102   103    1
    97   186   185   ar
    98   178   187   am
    99   178   179    2
   100   172   171    2
   101   187   188    1
   102    67    68    1
   103   195   193   ar
   104   103   104    1
   105   192   193   ar
   106   192   191    1
   107   171   170    1
   108   173   170    1
   109   173   174    1
   110   202   199    1
   111   202   203    1
   112    68    69    1
   113   205   204    1
   114   188   191    1
   115   188   189    1
   116   170   169    1
   117   199   198    1
   118   199   200    1
   119   204   203    1
   120   201   200    2
   121    69    70    1
   122   104   105    1
   123   174   175    1
   124   160   157    1
   125   160   161    1
   126   157   156    1
   127   157   158    1
   128   105   106    2
   129   189   190    2
   130   156   162    1
   131    12    11    1
   132   162   161    1
   133   169   175    1
   134   159   158    2
   135   106   108    1
   136   106   107    1
   137   158   163   am
   138    11    10   ar
   139    11     9   ar
   140    10     8   ar
   141   163   164    1
   142     9     7   ar
   143     8     6   ar
   144   165   164    1
   145   165   166    2
   146     7     6   ar
   147   164   167    1
   148     6     5    1
   149    27    25    1
   150    49    47   ar
   151    49    48   ar
   152     5     2    1
   153   167   168    1
   154    25    24    1
   155    47    45   ar
   156    48    46   ar
   157    26    24    1
   158     4     3    2
   159     2     3    1
   160     2     1    1
   161    24    21    1
   162    38    36    1
   163    35    36    2
   164    35    34    1
   165    45    44   ar
   166    36    37    1
   167    34    33    1
   168    46    44   ar
   169    56    55    1
   170    44    43    1
   171    21    20    1
   172    21    22    1
   173    18    17    1
   174    20    15   am
   175    33    32    1
   176    32    29    1
   177    17    19    1
   178    17    14    1
   179    55    57    1
   180    55    54    1
   181    22    23    2
   182    43    40    1
   183    15    16    2
   184    15    14    1
   185    54    51    1
   186    39    40    1
   187    39    30   am
   188    40    41    1
   189    14    13    1
   190    29    30    1
   191    29    28    1
   192    30    31    2
   193    51    52    1
   194    51    50    1
   195    41    42    2
   196    53    52    2
