@<TRIPOS>MOLECULE
tmp/6igzN03.pdb
 61 57 0 0 0
SMALL
GASTEIGER

@<TRIPOS>ATOM
      1  N        243.2050  209.9480  209.4330 N.3   178  ALA178     -0.1245
      2  CA       243.1970  210.0220  210.8840 C.3   178  ALA178      0.1562
      3  C        244.4820  210.6230  211.4190 C.2   178  ALA178      0.2260
      4  O        244.4490  211.4190  212.3600 O.2   178  ALA178     -0.2867
      5  CB       242.9660  208.6390  211.4710 C.3   178  ALA178      0.0290
      6  N        244.3350  214.4440  210.9780 N.3   181  ALA181     -0.1231
      7  CA       243.4970  215.1740  211.9180 C.3   181  ALA181      0.1694
      8  C        244.1520  215.3260  213.2790 C.2   181  ALA181      0.2591
      9  O        243.7550  216.2050  214.0460 O.2   181  ALA181     -0.2718
     10  CB       242.1470  214.4810  212.0670 C.3   181  ALA181      0.0304
     11  N        245.1450  214.5030  213.5920 N.am  182  ALA182     -0.1980
     12  CA       245.8120  214.5690  214.8950 C.3   182  ALA182      0.1597
     13  C        247.1010  215.3800  214.8030 C.2   182  ALA182      0.2287
     14  O        247.2140  216.4480  215.4080 O.2   182  ALA182     -0.2864
     15  CB       246.0750  213.1590  215.4210 C.3   182  ALA182      0.0319
     16  N        252.1550  207.4820  218.6740 N.3   203  CYS203     -0.1221
     17  CA       250.7530  207.8770  218.6210 C.3   203  CYS203      0.1808
     18  C        250.3000  208.5270  219.9170 C.2   203  CYS203      0.2601
     19  O        249.5610  209.5150  219.8940 O.2   203  CYS203     -0.2717
     20  CB       249.8750  206.6730  218.3110 C.3   203  CYS203      0.0970
     21  SG       248.1480  207.1090  218.2160 S.3   203  CYS203     -0.0800
     22  N        250.7190  207.9820  221.0550 N.am  204  ALA204     -0.1979
     23  CA       250.2800  208.5180  222.3340 C.3   204  ALA204      0.1597
     24  C        250.7480  209.9460  222.5630 C.2   204  ALA204      0.2287
     25  O        250.2210  210.6230  223.4510 O.2   204  ALA204     -0.2864
     26  CB       250.7760  207.6270  223.4660 C.3   204  ALA204      0.0319
     27  N        250.7180  212.4830  220.2660 N.3   206  ASN206     -0.1240
     28  CA       250.1160  213.5240  219.4420 C.3   206  ASN206      0.1653
     29  C        249.1620  214.4100  220.2280 C.2   206  ASN206      0.2266
     30  O        248.7240  215.4370  219.7010 O.2   206  ASN206     -0.2867
     31  CB       249.4010  212.9090  218.2360 C.3   206  ASN206      0.1155
     32  CG       248.2230  212.0410  218.6190 C.2   206  ASN206      0.2627
     33  OD1      247.4760  212.3410  219.5440 O.2   206  ASN206     -0.2716
     34  ND2      248.0600  210.9430  217.9070 N.am  206  ASN206     -0.0877
     35  N        246.1130  214.1750  220.8360 N.3   208  VAL208     -0.1231
     36  CA       244.7230  214.1200  220.4050 C.3   208  VAL208      0.1692
     37  C        244.2210  212.7020  220.6050 C.2   208  VAL208      0.2593
     38  O        243.2060  212.4820  221.2690 O.2   208  VAL208     -0.2718
     39  CB       244.5430  214.5610  218.9470 C.3   208  VAL208      0.0266
     40  CG1      243.0950  214.4290  218.5540 C.3   208  VAL208      0.0020
     41  CG2      245.0150  215.9820  218.7650 C.3   208  VAL208      0.0020
     42  N        244.8870  211.7420  219.9650 N.am  209  SER209     -0.1938
     43  CA       244.4900  210.3460  220.0940 C.3   209  SER209      0.2055
     44  C        244.3670  209.9220  221.5480 C.2   209  SER209      0.2643
     45  O        243.4720  209.1520  221.9000 O.2   209  SER209     -0.2714
     46  CB       245.4910  209.4540  219.3730 C.3   209  SER209      0.2130
     47  OG       246.7650  209.5710  219.9700 O.3   209  SER209     -0.2179
     48  N        245.2380  210.4220  222.4150 N.am  210  VAL210     -0.1963
     49  CA       245.1740  210.0240  223.8170 C.3   210  VAL210      0.1712
     50  C        244.8790  211.2540  224.6660 C.2   210  VAL210      0.2458
     51  O        245.8060  211.8760  225.2020 O.2   210  VAL210     -0.2730
     52  CB       246.4730  209.3420  224.2690 C.3   210  VAL210      0.0289
     53  CG1      246.3550  208.8970  225.7120 C.3   210  VAL210      0.0023
     54  CG2      246.7930  208.1690  223.3750 C.3   210  VAL210      0.0023
     55  N        243.6210  211.6500  224.8020 N.am  211  PRO211     -0.2727
     56  CA       243.3040  212.8230  225.6110 C.3   211  PRO211      0.1402
     57  C        243.5420  212.5480  227.0850 C.2   211  PRO211      0.2269
     58  O        243.6540  211.4050  227.5300 O.2   211  PRO211     -0.2865
     59  CB       241.8170  213.0500  225.3310 C.3   211  PRO211      0.0296
     60  CG       241.5680  212.3590  224.0610 C.3   211  PRO211      0.0237
     61  CD       242.4310  211.1490  224.1070 C.3   211  PRO211      0.0939
@<TRIPOS>BOND
     1     1     2    1
     2     2     3    1
     3     2     5    1
     4     6     7    1
     5     3     4    2
     6     7    10    1
     7     7     8    1
     8     8    11   am
     9     8     9    2
    10    11    12    1
    11    13    12    1
    12    13    14    2
    13    12    15    1
    14    34    32   am
    15    21    20    1
    16    31    32    1
    17    31    28    1
    18    20    17    1
    19    40    39    1
    20    32    33    2
    21    17    16    1
    22    17    18    1
    23    41    39    1
    24    39    36    1
    25    46    47    1
    26    46    43    1
    27    28    29    1
    28    28    27    1
    29    30    29    2
    30    19    18    2
    31    18    22   am
    32    42    43    1
    33    42    37   am
    34    43    44    1
    35    36    37    1
    36    36    35    1
    37    37    38    2
    38    22    23    1
    39    44    45    2
    40    44    48   am
    41    23    24    1
    42    23    26    1
    43    48    49    1
    44    24    25    2
    45    54    52    1
    46    49    52    1
    47    49    50    1
    48    60    61    1
    49    60    59    1
    50    61    55    1
    51    52    53    1
    52    50    55   am
    53    50    51    2
    54    55    56    1
    55    59    56    1
    56    56    57    1
    57    57    58    2
