@<TRIPOS>MOLECULE
tmp/6igzP09.pdb
 87 84 0 0 0
SMALL
GASTEIGER

@<TRIPOS>ATOM
      1  N        206.7520  223.5390  165.1990 N.3    49  PHE49      -0.1241
      2  CA       206.8760  224.9280  165.6310 C.3    49  PHE49       0.1605
      3  C        208.2760  225.2210  166.1280 C.2    49  PHE49       0.2264
      4  O        208.8630  226.2510  165.7870 O.2    49  PHE49      -0.2867
      5  CB       205.8630  225.2780  166.7190 C.3    49  PHE49       0.0534
      6  CG       204.4940  225.5490  166.2070 C.ar   49  PHE49      -0.0203
      7  CD1      204.2330  226.7170  165.5300 C.ar   49  PHE49      -0.0042
      8  CD2      203.4560  224.6900  166.4640 C.ar   49  PHE49      -0.0042
      9  CE1      202.9850  226.9890  165.0580 C.ar   49  PHE49      -0.0003
     10  CE2      202.1950  224.9640  166.0050 C.ar   49  PHE49      -0.0003
     11  CZ       201.9590  226.1140  165.3020 C.ar   49  PHE49      -0.0000
     12  N        210.8910  225.6870  163.1010 N.3    52  MET52      -0.1245
     13  CA       210.6640  226.9950  162.4930 C.3    52  MET52       0.1570
     14  C        210.9440  228.1130  163.4800 C.2    52  MET52       0.2261
     15  O        211.7410  229.0140  163.2070 O.2    52  MET52      -0.2867
     16  CB       209.2310  227.1040  161.9800 C.3    52  MET52       0.0387
     17  CG       208.9270  226.2710  160.7680 C.3    52  MET52       0.0595
     18  SD       209.9490  226.7700  159.3840 S.3    52  MET52      -0.1393
     19  CE       209.3630  228.4380  159.1480 C.3    52  MET52       0.0692
     20  N        194.8390  236.9530  165.0550 N.3    96  GLN96      -0.1245
     21  CA       195.5030  235.6570  165.1210 C.3    96  GLN96       0.1566
     22  C        194.5640  234.5800  165.6330 C.2    96  GLN96       0.2260
     23  O        194.2270  233.6360  164.9150 O.2    96  GLN96      -0.2867
     24  CB       196.7180  235.7530  166.0340 C.3    96  GLN96       0.0367
     25  CG       197.4030  234.4390  166.2510 C.3    96  GLN96       0.0905
     26  CD       198.5700  234.5580  167.1900 C.2    96  GLN96       0.2608
     27  OE1      198.9510  235.6540  167.5830 O.2    96  GLN96      -0.2717
     28  NE2      199.1310  233.4260  167.5810 N.am   96  GLN96      -0.0878
     29  N        192.0390  233.5260  163.5190 N.3    99  LEU99      -0.1231
     30  CA       192.5470  233.0360  162.2480 C.3    99  LEU99       0.1693
     31  C        193.1840  231.6640  162.4080 C.2    99  LEU99       0.2591
     32  O        192.8680  230.7360  161.6600 O.2    99  LEU99      -0.2718
     33  CB       193.5410  234.0430  161.6850 C.3    99  LEU99       0.0284
     34  CG       194.0500  233.8380  160.2760 C.3    99  LEU99       0.0019
     35  CD1      192.8910  233.9940  159.3310 C.3    99  LEU99       0.0001
     36  CD2      195.1010  234.8690  159.9850 C.3    99  LEU99       0.0001
     37  N        194.0790  231.5170  163.3880 N.am  100  MET100     -0.1979
     38  CA       194.6800  230.2180  163.6770 C.3   100  MET100      0.1605
     39  C        193.6200  229.1950  164.0300 C.2   100  MET100      0.2287
     40  O        193.5150  228.1430  163.3950 O.2   100  MET100     -0.2864
     41  CB       195.6770  230.3360  164.8250 C.3   100  MET100      0.0413
     42  CG       196.9470  231.0630  164.4910 C.3   100  MET100      0.0598
     43  SD       197.8730  230.1750  163.2380 S.3   100  MET100     -0.1393
     44  CE       198.2480  228.6740  164.1280 C.3   100  MET100      0.0692
     45  N        190.7570  228.6330  163.4190 N.3   102  TRP102     -0.1227
     46  CA       190.0720  228.0020  162.3050 C.3   102  TRP102      0.1737
     47  C        190.8820  226.8320  161.7770 C.2   102  TRP102      0.2595
     48  O        190.3550  225.7350  161.5830 O.2   102  TRP102     -0.2718
     49  CB       189.8340  229.0040  161.1890 C.3   102  TRP102      0.0564
     50  CG       189.0720  228.4050  160.1050 C.ar  102  TRP102      0.0003
     51  CD1      189.5650  227.8220  158.9920 C.ar  102  TRP102      0.0946
     52  CD2      187.6530  228.3420  160.0020 C.ar  102  TRP102      0.0152
     53  NE1      188.5420  227.3740  158.2020 N.ar  102  TRP102     -0.2442
     54  CE2      187.3540  227.6890  158.8020 C.ar  102  TRP102      0.0810
     55  CE3      186.6020  228.7770  160.8120 C.ar  102  TRP102      0.0012
     56  CZ2      186.0560  227.4600  158.3900 C.ar  102  TRP102      0.0191
     57  CZ3      185.3160  228.5440  160.4040 C.ar  102  TRP102      0.0001
     58  CH2      185.0510  227.8960  159.2050 C.ar  102  TRP102      0.0015
     59  N        192.1720  227.0510  161.5390 N.am  103  ALA103     -0.1980
     60  CA       192.9890  226.0100  160.9330 C.3   103  ALA103      0.1597
     61  C        193.2480  224.8790  161.9040 C.2   103  ALA103      0.2287
     62  O        193.3220  223.7150  161.5050 O.2   103  ALA103     -0.2864
     63  CB       194.3100  226.5930  160.4510 C.3   103  ALA103      0.0319
     64  N        182.2940  223.4170  153.3400 N.3   123  PHE123     -0.1227
     65  CA       183.4300  224.3440  153.3390 C.3   123  PHE123      0.1736
     66  C        183.8550  224.6650  151.9050 C.2   123  PHE123      0.2596
     67  O        184.8900  224.2240  151.4130 O.2   123  PHE123     -0.2718
     68  CB       184.5870  223.7700  154.1610 C.3   123  PHE123      0.0547
     69  CG       185.7930  224.6420  154.2270 C.ar  123  PHE123     -0.0202
     70  CD1      185.7790  225.7990  154.9730 C.ar  123  PHE123     -0.0042
     71  CD2      186.9700  224.2570  153.6330 C.ar  123  PHE123     -0.0042
     72  CE1      186.8910  226.5890  155.0680 C.ar  123  PHE123     -0.0003
     73  CE2      188.0910  225.0420  153.7340 C.ar  123  PHE123     -0.0003
     74  CZ       188.0500  226.2080  154.4520 C.ar  123  PHE123     -0.0000
     75  N        183.0030  225.4610  151.2590 N.am  124  GLY124     -0.1957
     76  CA       182.9670  225.5930  149.8150 C.3   124  GLY124      0.1869
     77  C        184.3070  225.7990  149.1540 C.2   124  GLY124      0.2309
     78  O        185.1360  226.5740  149.6330 O.2   124  GLY124     -0.2863
     79  N        188.0770  224.6240  148.2110 N.3   126  LYS126     -0.1245
     80  CA       189.1290  224.1660  149.1190 C.3   126  LYS126      0.1561
     81  C        189.0370  222.6480  149.2390 C.2   126  LYS126      0.2260
     82  O        188.9150  221.9750  148.2040 O.2   126  LYS126     -0.2867
     83  CB       188.9810  224.9620  150.3970 C.3   126  LYS126      0.0271
     84  CG       189.4370  226.3800  150.1800 C.3   126  LYS126      0.0035
     85  CD       189.1500  227.3250  151.3120 C.3   126  LYS126      0.0206
     86  CE       187.6760  227.6530  151.3580 C.3   126  LYS126      0.1093
     87  NZ       187.2550  228.3190  150.1020 N.3   126  LYS126     -0.1314
@<TRIPOS>BOND
     1    82    81    2
     2    79    80    1
     3    80    81    1
     4    80    83    1
     5    77    78    2
     6    77    76    1
     7    76    75    1
     8    87    86    1
     9    84    83    1
    10    84    85    1
    11    75    66   am
    12    85    86    1
    13    67    66    2
    14    66    65    1
    15    65    64    1
    16    65    68    1
    17    71    73   ar
    18    71    69   ar
    19    73    74   ar
    20    68    69    1
    21    69    70   ar
    22    74    72   ar
    23    70    72   ar
    24    53    54   ar
    25    53    51   ar
    26    56    54   ar
    27    56    58   ar
    28    54    52   ar
    29    51    50   ar
    30    19    18    1
    31    58    57   ar
    32    35    34    1
    33    18    17    1
    34    36    34    1
    35    52    50   ar
    36    52    55   ar
    37    50    49    1
    38    34    33    1
    39    57    55   ar
    40    63    60    1
    41    17    16    1
    42    60    59    1
    43    60    61    1
    44    49    46    1
    45    62    61    2
    46    59    47   am
    47    48    47    2
    48    32    31    2
    49    33    30    1
    50    47    46    1
    51    16    13    1
    52    30    31    1
    53    30    29    1
    54    46    45    1
    55    31    37   am
    56    13    12    1
    57    13    14    1
    58    15    14    2
    59    43    44    1
    60    43    42    1
    61    37    38    1
    62    40    39    2
    63    38    39    1
    64    38    41    1
    65    42    41    1
    66    23    22    2
    67    20    21    1
    68     9    11   ar
    69     9     7   ar
    70    21    22    1
    71    21    24    1
    72     1     2    1
    73    11    10   ar
    74     7     6   ar
    75     2     3    1
    76     2     5    1
    77     4     3    2
    78    10     8   ar
    79    24    25    1
    80     6     8   ar
    81     6     5    1
    82    25    26    1
    83    26    28   am
    84    26    27    2
