@<TRIPOS>MOLECULE
tmp/6igzU02.pdb
 140 133 0 0 0
SMALL
GASTEIGER

@<TRIPOS>ATOM
      1  N        114.9430  240.4460  207.0180 N.3   139  LEU139     -0.1245
      2  CA       115.0730  241.8580  206.7040 C.3   139  LEU139      0.1561
      3  C        115.4830  242.6650  207.9200 C.2   139  LEU139      0.2260
      4  O        116.2620  243.6150  207.8010 O.2   139  LEU139     -0.2867
      5  CB       113.7620  242.3760  206.1230 C.3   139  LEU139      0.0270
      6  CG       113.6550  243.8740  205.8800 C.3   139  LEU139      0.0019
      7  CD1      112.9690  244.1560  204.5750 C.3   139  LEU139      0.0001
      8  CD2      112.8220  244.4360  207.0080 C.3   139  LEU139      0.0001
      9  N        119.1340  242.2460  208.6170 N.3   142  PHE142     -0.1227
     10  CA       119.7390  243.0060  207.5330 C.3   142  PHE142      0.1736
     11  C        119.5610  244.4980  207.7580 C.2   142  PHE142      0.2595
     12  O        120.4860  245.2850  207.5310 O.2   142  PHE142     -0.2718
     13  CB       119.1260  242.5820  206.2000 C.3   142  PHE142      0.0547
     14  CG       119.6730  243.3170  205.0090 C.ar  142  PHE142     -0.0202
     15  CD1      120.8550  242.9200  204.4190 C.ar  142  PHE142     -0.0042
     16  CD2      118.9960  244.3950  204.4690 C.ar  142  PHE142     -0.0042
     17  CE1      121.3550  243.5890  203.3200 C.ar  142  PHE142     -0.0003
     18  CE2      119.4940  245.0670  203.3730 C.ar  142  PHE142     -0.0003
     19  CZ       120.6730  244.6610  202.7980 C.ar  142  PHE142     -0.0000
     20  N        118.3830  244.9060  208.2280 N.am  143  ALA143     -0.1980
     21  CA       118.1450  246.3200  208.4800 C.3   143  ALA143      0.1597
     22  C        119.0330  246.8480  209.5910 C.2   143  ALA143      0.2287
     23  O        119.3380  248.0440  209.6210 O.2   143  ALA143     -0.2864
     24  CB       116.6800  246.5540  208.8260 C.3   143  ALA143      0.0319
     25  N        122.3310  246.0810  210.3670 N.3   145  THR145     -0.1203
     26  CA       123.6990  246.3880  209.9690 C.3   145  THR145      0.1994
     27  C        123.8120  247.7790  209.3720 C.2   145  THR145      0.2618
     28  O        124.8360  248.4500  209.5400 O.2   145  THR145     -0.2717
     29  CB       124.1920  245.3520  208.9660 C.3   145  THR145      0.1784
     30  OG1      124.0920  244.0480  209.5450 O.3   145  THR145     -0.2211
     31  CG2      125.6410  245.6200  208.6010 C.3   145  THR145      0.0376
     32  N        122.7710  248.2280  208.6720 N.am  146  GLY146     -0.1956
     33  CA       122.7470  249.6040  208.2110 C.3   146  GLY146      0.1869
     34  C        122.9890  250.5870  209.3350 C.2   146  GLY146      0.2309
     35  O        123.8700  251.4430  209.2450 O.2   146  GLY146     -0.2863
     36  N        126.6200  251.1040  209.9470 N.3   149  ALA149     -0.1231
     37  CA       127.2850  251.9250  208.9490 C.3   149  ALA149      0.1694
     38  C        126.7440  253.3450  208.9040 C.2   149  ALA149      0.2591
     39  O        127.4110  254.2230  208.3510 O.2   149  ALA149     -0.2718
     40  CB       127.1640  251.2730  207.5760 C.3   149  ALA149      0.0304
     41  N        125.5640  253.5970  209.4690 N.am  150  GLN150     -0.1979
     42  CA       125.0950  254.9710  209.5820 C.3   150  GLN150      0.1601
     43  C        125.8960  255.7280  210.6320 C.2   150  GLN150      0.2287
     44  O        126.2040  256.9140  210.4620 O.2   150  GLN150     -0.2864
     45  CB       123.6150  254.9990  209.9560 C.3   150  GLN150      0.0394
     46  CG       122.7030  254.2420  209.0330 C.3   150  GLN150      0.0908
     47  CD       122.7640  254.7340  207.6260 C.2   150  GLN150      0.2608
     48  OE1      123.3680  254.1010  206.7690 O.2   150  GLN150     -0.2717
     49  NE2      122.1530  255.8780  207.3720 N.am  150  GLN150     -0.0878
     50  N        130.1720  255.9500  209.5140 N.3   153  VAL153     -0.1231
     51  CA       130.5390  256.8550  208.4350 C.3   153  VAL153      0.1692
     52  C        129.8560  258.1970  208.6260 C.2   153  VAL153      0.2591
     53  O        130.5130  259.2180  208.8540 O.2   153  VAL153     -0.2718
     54  CB       130.1810  256.2550  207.0680 C.3   153  VAL153      0.0266
     55  CG1      130.4540  257.2640  205.9850 C.3   153  VAL153      0.0020
     56  CG2      130.9750  254.9920  206.8330 C.3   153  VAL153      0.0020
     57  N        128.5300  258.2060  208.5270 N.am  154  VAL154     -0.1980
     58  CA       127.7990  259.4600  208.6210 C.3   154  VAL154      0.1595
     59  C        127.7510  259.9370  210.0610 C.2   154  VAL154      0.2287
     60  O        127.7740  261.1430  210.3310 O.2   154  VAL154     -0.2864
     61  CB       126.3930  259.2860  208.0320 C.3   154  VAL154      0.0276
     62  CG1      125.6170  260.5680  208.1320 C.3   154  VAL154      0.0022
     63  CG2      126.5010  258.8530  206.6070 C.3   154  VAL154      0.0022
     64  N        119.4670  260.5330  208.4710 N.3   161  CYS161     -0.1221
     65  CA       119.8250  259.9270  207.1950 C.3   161  CYS161      0.1808
     66  C        118.6240  259.8560  206.2650 C.2   161  CYS161      0.2601
     67  O        118.6860  260.3020  205.1140 O.2   161  CYS161     -0.2717
     68  CB       120.3980  258.5340  207.4330 C.3   161  CYS161      0.0970
     69  SG       120.8580  257.6630  205.9340 S.3   161  CYS161     -0.0800
     70  N        117.5170  259.2940  206.7480 N.am  162  LEU162     -0.1979
     71  CA       116.3040  259.2500  205.9470 C.3   162  LEU162      0.1596
     72  C        115.7850  260.6460  205.6350 C.2   162  LEU162      0.2287
     73  O        115.0890  260.8290  204.6310 O.2   162  LEU162     -0.2864
     74  CB       115.2440  258.4240  206.6720 C.3   162  LEU162      0.0297
     75  CG       113.9000  258.2340  205.9800 C.3   162  LEU162      0.0022
     76  CD1      114.0940  257.4870  204.6810 C.3   162  LEU162      0.0001
     77  CD2      112.9510  257.4820  206.8870 C.3   162  LEU162      0.0001
     78  N        118.1340  263.0850  205.2840 N.3   164  ALA164     -0.1231
     79  CA       119.2250  263.6390  204.4930 C.3   164  ALA164      0.1694
     80  C        119.1990  263.1690  203.0510 C.2   164  ALA164      0.2592
     81  O        119.6180  263.9120  202.1600 O.2   164  ALA164     -0.2718
     82  CB       120.5730  263.2750  205.1150 C.3   164  ALA164      0.0304
     83  N        118.7410  261.9470  202.7950 N.am  165  HIS165     -0.1962
     84  CA       118.8020  261.4600  201.4240 C.3   165  HIS165      0.1787
     85  C        117.6950  262.0560  200.5680 C.2   165  HIS165      0.2620
     86  O        117.9450  262.4810  199.4350 O.2   165  HIS165     -0.2715
     87  CB       118.7230  259.9400  201.3810 C.3   165  HIS165      0.0785
     88  CG       119.0120  259.3820  200.0280 C.ar  165  HIS165      0.0821
     89  ND1      120.2480  259.5040  199.4310 N.ar  165  HIS165     -0.2267
     90  CD2      118.2250  258.7380  199.1360 C.ar  165  HIS165      0.1154
     91  CE1      120.2170  258.9390  198.2380 C.ar  165  HIS165      0.1986
     92  NE2      119.0000  258.4680  198.0350 N.ar  165  HIS165     -0.2212
     93  N        116.4650  262.0880  201.0840 N.am  166  LEU166     -0.1977
     94  CA       115.3740  262.7020  200.3400 C.3   166  LEU166      0.1596
     95  C        115.5340  264.2090  200.2290 C.2   166  LEU166      0.2287
     96  O        114.8770  264.8280  199.3880 O.2   166  LEU166     -0.2864
     97  CB       114.0310  262.3610  200.9780 C.3   166  LEU166      0.0297
     98  CG       113.3870  261.0490  200.5190 C.3   166  LEU166      0.0022
     99  CD1      114.2170  259.8440  200.9160 C.3   166  LEU166      0.0001
    100  CD2      111.9770  260.9270  201.0740 C.3   166  LEU166      0.0001
    101  N        124.1720  262.9510  199.0990 N.3   172  GLN172     -0.1231
    102  CA       124.0850  262.0840  200.2650 C.3   172  GLN172      0.1698
    103  C        123.6860  260.6930  199.8090 C.2   172  GLN172      0.2592
    104  O        122.5550  260.4820  199.3610 O.2   172  GLN172     -0.2718
    105  CB       123.0950  262.6400  201.2830 C.3   172  GLN172      0.0381
    106  CG       123.5950  263.9040  201.9410 C.3   172  GLN172      0.0905
    107  CD       124.8210  263.6440  202.7940 C.2   172  GLN172      0.2608
    108  OE1      125.9530  263.8460  202.3550 O.2   172  GLN172     -0.2717
    109  NE2      124.6000  263.1960  204.0230 N.am  172  GLN172     -0.0878
    110  N        124.6070  259.7500  199.9380 N.am  173  ASN173     -0.1960
    111  CA       124.3370  258.3540  199.6340 C.3   173  ASN173      0.1819
    112  C        125.4960  257.5360  200.1810 C.2   173  ASN173      0.2621
    113  O        126.4620  258.0800  200.7240 O.2   173  ASN173     -0.2715
    114  CB       124.1220  258.1350  198.1330 C.3   173  ASN173      0.1195
    115  CG       125.3240  258.5290  197.2960 C.2   173  ASN173      0.2630
    116  OD1      126.4700  258.3300  197.6870 O.2   173  ASN173     -0.2716
    117  ND2      125.0600  259.1100  196.1350 N.am  173  ASN173     -0.0877
    118  N        125.3870  256.2160  200.0250 N.am  174  ILE174     -0.1977
    119  CA       126.4620  255.3090  200.4180 C.3   174  ILE174      0.1596
    120  C        127.7970  255.7780  199.8650 C.2   174  ILE174      0.2287
    121  O        128.7660  255.9550  200.6050 O.2   174  ILE174     -0.2864
    122  CB       126.1380  253.8760  199.9640 C.3   174  ILE174      0.0276
    123  CG1      127.3740  252.9720  200.0780 C.3   174  ILE174      0.0022
    124  CG2      125.5110  253.8790  198.5720 C.3   174  ILE174      0.0022
    125  CD1      127.8880  252.7580  201.4640 C.3   174  ILE174      0.0001
    126  N        129.0930  260.0840  200.7870 N.3   177  ASN177     -0.1225
    127  CA       129.5170  260.5200  202.1090 C.3   177  ASN177      0.1785
    128  C        130.4720  259.5480  202.7880 C.2   177  ASN177      0.2597
    129  O        130.9050  259.8110  203.9120 O.2   177  ASN177     -0.2718
    130  CB       128.2950  260.7630  202.9950 C.3   177  ASN177      0.1169
    131  CG       127.4910  259.5150  203.2180 C.2   177  ASN177      0.2627
    132  OD1      128.0380  258.4220  203.3140 O.2   177  ASN177     -0.2716
    133  ND2      126.1760  259.6650  203.2870 N.am  177  ASN177     -0.0877
    134  N        130.7720  258.4130  202.1670 N.am  178  VAL178     -0.1980
    135  CA       131.9420  257.6440  202.5740 C.3   178  VAL178      0.1595
    136  C        133.2020  258.3220  202.0690 C.2   178  VAL178      0.2287
    137  O        134.0770  258.7150  202.8470 O.2   178  VAL178     -0.2864
    138  CB       131.8490  256.1920  202.0790 C.3   178  VAL178      0.0276
    139  CG1      133.1730  255.4990  202.2770 C.3   178  VAL178      0.0022
    140  CG2      130.7870  255.4550  202.8470 C.3   178  VAL178      0.0022
@<TRIPOS>BOND
     1   117   115   am
     2   115   116    2
     3   115   114    1
     4    92    91   ar
     5    92    90   ar
     6   114   111    1
     7    91    89   ar
     8   124   122    1
     9   101   102    1
    10    90    88   ar
    11   104   103    2
    12    96    95    2
    13    89    88   ar
    14    86    85    2
    15   111   110    1
    16   111   112    1
    17   103   110   am
    18   103   102    1
    19   120   119    1
    20   120   121    2
    21   122   123    1
    22   122   119    1
    23   118   112   am
    24   118   119    1
    25    88    87    1
    26   123   125    1
    27   112   113    2
    28    95    94    1
    29   102   105    1
    30    94    97    1
    31    94    93    1
    32    98    99    1
    33    98    97    1
    34    98   100    1
    35    85    93   am
    36    85    84    1
    37   126   127    1
    38   105   106    1
    39    87    84    1
    40    84    83    1
    41   106   107    1
    42   136   135    1
    43   136   137    2
    44   138   139    1
    45   138   135    1
    46   138   140    1
    47   127   128    1
    48   127   130    1
    49    81    80    2
    50   134   135    1
    51   134   128   am
    52   108   107    2
    53   128   129    2
    54   107   109   am
    55    83    80   am
    56    19    17   ar
    57    19    18   ar
    58   130   131    1
    59    80    79    1
    60   131   133   am
    61   131   132    2
    62    17    15   ar
    63    18    16   ar
    64    15    14   ar
    65    16    14   ar
    66    79    82    1
    67    79    78    1
    68     7     6    1
    69    73    72    2
    70    76    75    1
    71    14    13    1
    72    67    66    2
    73    72    71    1
    74     6     5    1
    75     6     8    1
    76    69    68    1
    77    71    74    1
    78    71    70    1
    79    75    74    1
    80    75    77    1
    81    55    54    1
    82     5     2    1
    83    13    10    1
    84    66    70   am
    85    66    65    1
    86    63    61    1
    87     2     1    1
    88     2     3    1
    89    48    47    2
    90    56    54    1
    91    54    51    1
    92    65    68    1
    93    65    64    1
    94    49    47   am
    95    12    11    2
    96    10    11    1
    97    10     9    1
    98    40    37    1
    99    47    46    1
   100    11    20   am
   101     4     3    2
   102    61    62    1
   103    61    58    1
   104    33    32    1
   105    33    34    1
   106    20    21    1
   107    39    38    2
   108    51    52    1
   109    51    50    1
   110    21    24    1
   111    21    22    1
   112    57    58    1
   113    57    52   am
   114    31    29    1
   115    58    59    1
   116    52    53    2
   117    32    27   am
   118    38    37    1
   119    38    41   am
   120    37    36    1
   121    29    30    1
   122    29    26    1
   123    46    45    1
   124    35    34    2
   125    27    28    2
   126    27    26    1
   127    41    42    1
   128    42    45    1
   129    42    43    1
   130    22    23    2
   131    26    25    1
   132    59    60    2
   133    44    43    2
