@<TRIPOS>MOLECULE
tmp/6igzL00.pdb
 89 86 0 0 0
SMALL
GASTEIGER

@<TRIPOS>ATOM
      1  N        168.3770  193.0910  271.8830 N.3    29  PHE29      -0.1241
      2  CA       168.2150  194.5410  271.8360 C.3    29  PHE29       0.1605
      3  C        167.2720  194.9630  270.7240 C.2    29  PHE29       0.2264
      4  O        166.2490  195.6040  270.9810 O.2    29  PHE29      -0.2867
      5  CB       169.5620  195.2270  271.6550 C.3    29  PHE29       0.0534
      6  CG       169.4570  196.7150  271.5480 C.ar   29  PHE29      -0.0203
      7  CD1      169.2890  197.4880  272.6820 C.ar   29  PHE29      -0.0042
      8  CD2      169.5210  197.3440  270.3200 C.ar   29  PHE29      -0.0042
      9  CE1      169.1890  198.8610  272.5950 C.ar   29  PHE29      -0.0003
     10  CE2      169.4220  198.7190  270.2260 C.ar   29  PHE29      -0.0003
     11  CZ       169.2540  199.4780  271.3650 C.ar   29  PHE29      -0.0000
     12  N        156.8560  209.7000  268.9900 N.3    51  LEU51      -0.1231
     13  CA       157.0900  210.5090  270.1780 C.3    51  LEU51       0.1693
     14  C        158.5670  210.8340  270.3420 C.2    51  LEU51       0.2592
     15  O        158.9280  211.9230  270.7960 O.2    51  LEU51      -0.2718
     16  CB       156.5410  209.7720  271.3960 C.3    51  LEU51       0.0284
     17  CG       156.5870  210.3920  272.7820 C.3    51  LEU51       0.0019
     18  CD1      155.3210  210.0770  273.5430 C.3    51  LEU51       0.0001
     19  CD2      157.7530  209.7760  273.4810 C.3    51  LEU51       0.0001
     20  N        159.4370  209.9030  269.9600 N.am   52  THR52      -0.1953
     21  CA       160.8670  210.1190  270.1320 C.3    52  THR52       0.1897
     22  C        161.4260  211.0090  269.0300 C.2    52  THR52       0.2313
     23  O        162.2330  211.9080  269.2910 O.2    52  THR52      -0.2863
     24  CB       161.5950  208.7800  270.1470 C.3    52  THR52       0.1794
     25  OG1      161.3690  208.1090  268.9050 O.3    52  THR52      -0.2208
     26  CG2      161.0730  207.9150  271.2500 C.3    52  THR52       0.0378
     27  N        161.4520  214.8440  269.3990 N.3    55  PHE55      -0.1227
     28  CA       162.3350  215.4940  270.3590 C.3    55  PHE55       0.1736
     29  C        163.7210  215.7120  269.7710 C.2    55  PHE55       0.2595
     30  O        164.3080  216.7910  269.8970 O.2    55  PHE55      -0.2718
     31  CB       162.4090  214.6500  271.6320 C.3    55  PHE55       0.0547
     32  CG       163.2950  215.2250  272.6980 C.ar   55  PHE55      -0.0202
     33  CD1      162.8560  216.2680  273.4870 C.ar   55  PHE55      -0.0042
     34  CD2      164.5550  214.7030  272.9350 C.ar   55  PHE55      -0.0042
     35  CE1      163.6630  216.7980  274.4720 C.ar   55  PHE55      -0.0003
     36  CE2      165.3680  215.2290  273.9260 C.ar   55  PHE55      -0.0003
     37  CZ       164.9190  216.2760  274.6940 C.ar   55  PHE55      -0.0000
     38  N        164.2550  214.6900  269.1100 N.am   56  LEU56      -0.1980
     39  CA       165.6360  214.7480  268.6490 C.3    56  LEU56       0.1596
     40  C        165.7690  215.6030  267.3950 C.2    56  LEU56       0.2287
     41  O        166.8300  216.1760  267.1310 O.2    56  LEU56      -0.2864
     42  CB       166.1380  213.3250  268.4250 C.3    56  LEU56       0.0297
     43  CG       165.3450  212.4630  267.4380 C.3    56  LEU56       0.0022
     44  CD1      165.8630  212.5990  266.0130 C.3    56  LEU56       0.0001
     45  CD2      165.2890  211.0060  267.8690 C.3    56  LEU56       0.0001
     46  N        150.2510  211.3470  266.8090 N.3   139  VAL139     -0.1245
     47  CA       149.9760  211.6450  268.2140 C.3   139  VAL139      0.1561
     48  C        151.2760  211.8550  268.9770 C.2   139  VAL139      0.2260
     49  O        151.4430  212.8430  269.7010 O.2   139  VAL139     -0.2867
     50  CB       149.1360  210.5250  268.8520 C.3   139  VAL139      0.0252
     51  CG1      149.0060  210.7600  270.3490 C.3   139  VAL139      0.0019
     52  CG2      147.7670  210.4620  268.2120 C.3   139  VAL139      0.0019
     53  N        154.0130  215.3230  270.4900 N.3   143  SER143     -0.1202
     54  CA       154.4660  215.3750  271.8730 C.3   143  SER143      0.2020
     55  C        155.9680  215.6030  271.9560 C.2   143  SER143      0.2619
     56  O        156.4370  216.4520  272.7200 O.2   143  SER143     -0.2717
     57  CB       154.0790  214.0840  272.5840 C.3   143  SER143      0.2103
     58  OG       154.6990  212.9730  271.9690 O.3   143  SER143     -0.2182
     59  N        156.7370  214.8480  271.1760 N.am  144  GLY144     -0.1956
     60  CA       158.1830  214.9480  271.1870 C.3   144  GLY144      0.1869
     61  C        158.6990  216.3590  271.0020 C.2   144  GLY144      0.2309
     62  O        159.5450  216.8200  271.7720 O.2   144  GLY144     -0.2863
     63  N        156.8520  219.0100  271.4170 N.3   146  ALA146     -0.1231
     64  CA       156.2890  219.7840  272.5170 C.3   146  ALA146      0.1694
     65  C        157.1820  219.7140  273.7460 C.2   146  ALA146      0.2592
     66  O        157.6710  220.7380  274.2360 O.2   146  ALA146     -0.2718
     67  CB       154.8840  219.2770  272.8420 C.3   146  ALA146      0.0304
     68  N        157.4310  218.5010  274.2390 N.am  147  TRP147     -0.1976
     69  CA       158.2660  218.3380  275.4220 C.3   147  TRP147      0.1640
     70  C        159.6700  218.8530  275.1600 C.2   147  TRP147      0.2290
     71  O        160.3590  219.2950  276.0850 O.2   147  TRP147     -0.2864
     72  CB       158.2810  216.8700  275.8330 C.3   147  TRP147      0.0576
     73  CG       158.9340  216.5580  277.1460 C.ar  147  TRP147      0.0006
     74  CD1      158.3820  216.7110  278.3830 C.ar  147  TRP147      0.0946
     75  CD2      160.2130  215.9410  277.3570 C.ar  147  TRP147      0.0152
     76  NE1      159.2530  216.2750  279.3500 N.ar  147  TRP147     -0.2442
     77  CE2      160.3820  215.7920  278.7460 C.ar  147  TRP147      0.0810
     78  CE3      161.2370  215.5180  276.5080 C.ar  147  TRP147      0.0012
     79  CZ2      161.5340  215.2470  279.3050 C.ar  147  TRP147      0.0191
     80  CZ3      162.3830  214.9730  277.0700 C.ar  147  TRP147      0.0001
     81  CH2      162.5200  214.8430  278.4510 C.ar  147  TRP147      0.0015
     82  N        159.1440  222.4720  276.0250 N.3   150  LEU150     -0.1245
     83  CA       159.0710  222.5760  277.4760 C.3   150  LEU150      0.1561
     84  C        160.4390  222.3620  278.1000 C.2   150  LEU150      0.2260
     85  O        160.8150  223.0460  279.0580 O.2   150  LEU150     -0.2867
     86  CB       158.0650  221.5650  278.0190 C.3   150  LEU150      0.0270
     87  CG       156.5890  221.9630  278.0340 C.3   150  LEU150      0.0019
     88  CD1      156.0400  222.1890  276.6360 C.3   150  LEU150      0.0001
     89  CD2      155.7810  220.8940  278.7460 C.3   150  LEU150      0.0001
@<TRIPOS>BOND
     1    44    43    1
     2    46    47    1
     3    41    40    2
     4    40    39    1
     5    43    45    1
     6    43    42    1
     7    52    50    1
     8    47    50    1
     9    47    48    1
    10    42    39    1
    11    39    38    1
    12    50    51    1
    13    25    24    1
    14    48    49    2
    15    12    13    1
    16    22    23    2
    17    22    21    1
    18    38    29   am
    19    27    28    1
    20    29    30    2
    21    29    28    1
    22    20    21    1
    23    20    14   am
    24    21    24    1
    25    24    26    1
    26    13    14    1
    27    13    16    1
    28    10     8   ar
    29    10    11   ar
    30     8     6   ar
    31    14    15    2
    32    28    31    1
    33    53    54    1
    34     3     4    2
    35     3     2    1
    36    61    60    1
    37    61    62    2
    38    59    60    1
    39    59    55   am
    40    11     9   ar
    41    16    17    1
    42    63    64    1
    43     6     5    1
    44     6     7   ar
    45    31    32    1
    46     5     2    1
    47     2     1    1
    48    54    55    1
    49    54    57    1
    50    55    56    2
    51    58    57    1
    52    64    67    1
    53    64    65    1
    54     9     7   ar
    55    32    34   ar
    56    32    33   ar
    57    17    19    1
    58    17    18    1
    59    34    36   ar
    60    33    35   ar
    61    65    66    2
    62    65    68   am
    63    36    37   ar
    64    68    69    1
    65    35    37   ar
    66    70    69    1
    67    70    71    2
    68    69    72    1
    69    72    73    1
    70    82    83    1
    71    78    80   ar
    72    78    75   ar
    73    88    87    1
    74    80    81   ar
    75    73    75   ar
    76    73    74   ar
    77    75    77   ar
    78    83    86    1
    79    83    84    1
    80    86    87    1
    81    87    89    1
    82    84    85    2
    83    74    76   ar
    84    81    79   ar
    85    77    79   ar
    86    77    76   ar
