@<TRIPOS>MOLECULE
tmp/6igzS08.pdb
 117 116 0 0 0
SMALL
GASTEIGER

@<TRIPOS>ATOM
      1  N        275.7350  187.9400  193.2850 N.3   102  TYR102     -0.1241
      2  CA       275.8160  186.7990  192.3880 C.3   102  TYR102      0.1605
      3  C        275.8780  185.4990  193.1640 C.2   102  TYR102      0.2264
      4  O        275.0500  184.6080  192.9650 O.2   102  TYR102     -0.2867
      5  CB       277.0250  186.9170  191.4740 C.3   102  TYR102      0.0534
      6  CG       277.2420  185.6650  190.6770 C.ar  102  TYR102     -0.0201
      7  CD1      276.4030  185.3310  189.6340 C.ar  102  TYR102     -0.0009
      8  CD2      278.2810  184.8140  190.9690 C.ar  102  TYR102     -0.0009
      9  CE1      276.5930  184.1860  188.9140 C.ar  102  TYR102      0.0417
     10  CE2      278.4780  183.6720  190.2490 C.ar  102  TYR102      0.0417
     11  CZ       277.6330  183.3610  189.2270 C.ar  102  TYR102      0.1957
     12  OH       277.8360  182.2120  188.5090 O.3   102  TYR102     -0.2866
     13  N        273.2230  182.7310  193.3200 N.3   106  ARG106     -0.1245
     14  CA       273.7100  181.4600  192.8090 C.3   106  ARG106      0.1563
     15  C        273.3840  180.3290  193.7650 C.2   106  ARG106      0.2260
     16  O        273.0660  179.2160  193.3390 O.2   106  ARG106     -0.2867
     17  CB       275.2090  181.5450  192.5980 C.3   106  ARG106      0.0307
     18  CG       275.8280  180.3160  192.0520 C.3   106  ARG106      0.0489
     19  CD       275.3660  180.0500  190.6520 C.3   106  ARG106      0.2205
     20  NE       276.1060  178.9340  190.0840 N.pl3 106  ARG106     -0.0865
     21  CZ       275.8280  178.3630  188.9240 C.cat 106  ARG106      0.5346
     22  NH1      276.5680  177.3560  188.4930 N.pl3 106  ARG106      0.1354
     23  NH2      274.8320  178.8180  188.1840 N.pl3 106  ARG106      0.1354
     24  N        274.6000  172.8930  189.5160 N.3   118  ASN118     -0.1225
     25  CA       275.8490  172.7690  190.2380 C.3   118  ASN118      0.1785
     26  C        277.0410  172.9670  189.3230 C.2   118  ASN118      0.2597
     27  O        278.1810  172.8200  189.7670 O.2   118  ASN118     -0.2718
     28  CB       275.9090  171.4140  190.9270 C.3   118  ASN118      0.1169
     29  CG       275.7900  170.2780  189.9560 C.2   118  ASN118      0.2627
     30  OD1      275.4680  170.4820  188.7870 O.2   118  ASN118     -0.2716
     31  ND2      276.0200  169.0640  190.4360 N.am  118  ASN118     -0.0877
     32  N        276.7970  173.2690  188.0560 N.am  119  GLU119     -0.1965
     33  CA       277.8290  173.2940  187.0370 C.3   119  GLU119      0.1733
     34  C        278.2710  174.7130  186.7350 C.2   119  GLU119      0.2616
     35  O        277.4940  175.6640  186.8210 O.2   119  GLU119     -0.2715
     36  CB       277.3500  172.6420  185.7470 C.3   119  GLU119      0.0429
     37  CG       276.1910  173.3480  185.1000 C.3   119  GLU119      0.1163
     38  CD       275.7730  172.6740  183.8190 C.2   119  GLU119      0.3649
     39  OE1      276.5960  171.9210  183.2620 O.co2 119  GLU119     -0.2457
     40  OE2      274.6270  172.8860  183.3710 O.co2 119  GLU119     -0.2457
     41  N        279.5360  174.8350  186.3910 N.am  120  ASP120     -0.1958
     42  CA       280.1020  176.1160  186.0210 C.3   120  ASP120      0.1825
     43  C        279.3840  176.6780  184.8000 C.2   120  ASP120      0.2464
     44  O        279.1190  175.9330  183.8540 O.2   120  ASP120     -0.2730
     45  CB       281.5920  175.9270  185.7470 C.3   120  ASP120      0.1450
     46  CG       282.2490  177.1540  185.1970 C.2   120  ASP120      0.3671
     47  OD1      282.1410  178.2200  185.8140 O.co2 120  ASP120     -0.2456
     48  OD2      282.9060  177.0470  184.1440 O.co2 120  ASP120     -0.2456
     49  N        278.9880  177.9510  184.8120 N.am  121  PRO121     -0.2715
     50  CA       278.6430  178.6350  183.5590 C.3   121  PRO121      0.1536
     51  C        279.9230  179.0670  182.8680 C.2   121  PRO121      0.2598
     52  O        280.9890  178.6190  183.2820 O.2   121  PRO121     -0.2715
     53  CB       277.7950  179.8190  184.0230 C.3   121  PRO121      0.0310
     54  CG       278.2780  180.0920  185.3910 C.3   121  PRO121      0.0237
     55  CD       278.6640  178.7700  185.9890 C.3   121  PRO121      0.0939
     56  N        279.8650  179.9080  181.8400 N.am  122  VAL122     -0.1964
     57  CA       281.0870  180.2940  181.1340 C.3   122  VAL122      0.1727
     58  C        281.7230  179.0200  180.5860 C.2   122  VAL122      0.2616
     59  O        281.2090  178.4410  179.6250 O.2   122  VAL122     -0.2715
     60  CB       282.0440  181.0930  182.0410 C.3   122  VAL122      0.0290
     61  CG1      283.2460  181.6050  181.2600 C.3   122  VAL122      0.0023
     62  CG2      281.3080  182.2410  182.6900 C.3   122  VAL122      0.0023
     63  N        282.8650  178.6050  181.1440 N.am  123  PHE123     -0.1974
     64  CA       283.5690  177.4200  180.6480 C.3   123  PHE123      0.1639
     65  C        282.6500  176.2120  180.5290 C.2   123  PHE123      0.2290
     66  O        282.7890  175.4090  179.6020 O.2   123  PHE123     -0.2864
     67  CB       284.7410  177.0990  181.5630 C.3   123  PHE123      0.0560
     68  CG       285.7700  178.1770  181.6130 C.ar  123  PHE123     -0.0200
     69  CD1      286.7630  178.2510  180.6550 C.ar  123  PHE123     -0.0042
     70  CD2      285.7370  179.1280  182.6100 C.ar  123  PHE123     -0.0042
     71  CE1      287.7090  179.2500  180.6980 C.ar  123  PHE123     -0.0003
     72  CE2      286.6780  180.1300  182.6610 C.ar  123  PHE123     -0.0003
     73  CZ       287.6650  180.1930  181.7030 C.ar  123  PHE123     -0.0000
     74  N        282.3260  171.6750  183.5910 N.3   126  ASN126     -0.1225
     75  CA       282.7590  171.1600  184.8800 C.3   126  ASN126      0.1785
     76  C        281.7680  171.5780  185.9570 C.2   126  ASN126      0.2598
     77  O        281.0170  172.5420  185.7920 O.2   126  ASN126     -0.2718
     78  CB       284.1770  171.6530  185.1560 C.3   126  ASN126      0.1169
     79  CG       284.3240  173.1160  184.8350 C.2   126  ASN126      0.2627
     80  OD1      283.4190  173.7150  184.2660 O.2   126  ASN126     -0.2716
     81  ND2      285.4810  173.6760  185.1080 N.am  126  ASN126     -0.0877
     82  N        281.7760  170.8400  187.0670 N.am  127  SER127     -0.1938
     83  CA       280.7460  171.0080  188.0830 C.3   127  SER127      0.2055
     84  C        281.2500  170.5130  189.4300 C.2   127  SER127      0.2642
     85  O        282.2450  169.7910  189.5140 O.2   127  SER127     -0.2714
     86  CB       279.4700  170.2590  187.7000 C.3   127  SER127      0.2130
     87  OG       279.7110  168.8690  187.6210 O.3   127  SER127     -0.2179
     88  N        280.5480  170.9200  190.4840 N.am  128  VAL128     -0.1977
     89  CA       280.7950  170.3970  191.8250 C.3   128  VAL128      0.1596
     90  C        280.0270  169.0910  191.9590 C.2   128  VAL128      0.2287
     91  O        279.0040  168.9070  191.2890 O.2   128  VAL128     -0.2864
     92  CB       280.3890  171.3990  192.9160 C.3   128  VAL128      0.0276
     93  CG1      281.2680  172.6210  192.8540 C.3   128  VAL128      0.0022
     94  CG2      278.9400  171.7750  192.7800 C.3   128  VAL128      0.0022
     95  N        283.5230  170.1170  195.3920 N.3   138  GLY138     -0.1210
     96  CA       284.5080  169.7630  194.3900 C.3   138  GLY138      0.1956
     97  C        285.6070  170.8030  194.3640 C.2   138  GLY138      0.2612
     98  O        286.7820  170.4710  194.5290 O.2   138  GLY138     -0.2717
     99  N        285.2450  172.0670  194.1580 N.am  139  ILE139     -0.1965
    100  CA       286.1850  173.1480  194.4300 C.3   139  ILE139      0.1727
    101  C        286.2110  173.4860  195.9110 C.2   139  ILE139      0.2616
    102  O        287.2810  173.6060  196.5160 O.2   139  ILE139     -0.2715
    103  CB       285.8540  174.3910  193.5870 C.3   139  ILE139      0.0290
    104  CG1      286.2490  174.1780  192.1310 C.3   139  ILE139      0.0022
    105  CG2      286.5370  175.6150  194.1530 C.3   139  ILE139      0.0023
    106  CD1      285.8530  175.3270  191.2480 C.3   139  ILE139      0.0001
    107  N        285.0320  173.6390  196.5190 N.am  140  PHE140     -0.1974
    108  CA       284.9540  174.1850  197.8690 C.3   140  PHE140      0.1639
    109  C        285.6440  173.3060  198.8960 C.2   140  PHE140      0.2290
    110  O        286.0120  173.7990  199.9670 O.2   140  PHE140     -0.2864
    111  CB       283.4980  174.4170  198.2400 C.3   140  PHE140      0.0560
    112  CG       282.8520  175.4900  197.4370 C.ar  140  PHE140     -0.0200
    113  CD1      283.5930  176.5520  196.9750 C.ar  140  PHE140     -0.0042
    114  CD2      281.5290  175.4010  197.0820 C.ar  140  PHE140     -0.0042
    115  CE1      283.0100  177.5300  196.2260 C.ar  140  PHE140     -0.0003
    116  CE2      280.9460  176.3710  196.3230 C.ar  140  PHE140     -0.0003
    117  CZ       281.6880  177.4340  195.8930 C.ar  140  PHE140     -0.0000
@<TRIPOS>BOND
     1    66    65    2
     2    59    58    2
     3    65    64    1
     4    58    57    1
     5    58    63   am
     6    64    63    1
     7    64    67    1
     8    69    71   ar
     9    69    68   ar
    10    71    73   ar
    11    57    56    1
    12    57    60    1
    13    61    60    1
    14    67    68    1
    15    68    70   ar
    16    73    72   ar
    17    56    51   am
    18    60    62    1
    19    70    72   ar
    20    51    52    2
    21    51    50    1
    22    39    38   ar
    23    40    38   ar
    24    50    53    1
    25    50    49    1
    26    74    75    1
    27    38    37    1
    28    44    43    2
    29    53    54    1
    30    48    46   ar
    31    80    79    2
    32    43    49   am
    33    43    42    1
    34    49    55    1
    35    79    81   am
    36    79    78    1
    37    75    78    1
    38    75    76    1
    39    37    36    1
    40    46    45    1
    41    46    47   ar
    42    54    55    1
    43    45    42    1
    44    36    33    1
    45    77    76    2
    46    76    82   am
    47    42    41    1
    48    41    34   am
    49    34    35    2
    50    34    33    1
    51    33    32    1
    52    82    83    1
    53    87    86    1
    54    86    83    1
    55    32    26   am
    56    83    84    1
    57    23    21    1
    58    22    21    1
    59    12    11    1
    60    30    29    2
    61     9    11   ar
    62     9     7   ar
    63    21    20    2
    64    11    10   ar
    65    26    27    2
    66    26    25    1
    67    84    85    2
    68    84    88   am
    69    24    25    1
    70     7     6   ar
    71    29    31   am
    72    29    28    1
    73    20    19    1
    74    25    28    1
    75    10     8   ar
    76    88    89    1
    77    19    18    1
    78     6     8   ar
    79     6     5    1
    80   106   104    1
    81    91    90    2
    82     5     2    1
    83    89    90    1
    84    89    92    1
    85    18    17    1
    86   104   103    1
    87     2     3    1
    88     2     1    1
    89    17    14    1
    90    94    92    1
    91    14    13    1
    92    14    15    1
    93    93    92    1
    94     4     3    2
    95    16    15    2
    96   103   105    1
    97   103   100    1
    98    99    97   am
    99    99   100    1
   100    97    96    1
   101    97    98    2
   102    96    95    1
   103   100   101    1
   104   117   115   ar
   105   117   116   ar
   106   101   102    2
   107   101   107   am
   108   115   113   ar
   109   116   114   ar
   110   107   108    1
   111   113   112   ar
   112   114   112   ar
   113   112   111    1
   114   108   111    1
   115   108   109    1
   116   109   110    2
