@<TRIPOS>MOLECULE
tmp/6igzN17.pdb
 208 203 0 0 0
SMALL
GASTEIGER

@<TRIPOS>ATOM
      1  N        231.3830  194.5380  193.8280 N.3    41  GLN41      -0.1245
      2  CA       231.7850  195.6640  193.0020 C.3    41  GLN41       0.1566
      3  C        232.1290  196.8640  193.8580 C.2    41  GLN41       0.2260
      4  O        233.1040  197.5690  193.5820 O.2    41  GLN41      -0.2867
      5  CB       230.6920  196.0370  192.0220 C.3    41  GLN41       0.0367
      6  CG       231.1560  197.0900  191.0710 C.3    41  GLN41       0.0905
      7  CD       230.1600  197.3410  190.0000 C.2    41  GLN41       0.2608
      8  OE1      229.1050  196.7280  189.9840 O.2    41  GLN41      -0.2717
      9  NE2      230.4920  198.2190  189.0720 N.am   41  GLN41      -0.0878
     10  N        235.6740  198.8020  193.5320 N.3    45  VAL45      -0.1245
     11  CA       235.7930  200.2020  193.1540 C.3    45  VAL45       0.1561
     12  C        236.5950  200.9690  194.1920 C.2    45  VAL45       0.2260
     13  O        237.5560  201.6660  193.8590 O.2    45  VAL45      -0.2867
     14  CB       234.4100  200.8210  192.9450 C.3    45  VAL45       0.0252
     15  CG1      234.5610  202.2870  192.7050 C.3    45  VAL45       0.0019
     16  CG2      233.7510  200.1680  191.7790 C.3    45  VAL45       0.0019
     17  N        240.1740  200.2770  194.0540 N.3    48  ARG48      -0.1231
     18  CA       240.8720  200.9000  192.9480 C.3    48  ARG48       0.1694
     19  C        241.0660  202.3920  193.1620 C.2    48  ARG48       0.2592
     20  O        242.1060  202.9300  192.7820 O.2    48  ARG48      -0.2718
     21  CB       240.1250  200.6300  191.6510 C.3    48  ARG48       0.0321
     22  CG       240.1140  199.1720  191.2420 C.3    48  ARG48       0.0489
     23  CD       239.4890  199.0440  189.8860 C.3    48  ARG48       0.2205
     24  NE       239.5340  197.6920  189.3500 N.pl3  48  ARG48      -0.0865
     25  CZ       238.5630  196.8040  189.4800 C.cat  48  ARG48       0.5346
     26  NH1      237.4530  197.1340  190.1020 N.pl3  48  ARG48       0.1354
     27  NH2      238.6930  195.5970  188.9650 N.pl3  48  ARG48       0.1354
     28  N        240.1010  203.0780  193.7720 N.am   49  TRP49      -0.1976
     29  CA       240.3220  204.4810  194.0970 C.3    49  TRP49       0.1640
     30  C        241.3090  204.6410  195.2340 C.2    49  TRP49       0.2290
     31  O        242.0590  205.6190  195.2660 O.2    49  TRP49      -0.2864
     32  CB       239.0230  205.1760  194.4680 C.3    49  TRP49       0.0576
     33  CG       238.1350  205.3880  193.3230 C.ar   49  TRP49       0.0006
     34  CD1      237.0400  204.6670  192.9990 C.ar   49  TRP49       0.0946
     35  CD2      238.2840  206.3730  192.3060 C.ar   49  TRP49       0.0152
     36  NE1      236.4760  205.1510  191.8550 N.ar   49  TRP49      -0.2442
     37  CE2      237.2270  206.2020  191.4070 C.ar   49  TRP49       0.0810
     38  CE3      239.2100  207.3900  192.0710 C.ar   49  TRP49       0.0012
     39  CZ2      237.0660  207.0050  190.2900 C.ar   49  TRP49       0.0191
     40  CZ3      239.0510  208.1850  190.9640 C.ar   49  TRP49       0.0001
     41  CH2      237.9880  207.9900  190.0870 C.ar   49  TRP49       0.0015
     42  N        244.9270  204.3580  193.9130 N.3    52  LEU52      -0.1245
     43  CA       245.3120  205.6060  193.2730 C.3    52  LEU52       0.1561
     44  C        245.4270  206.7390  194.2740 C.2    52  LEU52       0.2260
     45  O        246.2720  207.6200  194.1060 O.2    52  LEU52      -0.2867
     46  CB       244.3190  206.0000  192.1840 C.3    52  LEU52       0.0270
     47  CG       244.2150  205.1700  190.9090 C.3    52  LEU52       0.0019
     48  CD1      243.1070  205.7350  190.0550 C.3    52  LEU52       0.0001
     49  CD2      245.5180  205.1820  190.1480 C.3    52  LEU52       0.0001
     50  N        232.5170  212.8110  184.8460 N.3    99  MET99      -0.1245
     51  CA       232.5830  211.7020  185.7880 C.3    99  MET99       0.1570
     52  C        231.2580  210.9690  185.8650 C.2    99  MET99       0.2261
     53  O        231.2170  209.7390  185.8150 O.2    99  MET99      -0.2867
     54  CB       232.9890  212.2000  187.1660 C.3    99  MET99       0.0387
     55  CG       233.0290  211.1170  188.1860 C.3    99  MET99       0.0595
     56  SD       234.3280  209.9530  187.8270 S.3    99  MET99      -0.1393
     57  CE       234.0850  208.8060  189.1640 C.3    99  MET99       0.0692
     58  N        229.1890  210.5110  183.6930 N.3   101  TRP101     -0.1227
     59  CA       228.9950  209.6990  182.4980 C.3   101  TRP101      0.1737
     60  C        229.5320  208.2950  182.7010 C.2   101  TRP101      0.2596
     61  O        228.8570  207.3080  182.4000 O.2   101  TRP101     -0.2718
     62  CB       229.6960  210.3350  181.3080 C.3   101  TRP101      0.0564
     63  CG       229.5270  209.5490  180.0700 C.ar  101  TRP101      0.0003
     64  CD1      230.3450  208.5780  179.6070 C.ar  101  TRP101      0.0946
     65  CD2      228.5100  209.7210  179.0870 C.ar  101  TRP101      0.0152
     66  NE1      229.8770  208.0960  178.4160 N.ar  101  TRP101     -0.2442
     67  CE2      228.7510  208.7900  178.0720 C.ar  101  TRP101      0.0810
     68  CE3      227.4090  210.5660  178.9750 C.ar  101  TRP101      0.0012
     69  CZ2      227.9340  208.6780  176.9620 C.ar  101  TRP101      0.0191
     70  CZ3      226.6000  210.4500  177.8780 C.ar  101  TRP101      0.0001
     71  CH2      226.8650  209.5190  176.8830 C.ar  101  TRP101      0.0015
     72  N        230.7640  208.1910  183.1880 N.am  102  SER102     -0.1938
     73  CA       231.3800  206.8880  183.3740 C.3   102  SER102      0.2055
     74  C        230.5920  206.0550  184.3640 C.2   102  SER102      0.2642
     75  O        230.2030  204.9200  184.0730 O.2   102  SER102     -0.2714
     76  CB       232.8100  207.0690  183.8570 C.3   102  SER102      0.2130
     77  OG       233.5600  207.7790  182.8970 O.3   102  SER102     -0.2179
     78  N        230.3490  206.6100  185.5480 N.am  103  GLU103     -0.1976
     79  CA       229.6720  205.8670  186.6000 C.3   103  GLU103      0.1602
     80  C        228.2990  205.4010  186.1420 C.2   103  GLU103      0.2287
     81  O        227.9670  204.2160  186.2470 O.2   103  GLU103     -0.2864
     82  CB       229.5700  206.7370  187.8460 C.3   103  GLU103      0.0415
     83  CG       230.9140  207.1320  188.4060 C.3   103  GLU103      0.1163
     84  CD       231.7390  205.9440  188.8250 C.2   103  GLU103      0.3649
     85  OE1      231.1690  205.0260  189.4310 O.co2 103  GLU103     -0.2457
     86  OE2      232.9520  205.9120  188.5430 O.co2 103  GLU103     -0.2457
     87  N        227.4380  205.0060  183.2430 N.3   105  MET105     -0.1230
     88  CA       227.6960  203.9640  182.2620 C.3   105  MET105      0.1702
     89  C        228.1700  202.6820  182.9270 C.2   105  MET105      0.2592
     90  O        227.7280  201.5890  182.5650 O.2   105  MET105     -0.2718
     91  CB       228.7230  204.4450  181.2510 C.3   105  MET105      0.0401
     92  CG       229.0790  203.4210  180.2390 C.3   105  MET105      0.0596
     93  SD       230.2090  204.0370  178.9950 S.3   105  MET105     -0.1393
     94  CE       229.1190  204.9670  177.9520 C.3   105  MET105      0.0692
     95  N        229.0710  202.8020  183.9010 N.am  106  ARG106     -0.1980
     96  CA       229.5460  201.6330  184.6300 C.3   106  ARG106      0.1597
     97  C        228.4030  200.8980  185.2970 C.2   106  ARG106      0.2287
     98  O        228.4960  199.6950  185.5510 O.2   106  ARG106     -0.2864
     99  CB       230.5840  202.0600  185.6670 C.3   106  ARG106      0.0334
    100  CG       231.0890  200.9450  186.5480 C.3   106  ARG106      0.0492
    101  CD       232.2360  201.4010  187.4220 C.3   106  ARG106      0.2205
    102  NE       231.8710  202.4160  188.4000 N.pl3 106  ARG106     -0.0865
    103  CZ       231.3400  202.1470  189.5820 C.cat 106  ARG106      0.5346
    104  NH1      231.0970  200.9000  189.9350 N.pl3 106  ARG106      0.1354
    105  NH2      231.0500  203.1260  190.4130 N.pl3 106  ARG106      0.1354
    106  N        226.1090  198.4580  182.8830 N.3   109  GLU109     -0.1245
    107  CA       226.6980  197.1660  182.5850 C.3   109  GLU109      0.1567
    108  C        226.5760  196.2290  183.7740 C.2   109  GLU109      0.2260
    109  O        226.4680  195.0150  183.5930 O.2   109  GLU109     -0.2867
    110  CB       228.1480  197.3340  182.1650 C.3   109  GLU109      0.0388
    111  CG       228.8090  196.0810  181.6640 C.3   109  GLU109      0.1160
    112  CD       229.3140  195.2200  182.7850 C.2   109  GLU109      0.3649
    113  OE1      229.5260  195.7680  183.8860 O.co2 109  GLU109     -0.2457
    114  OE2      229.5000  194.0040  182.5740 O.co2 109  GLU109     -0.2457
    115  N        225.9140  198.1520  176.7620 N.3   116  GLN116     -0.1245
    116  CA       227.1790  198.8600  176.8950 C.3   116  GLN116      0.1566
    117  C        228.2520  198.1450  176.0950 C.2   116  GLN116      0.2260
    118  O        229.0870  197.4370  176.6630 O.2   116  GLN116     -0.2867
    119  CB       227.6140  198.9930  178.3510 C.3   116  GLN116      0.0367
    120  CG       226.6120  199.6920  179.2110 C.3   116  GLN116      0.0905
    121  CD       226.1650  200.9850  178.6070 C.2   116  GLN116      0.2608
    122  OE1      225.0290  201.1130  178.1690 O.2   116  GLN116     -0.2717
    123  NE2      227.0680  201.9350  178.5090 N.am  116  GLN116     -0.0878
    124  N        227.5180  203.2700  170.7850 N.3   121  PHE121     -0.1241
    125  CA       228.2660  204.3550  171.3970 C.3   121  PHE121      0.1605
    126  C        229.5290  204.4630  170.5590 C.2   121  PHE121      0.2264
    127  O        230.4890  203.7270  170.7890 O.2   121  PHE121     -0.2867
    128  CB       228.5770  204.0450  172.8540 C.3   121  PHE121      0.0534
    129  CG       229.5030  205.0210  173.4970 C.ar  121  PHE121     -0.0203
    130  CD1      229.0290  206.1940  174.0320 C.ar  121  PHE121     -0.0042
    131  CD2      230.8510  204.7610  173.5670 C.ar  121  PHE121     -0.0042
    132  CE1      229.8820  207.0850  174.6250 C.ar  121  PHE121     -0.0003
    133  CE2      231.7060  205.6520  174.1520 C.ar  121  PHE121     -0.0003
    134  CZ       231.2230  206.8150  174.6830 C.ar  121  PHE121     -0.0000
    135  N        233.8050  197.8180  175.3710 N.3   128  PHE128     -0.1241
    136  CA       232.9780  198.0390  176.5440 C.3   128  PHE128      0.1605
    137  C        232.1250  196.8340  176.9080 C.2   128  PHE128      0.2264
    138  O        231.4220  196.8760  177.9180 O.2   128  PHE128     -0.2867
    139  CB       232.0880  199.2600  176.3170 C.3   128  PHE128      0.0534
    140  CG       232.8560  200.5170  176.0910 C.ar  128  PHE128     -0.0203
    141  CD1      234.1580  200.6300  176.5170 C.ar  128  PHE128     -0.0042
    142  CD2      232.2840  201.5780  175.4350 C.ar  128  PHE128     -0.0042
    143  CE1      234.8690  201.7800  176.3020 C.ar  128  PHE128     -0.0003
    144  CE2      232.9960  202.7290  175.2170 C.ar  128  PHE128     -0.0003
    145  CZ       234.2870  202.8300  175.6500 C.ar  128  PHE128     -0.0000
    146  N        232.6120  194.1270  178.2880 N.3   130  GLY130     -0.1225
    147  CA       232.8310  193.5770  179.6060 C.3   130  GLY130      0.1811
    148  C        233.1760  192.1100  179.5260 C.2   130  GLY130      0.2280
    149  O        232.7090  191.4110  178.6270 O.2   130  GLY130     -0.2866
    150  N        231.9740  190.8200  187.8520 N.3   134  ASN134     -0.1225
    151  CA       231.4190  192.0350  188.4400 C.3   134  ASN134      0.1785
    152  C        232.2320  193.2840  188.1520 C.2   134  ASN134      0.2597
    153  O        231.7920  194.1530  187.3950 O.2   134  ASN134     -0.2718
    154  CB       231.2760  191.8830  189.9500 C.3   134  ASN134      0.1169
    155  CG       230.1420  190.9870  190.3240 C.2   134  ASN134      0.2627
    156  OD1      230.2960  190.0560  191.1090 O.2   134  ASN134     -0.2716
    157  ND2      228.9760  191.2650  189.7660 N.am  134  ASN134     -0.0877
    158  N        233.4040  193.3990  188.7490 N.am  135  GLY135     -0.1957
    159  CA       234.1130  194.6510  188.6520 C.3   135  GLY135      0.1869
    160  C        235.2290  194.6450  187.6380 C.2   135  GLY135      0.2309
    161  O        236.1190  195.4960  187.6940 O.2   135  GLY135     -0.2863
    162  N        235.9600  195.0930  183.8050 N.3   137  PRO137     -0.2116
    163  CA       235.5300  195.3130  182.4250 C.3   137  PRO137      0.1372
    164  C        236.3640  194.5680  181.4060 C.2   137  PRO137      0.2244
    165  O        235.8030  193.9660  180.4820 O.2   137  PRO137     -0.2868
    166  CB       235.6560  196.8290  182.2710 C.3   137  PRO137      0.0268
    167  CG       236.6970  197.2020  183.2240 C.3   137  PRO137      0.0207
    168  CD       236.5470  196.3000  184.3970 C.3   137  PRO137      0.0892
    169  N        240.3450  199.4860  175.8770 N.3   141  PHE141     -0.1227
    170  CA       240.7310  200.7040  176.5880 C.3   141  PHE141      0.1736
    171  C        241.1540  200.4070  178.0170 C.2   141  PHE141      0.2595
    172  O        242.2570  200.7670  178.4400 O.2   141  PHE141     -0.2718
    173  CB       239.5780  201.7030  176.5870 C.3   141  PHE141      0.0547
    174  CG       239.2400  202.2350  175.2380 C.ar  141  PHE141     -0.0202
    175  CD1      239.9220  203.3140  174.7190 C.ar  141  PHE141     -0.0042
    176  CD2      238.2420  201.6570  174.4840 C.ar  141  PHE141     -0.0042
    177  CE1      239.6160  203.8080  173.4740 C.ar  141  PHE141     -0.0003
    178  CE2      237.9320  202.1470  173.2360 C.ar  141  PHE141     -0.0003
    179  CZ       238.6200  203.2240  172.7310 C.ar  141  PHE141     -0.0000
    180  N        240.2860  199.7500  178.7810 N.am  142  PHE142     -0.1976
    181  CA       240.5430  199.5110  180.1930 C.3   142  PHE142      0.1639
    182  C        241.6660  198.5250  180.4220 C.2   142  PHE142      0.2290
    183  O        242.1240  198.3760  181.5560 O.2   142  PHE142     -0.2864
    184  CB       239.2760  198.9980  180.8460 C.3   142  PHE142      0.0560
    185  CG       238.1630  199.9650  180.7870 C.ar  142  PHE142     -0.0200
    186  CD1      238.4230  201.3110  180.7200 C.ar  142  PHE142     -0.0042
    187  CD2      236.8640  199.5390  180.7240 C.ar  142  PHE142     -0.0042
    188  CE1      237.4120  202.2080  180.6430 C.ar  142  PHE142     -0.0003
    189  CE2      235.8510  200.4350  180.6450 C.ar  142  PHE142     -0.0003
    190  CZ       236.1270  201.7700  180.6020 C.ar  142  PHE142     -0.0000
    191  N        244.8280  197.8920  178.1790 N.3   144  PRO144     -0.2102
    192  CA       245.6160  198.0950  176.9630 C.3   144  PRO144      0.1504
    193  C        246.6960  197.0620  176.7480 C.2   144  PRO144      0.2575
    194  O        247.0520  196.7990  175.5960 O.2   144  PRO144     -0.2718
    195  CB       246.2110  199.4880  177.1720 C.3   144  PRO144      0.0282
    196  CG       246.2820  199.6310  178.6340 C.3   144  PRO144      0.0208
    197  CD       245.0700  198.9510  179.1680 C.3   144  PRO144      0.0893
    198  N        247.2380  196.4620  177.7990 N.am  145  PHE145     -0.1977
    199  CA       248.3120  195.4970  177.6210 C.3   145  PHE145      0.1639
    200  C        247.8180  194.0970  177.3240 C.2   145  PHE145      0.2290
    201  O        248.6340  193.1780  177.2190 O.2   145  PHE145     -0.2864
    202  CB       249.2360  195.4860  178.8310 C.3   145  PHE145      0.0560
    203  CG       250.1680  196.6450  178.8630 C.ar  145  PHE145     -0.0200
    204  CD1      251.3290  196.6180  178.1190 C.ar  145  PHE145     -0.0042
    205  CD2      249.8820  197.7650  179.6070 C.ar  145  PHE145     -0.0042
    206  CE1      252.1910  197.6760  178.1280 C.ar  145  PHE145     -0.0003
    207  CE2      250.7440  198.8330  179.6210 C.ar  145  PHE145     -0.0003
    208  CZ       251.9010  198.7860  178.8800 C.ar  145  PHE145     -0.0000
@<TRIPOS>BOND
     1   126   127    2
     2   126   125    1
     3   124   125    1
     4   125   128    1
     5   179   178   ar
     6   179   177   ar
     7   128   129    1
     8   178   176   ar
     9   177   175   ar
    10   129   131   ar
    11   129   130   ar
    12   131   133   ar
    13   130   132   ar
    14   133   134   ar
    15   176   174   ar
    16   132   134   ar
    17   175   174   ar
    18   144   142   ar
    19   144   145   ar
    20   174   173    1
    21   135   136    1
    22   142   140   ar
    23   194   193    2
    24   145   143   ar
    25   169   170    1
    26   140   139    1
    27   140   141   ar
    28   117   118    2
    29   117   116    1
    30   143   141   ar
    31   139   136    1
    32   136   137    1
    33   173   170    1
    34   170   171    1
    35   193   192    1
    36   193   198   am
    37   115   116    1
    38    71    69   ar
    39    71    70   ar
    40   116   119    1
    41   137   138    2
    42    69    67   ar
    43   192   195    1
    44   192   191    1
    45   195   196    1
    46   201   200    2
    47   200   199    1
    48   199   198    1
    49   199   202    1
    50    70    68   ar
    51    94    93    1
    52   171   172    2
    53   171   180   am
    54    67    66   ar
    55    67    65   ar
    56   204   206   ar
    57   204   203   ar
    58   206   208   ar
    59   122   121    2
    60   191   197    1
    61   146   147    1
    62   119   120    1
    63    66    64   ar
    64   123   121   am
    65   121   120    1
    66   149   148    2
    67   196   197    1
    68   180   181    1
    69   202   203    1
    70   203   205   ar
    71   208   207   ar
    72    68    65   ar
    73    93    92    1
    74    65    63   ar
    75   148   147    1
    76   205   207   ar
    77    64    63   ar
    78    63    62    1
    79   181   182    1
    80   181   184    1
    81    92    91    1
    82   182   183    2
    83   165   164    2
    84   190   188   ar
    85   190   189   ar
    86   188   186   ar
    87   189   187   ar
    88   186   185   ar
    89   187   185   ar
    90   185   184    1
    91    91    88    1
    92    62    59    1
    93   164   163    1
    94   111   110    1
    95   111   112    1
    96   110   107    1
    97    88    89    1
    98    88    87    1
    99   166   163    1
   100   166   167    1
   101    61    60    2
   102   163   162    1
   103    59    60    1
   104    59    58    1
   105    90    89    2
   106   114   112   ar
   107   107   106    1
   108   107   108    1
   109    60    72   am
   110   112   113   ar
   111    77    76    1
   112    89    95   am
   113    72    73    1
   114   167   168    1
   115    73    76    1
   116    73    74    1
   117   109   108    2
   118   162   168    1
   119    95    96    1
   120    75    74    2
   121    74    78   am
   122    96    97    1
   123    96    99    1
   124    50    51    1
   125    97    98    2
   126    78    79    1
   127    99   100    1
   128    51    52    1
   129    51    54    1
   130    53    52    2
   131    80    81    2
   132    80    79    1
   133   100   101    1
   134    79    82    1
   135    54    55    1
   136   153   152    2
   137   101   102    1
   138   160   161    2
   139   160   159    1
   140    56    55    1
   141    56    57    1
   142    82    83    1
   143   150   151    1
   144   152   151    1
   145   152   158   am
   146   102   103    2
   147    83    84    1
   148   151   154    1
   149    86    84   ar
   150   159   158    1
   151    84    85   ar
   152    27    25    1
   153     9     7   am
   154    24    25    2
   155    24    23    1
   156    25    26    1
   157   103   104    1
   158   103   105    1
   159   157   155   am
   160    23    22    1
   161   154   155    1
   162     8     7    2
   163     7     6    1
   164    48    47    1
   165    41    39   ar
   166    41    40   ar
   167    49    47    1
   168    39    37   ar
   169   155   156    2
   170    47    46    1
   171    40    38   ar
   172     6     5    1
   173    22    21    1
   174    37    36   ar
   175    37    35   ar
   176    21    18    1
   177    16    14    1
   178    36    34   ar
   179     5     2    1
   180    38    35   ar
   181    46    43    1
   182    35    33   ar
   183    15    14    1
   184    20    19    2
   185    14    11    1
   186    18    19    1
   187    18    17    1
   188    34    33   ar
   189     2     1    1
   190     2     3    1
   191    11    10    1
   192    11    12    1
   193    19    28   am
   194    43    42    1
   195    43    44    1
   196    33    32    1
   197     4     3    2
   198    28    29    1
   199    13    12    2
   200    29    32    1
   201    29    30    1
   202    45    44    2
   203    30    31    2
