@<TRIPOS>MOLECULE
tmp/6igzP07.pdb
 172 168 0 0 0
SMALL
GASTEIGER

@<TRIPOS>ATOM
      1  N        211.2150  223.9070  165.4650 N.3    51  MET51      -0.1230
      2  CA       212.1760  224.0630  164.3850 C.3    51  MET51       0.1702
      3  C        212.0380  225.4260  163.7260 C.2    51  MET51       0.2592
      4  O        212.9600  226.2450  163.7740 O.2    51  MET51      -0.2718
      5  CB       212.0200  222.9370  163.3700 C.3    51  MET51       0.0401
      6  CG       212.5320  221.6160  163.8790 C.3    51  MET51       0.0596
      7  SD       212.5530  220.3340  162.6280 S.3    51  MET51      -0.1393
      8  CE       210.8330  219.9010  162.5690 C.3    51  MET51       0.0692
      9  N        210.8910  225.6870  163.1010 N.am   52  MET52      -0.1979
     10  CA       210.6640  226.9950  162.4930 C.3    52  MET52       0.1605
     11  C        210.9440  228.1130  163.4800 C.2    52  MET52       0.2287
     12  O        211.7410  229.0140  163.2070 O.2    52  MET52      -0.2864
     13  CB       209.2310  227.1040  161.9800 C.3    52  MET52       0.0413
     14  CG       208.9270  226.2710  160.7680 C.3    52  MET52       0.0598
     15  SD       209.9490  226.7700  159.3840 S.3    52  MET52      -0.1393
     16  CE       209.3630  228.4380  159.1480 C.3    52  MET52       0.0692
     17  N        212.6300  228.4370  166.3100 N.3    54  LEU54      -0.1231
     18  CA       214.0050  228.6720  166.7340 C.3    54  LEU54       0.1693
     19  C        214.7910  229.4150  165.6710 C.2    54  LEU54       0.2591
     20  O        215.6080  230.2860  165.9860 O.2    54  LEU54      -0.2718
     21  CB       214.6880  227.3550  167.0820 C.3    54  LEU54       0.0284
     22  CG       216.1250  227.4780  167.5710 C.3    54  LEU54       0.0019
     23  CD1      216.4090  226.4650  168.6450 C.3    54  LEU54       0.0001
     24  CD2      217.0330  227.2230  166.4050 C.3    54  LEU54       0.0001
     25  N        214.5570  229.0890  164.4020 N.am   55  VAL55      -0.1980
     26  CA       215.2430  229.8050  163.3390 C.3    55  VAL55       0.1595
     27  C        214.8440  231.2670  163.3410 C.2    55  VAL55       0.2287
     28  O        215.6240  232.1340  162.9350 O.2    55  VAL55      -0.2864
     29  CB       214.9520  229.1330  161.9970 C.3    55  VAL55       0.0276
     30  CG1      215.6010  229.9040  160.8820 C.3    55  VAL55       0.0022
     31  CG2      215.4760  227.7330  162.0380 C.3    55  VAL55       0.0022
     32  N        217.3180  232.2700  166.1020 N.3    58  LEU58      -0.1245
     33  CA       218.7130  232.0660  165.7590 C.3    58  LEU58       0.1561
     34  C        219.1750  233.0180  164.6670 C.2    58  LEU58       0.2260
     35  O        220.0200  233.8820  164.9120 O.2    58  LEU58      -0.2867
     36  CB       218.9220  230.6160  165.3460 C.3    58  LEU58       0.0270
     37  CG       220.3580  230.1770  165.1460 C.3    58  LEU58       0.0019
     38  CD1      221.0880  230.3610  166.4570 C.3    58  LEU58       0.0001
     39  CD2      220.3810  228.7240  164.7250 C.3    58  LEU58       0.0001
     40  N        200.2590  220.1360  151.9750 N.3   140  PHE140     -0.1227
     41  CA       201.3500  220.4830  152.8620 C.3   140  PHE140      0.1736
     42  C        202.6570  219.8300  152.4670 C.2   140  PHE140      0.2595
     43  O        203.6800  220.1120  153.0930 O.2   140  PHE140     -0.2718
     44  CB       200.9470  220.1170  154.2840 C.3   140  PHE140      0.0547
     45  CG       199.6520  220.7470  154.7110 C.ar  140  PHE140     -0.0202
     46  CD1      199.6040  222.0570  155.1210 C.ar  140  PHE140     -0.0042
     47  CD2      198.4790  220.0300  154.6750 C.ar  140  PHE140     -0.0042
     48  CE1      198.4180  222.6250  155.4920 C.ar  140  PHE140     -0.0003
     49  CE2      197.2980  220.5910  155.0620 C.ar  140  PHE140     -0.0003
     50  CZ       197.2660  221.8870  155.4630 C.ar  140  PHE140     -0.0000
     51  N        202.6550  218.9750  151.4450 N.am  141  ASP141     -0.1960
     52  CA       203.8710  218.3740  150.9030 C.3   141  ASP141      0.1825
     53  C        203.9350  218.6810  149.4110 C.2   141  ASP141      0.2464
     54  O        203.7500  217.7880  148.5770 O.2   141  ASP141     -0.2730
     55  CB       203.8870  216.8690  151.1500 C.3   141  ASP141      0.1450
     56  CG       205.2180  216.2490  150.8430 C.2   141  ASP141      0.3671
     57  OD1      206.1660  217.0020  150.5490 O.co2 141  ASP141     -0.2456
     58  OD2      205.3200  215.0070  150.9010 O.co2 141  ASP141     -0.2456
     59  N        204.1780  219.9400  149.0400 N.am  142  PRO142     -0.2715
     60  CA       204.0680  220.3100  147.6210 C.3   142  PRO142      0.1536
     61  C        205.0440  219.5860  146.7190 C.2   142  PRO142      0.2598
     62  O        204.6340  219.0070  145.7020 O.2   142  PRO142     -0.2715
     63  CB       204.3370  221.8180  147.6410 C.3   142  PRO142      0.0310
     64  CG       204.0010  222.2410  149.0090 C.3   142  PRO142      0.0237
     65  CD       204.4370  221.1150  149.8850 C.3   142  PRO142      0.0939
     66  N        206.3250  219.5660  147.0710 N.am  143  PHE143     -0.1974
     67  CA       207.3220  218.9800  146.1890 C.3   143  PHE143      0.1639
     68  C        207.1480  217.4860  146.0210 C.2   143  PHE143      0.2290
     69  O        207.8640  216.8840  145.2160 O.2   143  PHE143     -0.2864
     70  CB       208.7200  219.2950  146.6960 C.3   143  PHE143      0.0560
     71  CG       209.0860  220.7370  146.5710 C.ar  143  PHE143     -0.0200
     72  CD1      208.4230  221.5490  145.6690 C.ar  143  PHE143     -0.0042
     73  CD2      210.0840  221.2880  147.3500 C.ar  143  PHE143     -0.0042
     74  CE1      208.7520  222.8850  145.5400 C.ar  143  PHE143     -0.0003
     75  CE2      210.4180  222.6250  147.2280 C.ar  143  PHE143     -0.0003
     76  CZ       209.7490  223.4240  146.3210 C.ar  143  PHE143     -0.0000
     77  N        207.4220  214.8110  148.3350 N.3   145  PHE145     -0.1241
     78  CA       208.2710  213.8650  149.0410 C.3   145  PHE145      0.1605
     79  C        207.3970  212.7000  149.4810 C.2   145  PHE145      0.2264
     80  O        206.2650  212.5370  149.0220 O.2   145  PHE145     -0.2867
     81  CB       208.9930  214.5290  150.2040 C.3   145  PHE145      0.0534
     82  CG       210.0510  215.4950  149.7820 C.ar  145  PHE145     -0.0203
     83  CD1      210.5560  215.4620  148.5060 C.ar  145  PHE145     -0.0042
     84  CD2      210.5540  216.4210  150.6690 C.ar  145  PHE145     -0.0042
     85  CE1      211.5350  216.3440  148.1200 C.ar  145  PHE145     -0.0003
     86  CE2      211.5330  217.3010  150.2880 C.ar  145  PHE145     -0.0003
     87  CZ       212.0240  217.2650  149.0150 C.ar  145  PHE145     -0.0000
     88  N        215.3980  215.9250  164.3860 N.3   160  ASN160     -0.1240
     89  CA       215.6850  217.3520  164.3680 C.3   160  ASN160      0.1653
     90  C        214.6690  218.1200  165.1900 C.2   160  ASN160      0.2266
     91  O        215.0100  219.1150  165.8320 O.2   160  ASN160     -0.2867
     92  CB       215.7000  217.8780  162.9390 C.3   160  ASN160      0.1155
     93  CG       216.9270  217.4640  162.1860 C.2   160  ASN160      0.2627
     94  OD1      217.9710  218.0990  162.2810 O.2   160  ASN160     -0.2716
     95  ND2      216.8180  216.3750  161.4460 N.am  160  ASN160     -0.0877
     96  N        215.4900  217.9700  168.8250 N.3   163  LEU163     -0.1231
     97  CA       216.6180  218.7820  169.2380 C.3   163  LEU163      0.1693
     98  C        216.2560  220.2550  169.2570 C.2   163  LEU163      0.2591
     99  O        216.6770  220.9850  170.1560 O.2   163  LEU163     -0.2718
    100  CB       217.8020  218.5280  168.3140 C.3   163  LEU163      0.0284
    101  CG       219.1590  218.9590  168.8490 C.3   163  LEU163      0.0019
    102  CD1      220.2390  218.1000  168.2680 C.3   163  LEU163      0.0001
    103  CD2      219.4220  220.3640  168.5160 C.3   163  LEU163      0.0001
    104  N        215.4800  220.7130  168.2760 N.am  164  ALA164     -0.1980
    105  CA       215.1200  222.1250  168.2350 C.3   164  ALA164      0.1597
    106  C        214.2000  222.4920  169.3830 C.2   164  ALA164      0.2287
    107  O        214.2920  223.5960  169.9240 O.2   164  ALA164     -0.2864
    108  CB       214.4660  222.4660  166.9050 C.3   164  ALA164      0.0319
    109  N        216.6620  222.5360  172.2350 N.3   167  ALA167     -0.1245
    110  CA       217.5380  223.6870  172.0810 C.3   167  ALA167      0.1562
    111  C        216.7980  224.9920  172.3140 C.2   167  ALA167      0.2260
    112  O        217.3840  225.9480  172.8270 O.2   167  ALA167     -0.2867
    113  CB       218.1740  223.6810  170.6980 C.3   167  ALA167      0.0290
    114  N        216.8540  226.1660  175.8310 N.3   170  GLY170     -0.1210
    115  CA       218.0700  226.8730  176.1820 C.3   170  GLY170      0.1956
    116  C        217.9540  228.3660  175.9560 C.2   170  GLY170      0.2611
    117  O        218.2500  229.1630  176.8480 O.2   170  GLY170     -0.2717
    118  N        217.5200  228.7640  174.7550 N.am  171  PHE171     -0.1976
    119  CA       217.3140  230.1800  174.4710 C.3   171  PHE171      0.1639
    120  C        216.5080  230.8580  175.5620 C.2   171  PHE171      0.2290
    121  O        216.8350  231.9710  175.9840 O.2   171  PHE171     -0.2864
    122  CB       216.6110  230.3630  173.1340 C.3   171  PHE171      0.0560
    123  CG       217.4860  230.1580  171.9480 C.ar  171  PHE171     -0.0200
    124  CD1      218.2200  231.1970  171.4340 C.ar  171  PHE171     -0.0042
    125  CD2      217.5600  228.9400  171.3310 C.ar  171  PHE171     -0.0042
    126  CE1      219.0010  231.0180  170.3330 C.ar  171  PHE171     -0.0003
    127  CE2      218.3480  228.7650  170.2300 C.ar  171  PHE171     -0.0003
    128  CZ       219.0730  229.8040  169.7390 C.ar  171  PHE171     -0.0000
    129  N        218.7880  230.5940  179.0030 N.3   174  GLN174     -0.1245
    130  CA       219.9820  231.4200  178.8610 C.3   174  GLN174      0.1566
    131  C        219.6340  232.8960  178.9800 C.2   174  GLN174      0.2260
    132  O        220.1120  233.5940  179.8800 O.2   174  GLN174     -0.2867
    133  CB       220.6730  231.1540  177.5300 C.3   174  GLN174      0.0367
    134  CG       221.2400  229.7790  177.3640 C.3   174  GLN174      0.0905
    135  CD       221.9820  229.6550  176.0670 C.2   174  GLN174      0.2608
    136  OE1      221.7860  230.4530  175.1590 O.2   174  GLN174     -0.2717
    137  NE2      222.8390  228.6580  175.9650 N.am  174  GLN174     -0.0878
    138  N        221.8960  234.8670  171.9290 N.3   182  PRO182     -0.2102
    139  CA       222.5040  233.5330  171.8490 C.3   182  PRO182      0.1504
    140  C        223.9470  233.5550  171.3970 C.2   182  PRO182      0.2575
    141  O        224.7980  232.9230  172.0330 O.2   182  PRO182     -0.2718
    142  CB       221.6120  232.8180  170.8420 C.3   182  PRO182      0.0282
    143  CG       221.0540  233.9030  170.0130 C.3   182  PRO182      0.0208
    144  CD       220.8210  235.0390  170.9450 C.3   182  PRO182      0.0893
    145  N        224.2560  234.2820  170.3240 N.am  183  ILE183     -0.1980
    146  CA       225.6320  234.3240  169.8520 C.3   183  ILE183      0.1595
    147  C        226.5120  235.0600  170.8450 C.2   183  ILE183      0.2287
    148  O        227.7090  234.7760  170.9580 O.2   183  ILE183     -0.2864
    149  CB       225.6900  234.9430  168.4500 C.3   183  ILE183      0.0276
    150  CG1      224.8300  234.1170  167.5100 C.3   183  ILE183      0.0022
    151  CG2      227.1050  234.9910  167.9410 C.3   183  ILE183      0.0022
    152  CD1      225.2120  232.6670  167.4850 C.3   183  ILE183      0.0001
    153  N        225.8670  234.6850  174.1270 N.3   185  CYS185     -0.1221
    154  CA       226.0630  233.5300  174.9970 C.3   185  CYS185      0.1808
    155  C        226.9700  232.5000  174.3400 C.2   185  CYS185      0.2601
    156  O        227.8300  231.9090  175.0000 O.2   185  CYS185     -0.2717
    157  CB       224.7190  232.9010  175.3620 C.3   185  CYS185      0.0970
    158  SG       223.6360  233.9110  176.3920 S.3   185  CYS185     -0.0800
    159  N        226.7890  232.2680  173.0420 N.am  186  TRP186     -0.1976
    160  CA       227.6730  231.4030  172.2690 C.3   186  TRP186      0.1640
    161  C        229.1260  231.8250  172.3650 C.2   186  TRP186      0.2290
    162  O        229.9330  231.1540  173.0110 O.2   186  TRP186     -0.2864
    163  CB       227.2610  231.4080  170.8000 C.3   186  TRP186      0.0576
    164  CG       228.2850  230.8540  169.8660 C.ar  186  TRP186      0.0006
    165  CD1      229.1330  231.5640  169.0660 C.ar  186  TRP186      0.0946
    166  CD2      228.5540  229.4840  169.6100 C.ar  186  TRP186      0.0152
    167  NE1      229.9230  230.7180  168.3390 N.ar  186  TRP186     -0.2442
    168  CE2      229.5840  229.4310  168.6540 C.ar  186  TRP186      0.0810
    169  CE3      228.0270  228.2940  170.0980 C.ar  186  TRP186      0.0012
    170  CZ2      230.0950  228.2380  168.1830 C.ar  186  TRP186      0.0191
    171  CZ3      228.5350  227.1150  169.6280 C.ar  186  TRP186      0.0001
    172  CH2      229.5550  227.0920  168.6770 C.ar  186  TRP186      0.0015
@<TRIPOS>BOND
     1    69    68    2
     2    74    72   ar
     3    74    76   ar
     4    72    71   ar
     5    62    61    2
     6    68    67    1
     7    67    70    1
     8    67    66    1
     9    76    75   ar
    10    71    70    1
    11    71    73   ar
    12    61    66   am
    13    61    60    1
    14    75    73   ar
    15    60    63    1
    16    60    59    1
    17    63    64    1
    18    85    83   ar
    19    85    87   ar
    20    77    78    1
    21    83    82   ar
    22    54    53    2
    23    64    65    1
    24    87    86   ar
    25    80    79    2
    26    59    53   am
    27    59    65    1
    28    78    79    1
    29    78    81    1
    30    53    52    1
    31    82    81    1
    32    82    84   ar
    33    86    84   ar
    34    57    56   ar
    35    56    58   ar
    36    56    55    1
    37    52    55    1
    38    52    51    1
    39    51    42   am
    40    40    41    1
    41    42    41    1
    42    42    43    2
    43    41    44    1
    44    44    45    1
    45    47    45   ar
    46    47    49   ar
    47    45    46   ar
    48    49    50   ar
    49    46    48   ar
    50    50    48   ar
    51    16    15    1
    52    15    14    1
    53    14    13    1
    54    30    29    1
    55    95    93   am
    56    13    10    1
    57    29    31    1
    58    29    26    1
    59    93    94    2
    60    93    92    1
    61    10     9    1
    62    10    11    1
    63     8     7    1
    64     7     6    1
    65    28    27    2
    66    92    89    1
    67     9     3   am
    68    12    11    2
    69    26    27    1
    70    26    25    1
    71     5     6    1
    72     5     2    1
    73     3     4    2
    74     3     2    1
    75    89    88    1
    76    89    90    1
    77     2     1    1
    78    25    19   am
    79    34    35    2
    80    34    33    1
    81    39    37    1
    82    37    36    1
    83    37    38    1
    84    90    91    2
    85    36    33    1
    86    19    20    2
    87    19    18    1
    88    33    32    1
    89    17    18    1
    90    24    22    1
    91    18    21    1
    92   108   105    1
    93    21    22    1
    94   152   150    1
    95   150   149    1
    96    22    23    1
    97   151   149    1
    98   170   168   ar
    99   170   172   ar
   100   105   104    1
   101   105   106    1
   102   102   101    1
   103   104    98   am
   104   100   101    1
   105   100    97    1
   106   167   168   ar
   107   167   165   ar
   108   149   146    1
   109   103   101    1
   110   168   166   ar
   111   172   171   ar
   112    96    97    1
   113   165   164   ar
   114    97    98    1
   115    98    99    2
   116   106   107    2
   117   166   164   ar
   118   166   169   ar
   119   171   169   ar
   120   128   127   ar
   121   128   126   ar
   122   146   145    1
   123   146   147    1
   124   164   163    1
   125   143   142    1
   126   143   144    1
   127   127   125   ar
   128   145   140   am
   129   126   124   ar
   130   113   110    1
   131   163   160    1
   132   142   139    1
   133   147   148    2
   134   144   138    1
   135   125   123   ar
   136   140   139    1
   137   140   141    2
   138   124   123   ar
   139   139   138    1
   140   123   122    1
   141   110   109    1
   142   110   111    1
   143   160   161    1
   144   160   159    1
   145   111   112    2
   146   161   162    2
   147   159   155   am
   148   122   119    1
   149   153   154    1
   150   155   154    1
   151   155   156    2
   152   119   118    1
   153   119   120    1
   154   118   116   am
   155   154   157    1
   156   136   135    2
   157   157   158    1
   158   120   121    2
   159   114   115    1
   160   116   115    1
   161   116   117    2
   162   137   135   am
   163   135   134    1
   164   134   133    1
   165   133   130    1
   166   130   131    1
   167   130   129    1
   168   131   132    2
