@<TRIPOS>MOLECULE
tmp/6igzP01.pdb
 157 149 0 0 0
SMALL
GASTEIGER

@<TRIPOS>ATOM
      1  N        207.4950  220.7650  165.0680 N.3    48  ARG48      -0.1245
      2  CA       207.4860  221.6050  163.8810 C.3    48  ARG48       0.1563
      3  C        207.5560  223.0840  164.2370 C.2    48  ARG48       0.2260
      4  O        208.3350  223.8280  163.6400 O.2    48  ARG48      -0.2867
      5  CB       206.2590  221.3050  163.0340 C.3    48  ARG48       0.0307
      6  CG       206.2730  219.9250  162.4310 C.3    48  ARG48       0.0489
      7  CD       205.1230  219.7780  161.4870 C.3    48  ARG48       0.2205
      8  NE       205.1140  218.5000  160.7890 N.pl3  48  ARG48      -0.0865
      9  CZ       204.4560  217.4350  161.2090 C.cat  48  ARG48       0.5346
     10  NH1      203.7310  217.5050  162.3010 N.pl3  48  ARG48       0.1354
     11  NH2      204.4990  216.3130  160.5200 N.pl3  48  ARG48       0.1354
     12  N        211.2150  223.9070  165.4650 N.3    51  MET51      -0.1230
     13  CA       212.1760  224.0630  164.3850 C.3    51  MET51       0.1702
     14  C        212.0380  225.4260  163.7260 C.2    51  MET51       0.2592
     15  O        212.9600  226.2450  163.7740 O.2    51  MET51      -0.2718
     16  CB       212.0200  222.9370  163.3700 C.3    51  MET51       0.0401
     17  CG       212.5320  221.6160  163.8790 C.3    51  MET51       0.0596
     18  SD       212.5530  220.3340  162.6280 S.3    51  MET51      -0.1393
     19  CE       210.8330  219.9010  162.5690 C.3    51  MET51       0.0692
     20  N        210.8910  225.6870  163.1010 N.am   52  MET52      -0.1979
     21  CA       210.6640  226.9950  162.4930 C.3    52  MET52       0.1605
     22  C        210.9440  228.1130  163.4800 C.2    52  MET52       0.2287
     23  O        211.7410  229.0140  163.2070 O.2    52  MET52      -0.2864
     24  CB       209.2310  227.1040  161.9800 C.3    52  MET52       0.0413
     25  CG       208.9270  226.2710  160.7680 C.3    52  MET52       0.0598
     26  SD       209.9490  226.7700  159.3840 S.3    52  MET52      -0.1393
     27  CE       209.3630  228.4380  159.1480 C.3    52  MET52       0.0692
     28  N        214.5570  229.0890  164.4020 N.3    55  VAL55      -0.1245
     29  CA       215.2430  229.8050  163.3390 C.3    55  VAL55       0.1561
     30  C        214.8440  231.2670  163.3410 C.2    55  VAL55       0.2260
     31  O        215.6240  232.1340  162.9350 O.2    55  VAL55      -0.2867
     32  CB       214.9520  229.1330  161.9970 C.3    55  VAL55       0.0252
     33  CG1      215.6010  229.9040  160.8820 C.3    55  VAL55       0.0019
     34  CG2      215.4760  227.7330  162.0380 C.3    55  VAL55       0.0019
     35  N        218.6110  232.8730  163.4640 N.3    59  VAL59      -0.1245
     36  CA       219.1940  233.5200  162.2830 C.3    59  VAL59       0.1561
     37  C        219.1680  235.0410  162.3530 C.2    59  VAL59       0.2260
     38  O        220.2210  235.6610  162.1400 O.2    59  VAL59      -0.2867
     39  CB       218.5270  232.9850  161.0030 C.3    59  VAL59       0.0252
     40  CG1      218.9690  233.8100  159.8200 C.3    59  VAL59       0.0019
     41  CG2      218.8940  231.5330  160.7920 C.3    59  VAL59       0.0019
     42  N        196.6750  211.2560  154.7180 N.3   132  ILE132     -0.1245
     43  CA       196.9110  210.0630  155.5230 C.3   132  ILE132      0.1561
     44  C        196.8540  210.4790  156.9910 C.2   132  ILE132      0.2260
     45  O        196.9770  211.6740  157.2850 O.2   132  ILE132     -0.2867
     46  CB       198.2500  209.4170  155.1450 C.3   132  ILE132      0.0252
     47  CG1      199.4180  210.3230  155.5400 C.3   132  ILE132      0.0019
     48  CG2      198.2890  209.1810  153.6490 C.3   132  ILE132      0.0019
     49  CD1      200.1460  209.8850  156.8040 C.3   132  ILE132      0.0001
     50  N        200.0650  212.6570  159.4760 N.3   135  TYR135     -0.1228
     51  CA       200.7630  213.6030  158.6240 C.3   135  TYR135      0.1721
     52  C        199.7640  214.0980  157.5920 C.2   135  TYR135      0.2437
     53  O        199.0100  213.2980  157.0280 O.2   135  TYR135     -0.2733
     54  CB       201.9400  212.9510  157.9010 C.3   135  TYR135      0.0547
     55  CG       203.0540  212.5220  158.7930 C.ar  135  TYR135     -0.0200
     56  CD1      203.6110  213.3940  159.6870 C.ar  135  TYR135     -0.0009
     57  CD2      203.5160  211.2260  158.7750 C.ar  135  TYR135     -0.0009
     58  CE1      204.6350  213.0060  160.5050 C.ar  135  TYR135      0.0417
     59  CE2      204.5230  210.8270  159.6010 C.ar  135  TYR135      0.0417
     60  CZ       205.0830  211.7200  160.4650 C.ar  135  TYR135      0.1957
     61  OH       206.0990  211.3340  161.2990 O.3   135  TYR135     -0.2866
     62  N        199.7530  215.3910  157.2970 N.am  136  PRO136     -0.2718
     63  CA       198.7670  215.8840  156.3350 C.3   136  PRO136      0.1535
     64  C        199.0250  215.4400  154.9100 C.2   136  PRO136      0.2599
     65  O        198.0830  215.0360  154.2170 O.2   136  PRO136     -0.2715
     66  CB       198.8720  217.3990  156.4930 C.3   136  PRO136      0.0310
     67  CG       200.2370  217.6280  156.9620 C.3   136  PRO136      0.0237
     68  CD       200.5980  216.4670  157.8270 C.3   136  PRO136      0.0939
     69  N        200.2710  215.4750  154.4540 N.am  137  GLY137     -0.1955
     70  CA       200.5040  215.2900  153.0340 C.3   137  GLY137      0.1869
     71  C        199.7620  216.3430  152.2400 C.2   137  GLY137      0.2309
     72  O        199.6680  217.5060  152.6420 O.2   137  GLY137     -0.2863
     73  N        200.2590  220.1360  151.9750 N.3   140  PHE140     -0.1227
     74  CA       201.3500  220.4830  152.8620 C.3   140  PHE140      0.1736
     75  C        202.6570  219.8300  152.4670 C.2   140  PHE140      0.2595
     76  O        203.6800  220.1120  153.0930 O.2   140  PHE140     -0.2718
     77  CB       200.9470  220.1170  154.2840 C.3   140  PHE140      0.0547
     78  CG       199.6520  220.7470  154.7110 C.ar  140  PHE140     -0.0202
     79  CD1      199.6040  222.0570  155.1210 C.ar  140  PHE140     -0.0042
     80  CD2      198.4790  220.0300  154.6750 C.ar  140  PHE140     -0.0042
     81  CE1      198.4180  222.6250  155.4920 C.ar  140  PHE140     -0.0003
     82  CE2      197.2980  220.5910  155.0620 C.ar  140  PHE140     -0.0003
     83  CZ       197.2660  221.8870  155.4630 C.ar  140  PHE140     -0.0000
     84  N        202.6550  218.9750  151.4450 N.am  141  ASP141     -0.1974
     85  CA       203.8710  218.3740  150.9030 C.3   141  ASP141      0.1709
     86  C        203.9350  218.6810  149.4110 C.2   141  ASP141      0.2293
     87  O        203.7500  217.7880  148.5770 O.2   141  ASP141     -0.2864
     88  CB       203.8870  216.8690  151.1500 C.3   141  ASP141      0.1436
     89  CG       205.2180  216.2490  150.8430 C.2   141  ASP141      0.3671
     90  OD1      206.1660  217.0020  150.5490 O.co2 141  ASP141     -0.2456
     91  OD2      205.3200  215.0070  150.9010 O.co2 141  ASP141     -0.2456
     92  N        207.4220  214.8110  148.3350 N.3   145  PHE145     -0.1227
     93  CA       208.2710  213.8650  149.0410 C.3   145  PHE145      0.1736
     94  C        207.3970  212.7000  149.4810 C.2   145  PHE145      0.2595
     95  O        206.2650  212.5370  149.0220 O.2   145  PHE145     -0.2718
     96  CB       208.9930  214.5290  150.2040 C.3   145  PHE145      0.0547
     97  CG       210.0510  215.4950  149.7820 C.ar  145  PHE145     -0.0202
     98  CD1      210.5560  215.4620  148.5060 C.ar  145  PHE145     -0.0042
     99  CD2      210.5540  216.4210  150.6690 C.ar  145  PHE145     -0.0042
    100  CE1      211.5350  216.3440  148.1200 C.ar  145  PHE145     -0.0003
    101  CE2      211.5330  217.3010  150.2880 C.ar  145  PHE145     -0.0003
    102  CZ       212.0240  217.2650  149.0150 C.ar  145  PHE145     -0.0000
    103  N        207.9340  211.8510  150.3510 N.am  146  ALA146     -0.1980
    104  CA       207.4380  210.4870  150.5160 C.3   146  ALA146      0.1597
    105  C        207.6330  209.7180  149.2140 C.2   146  ALA146      0.2287
    106  O        206.7300  209.0560  148.7010 O.2   146  ALA146     -0.2864
    107  CB       205.9770  210.4470  150.9760 C.3   146  ALA146      0.0319
    108  N        210.5710  207.6820  153.1390 N.3   150  VAL150     -0.1245
    109  CA       209.6800  208.1300  154.2120 C.3   150  VAL150      0.1561
    110  C        210.2490  207.7730  155.5740 C.2   150  VAL150      0.2260
    111  O        210.5630  208.6500  156.3860 O.2   150  VAL150     -0.2867
    112  CB       208.2790  207.5210  154.0400 C.3   150  VAL150      0.0252
    113  CG1      207.3440  208.0310  155.1080 C.3   150  VAL150      0.0019
    114  CG2      207.7420  207.8200  152.6820 C.3   150  VAL150      0.0019
    115  N        213.0360  209.7750  156.2590 N.3   153  LEU153     -0.1231
    116  CA       212.5820  211.1530  156.4100 C.3   153  LEU153      0.1693
    117  C        211.8300  211.3480  157.7150 C.2   153  LEU153      0.2591
    118  O        212.0120  212.3630  158.3940 O.2   153  LEU153     -0.2718
    119  CB       211.6980  211.5720  155.2390 C.3   153  LEU153      0.0284
    120  CG       212.3070  211.8200  153.8680 C.3   153  LEU153      0.0019
    121  CD1      211.2020  212.0700  152.8840 C.3   153  LEU153      0.0001
    122  CD2      213.2060  213.0130  153.9320 C.3   153  LEU153      0.0001
    123  N        210.9780  210.3900  158.0850 N.am  154  LYS154     -0.1980
    124  CA       210.2820  210.5010  159.3600 C.3   154  LYS154      0.1596
    125  C        211.2650  210.5800  160.5130 C.2   154  LYS154      0.2287
    126  O        211.1160  211.4150  161.4100 O.2   154  LYS154     -0.2864
    127  CB       209.3390  209.3250  159.5770 C.3   154  LYS154      0.0298
    128  CG       208.1080  209.3150  158.7200 C.3   154  LYS154      0.0038
    129  CD       207.2370  208.1500  159.1360 C.3   154  LYS154      0.0206
    130  CE       205.9350  208.1120  158.3770 C.3   154  LYS154      0.1093
    131  NZ       205.0740  206.9960  158.8440 N.3   154  LYS154     -0.1314
    132  N        214.1620  211.7250  160.4080 N.3   156  LYS156     -0.1231
    133  CA       214.9370  212.9540  160.3210 C.3   156  LYS156      0.1693
    134  C        214.1280  214.1660  160.7540 C.2   156  LYS156      0.2591
    135  O        214.7040  215.1740  161.1740 O.2   156  LYS156     -0.2718
    136  CB       215.4460  213.1170  158.8940 C.3   156  LYS156      0.0285
    137  CG       216.3120  211.9490  158.4570 C.3   156  LYS156      0.0035
    138  CD       216.6750  212.0080  156.9920 C.3   156  LYS156      0.0206
    139  CE       217.7820  212.9730  156.7310 C.3   156  LYS156      0.1093
    140  NZ       219.0290  212.4210  157.2990 N.3   156  LYS156     -0.1314
    141  N        212.8020  214.0940  160.6470 N.am  157  GLU157     -0.1979
    142  CA       211.9530  215.1600  161.1610 C.3   157  GLU157      0.1602
    143  C        211.9390  215.1590  162.6770 C.2   157  GLU157      0.2287
    144  O        212.2350  216.1730  163.3150 O.2   157  GLU157     -0.2864
    145  CB       210.5300  214.9920  160.6460 C.3   157  GLU157      0.0415
    146  CG       209.6050  216.0800  161.1130 C.3   157  GLU157      0.1163
    147  CD       208.1800  215.8470  160.6780 C.2   157  GLU157      0.3649
    148  OE1      207.8980  214.7730  160.1130 O.co2 157  GLU157     -0.2457
    149  OE2      207.3400  216.7400  160.8940 O.co2 157  GLU157     -0.2457
    150  N        215.3980  215.9250  164.3860 N.3   160  ASN160     -0.1240
    151  CA       215.6850  217.3520  164.3680 C.3   160  ASN160      0.1653
    152  C        214.6690  218.1200  165.1900 C.2   160  ASN160      0.2266
    153  O        215.0100  219.1150  165.8320 O.2   160  ASN160     -0.2867
    154  CB       215.7000  217.8780  162.9390 C.3   160  ASN160      0.1155
    155  CG       216.9270  217.4640  162.1860 C.2   160  ASN160      0.2627
    156  OD1      217.9710  218.0990  162.2810 O.2   160  ASN160     -0.2716
    157  ND2      216.8180  216.3750  161.4460 N.am  160  ASN160     -0.0877
@<TRIPOS>BOND
     1   100    98   ar
     2   100   102   ar
     3    92    93    1
     4    98    97   ar
     5    87    86    2
     6   106   105    2
     7   102   101   ar
     8    95    94    2
     9    93    94    1
    10    93    96    1
    11   105   104    1
    12    86    85    1
    13    94   103   am
    14    97    96    1
    15    97    99   ar
    16   101    99   ar
    17   103   104    1
    18   104   107    1
    19    90    89   ar
    20    89    91   ar
    21    89    88    1
    22    85    88    1
    23    85    84    1
    24    84    75   am
    25    73    74    1
    26    71    72    2
    27    71    70    1
    28    75    74    1
    29    75    76    2
    30   114   112    1
    31    74    77    1
    32   121   120    1
    33    70    69    1
    34   108   109    1
    35    48    46    1
    36   120   122    1
    37   120   119    1
    38   112   109    1
    39   112   113    1
    40   109   110    1
    41    65    64    2
    42    77    78    1
    43    69    64   am
    44    80    78   ar
    45    80    82   ar
    46    78    79   ar
    47    42    43    1
    48    64    63    1
    49    82    83   ar
    50    79    81   ar
    51    46    43    1
    52    46    47    1
    53   119   116    1
    54    83    81   ar
    55    43    44    1
    56    47    49    1
    57   110   111    2
    58   115   116    1
    59    63    66    1
    60    63    62    1
    61   116   117    1
    62    66    67    1
    63   139   138    1
    64   139   140    1
    65    67    68    1
    66    44    45    2
    67   138   137    1
    68    53    52    2
    69    62    52   am
    70    62    68    1
    71    52    51    1
    72   117   123   am
    73   117   118    2
    74    54    51    1
    75    54    55    1
    76   123   124    1
    77   130   131    1
    78   130   129    1
    79   137   136    1
    80    51    50    1
    81   128   129    1
    82   128   127    1
    83    57    55   ar
    84    57    59   ar
    85    55    56   ar
    86   136   133    1
    87    27    26    1
    88   124   127    1
    89   124   125    1
    90    26    25    1
    91    59    60   ar
    92    56    58   ar
    93    40    39    1
    94   148   147   ar
    95   133   132    1
    96   133   134    1
    97    60    58   ar
    98    60    61    1
    99   125   126    2
   100    11     9    1
   101   145   146    1
   102   145   142    1
   103   141   134   am
   104   141   142    1
   105   147   149   ar
   106   147   146    1
   107   134   135    2
   108    25    24    1
   109     8     9    2
   110     8     7    1
   111    41    39    1
   112    33    32    1
   113    39    36    1
   114   142   143    1
   115     9    10    1
   116   157   155   am
   117     7     6    1
   118    24    21    1
   119    32    34    1
   120    32    29    1
   121    38    37    2
   122   155   156    2
   123   155   154    1
   124    36    37    1
   125    36    35    1
   126     6     5    1
   127    21    20    1
   128    21    22    1
   129    19    18    1
   130    18    17    1
   131   143   144    2
   132    31    30    2
   133   154   151    1
   134     5     2    1
   135    20    14   am
   136    23    22    2
   137    29    30    1
   138    29    28    1
   139    16    17    1
   140    16    13    1
   141     4     3    2
   142    14    15    2
   143    14    13    1
   144     2     3    1
   145     2     1    1
   146   151   150    1
   147   151   152    1
   148    13    12    1
   149   152   153    2
