@<TRIPOS>MOLECULE
tmp/6igzN08.pdb
 87 85 0 0 0
SMALL
GASTEIGER

@<TRIPOS>ATOM
      1  N        231.1320  216.4690  187.4930 N.3    96  VAL96      -0.1231
      2  CA       229.8090  215.8500  187.4840 C.3    96  VAL96       0.1692
      3  C        229.3720  215.4960  186.0770 C.2    96  VAL96       0.2591
      4  O        228.6230  214.5380  185.8650 O.2    96  VAL96      -0.2718
      5  CB       228.8060  216.8020  188.1620 C.3    96  VAL96       0.0266
      6  CG1      227.4020  216.2390  188.1220 C.3    96  VAL96       0.0020
      7  CG2      229.2470  217.0910  189.5800 C.3    96  VAL96       0.0020
      8  N        229.8380  216.2460  185.0920 N.am   97  LEU97      -0.1980
      9  CA       229.4600  215.9610  183.7190 C.3    97  LEU97       0.1596
     10  C        230.2310  214.7610  183.1870 C.2    97  LEU97       0.2287
     11  O        229.6380  213.7450  182.8190 O.2    97  LEU97      -0.2864
     12  CB       229.6930  217.2010  182.8590 C.3    97  LEU97       0.0297
     13  CG       229.2510  217.1140  181.4130 C.3    97  LEU97       0.0022
     14  CD1      227.7590  216.8800  181.3860 C.3    97  LEU97       0.0001
     15  CD2      229.5930  218.4080  180.7220 C.3    97  LEU97       0.0001
     16  N        230.1610  211.7050  185.9850 N.3   100  GLY100     -0.1210
     17  CA       228.8640  211.0620  186.0390 C.3   100  GLY100      0.1956
     18  C        228.5790  210.1940  184.8340 C.2   100  GLY100      0.2611
     19  O        227.8170  209.2310  184.9260 O.2   100  GLY100     -0.2717
     20  N        229.1890  210.5110  183.6930 N.am  101  TRP101     -0.1976
     21  CA       228.9950  209.6990  182.4980 C.3   101  TRP101      0.1640
     22  C        229.5320  208.2950  182.7010 C.2   101  TRP101      0.2290
     23  O        228.8570  207.3080  182.4000 O.2   101  TRP101     -0.2864
     24  CB       229.6960  210.3350  181.3080 C.3   101  TRP101      0.0576
     25  CG       229.5270  209.5490  180.0700 C.ar  101  TRP101      0.0006
     26  CD1      230.3450  208.5780  179.6070 C.ar  101  TRP101      0.0946
     27  CD2      228.5100  209.7210  179.0870 C.ar  101  TRP101      0.0152
     28  NE1      229.8770  208.0960  178.4160 N.ar  101  TRP101     -0.2442
     29  CE2      228.7510  208.7900  178.0720 C.ar  101  TRP101      0.0810
     30  CE3      227.4090  210.5660  178.9750 C.ar  101  TRP101      0.0012
     31  CZ2      227.9340  208.6780  176.9620 C.ar  101  TRP101      0.0191
     32  CZ3      226.6000  210.4500  177.8780 C.ar  101  TRP101      0.0001
     33  CH2      226.8650  209.5190  176.8830 C.ar  101  TRP101      0.0015
     34  N        227.4890  206.3180  185.6150 N.3   104  MET104     -0.1230
     35  CA       226.1770  205.9280  185.1200 C.3   104  MET104      0.1702
     36  C        226.2850  205.0280  183.9000 C.2   104  MET104      0.2592
     37  O        225.3160  204.3530  183.5470 O.2   104  MET104     -0.2718
     38  CB       225.3520  207.1680  184.8040 C.3   104  MET104      0.0401
     39  CG       223.9160  206.8820  184.4500 C.3   104  MET104      0.0596
     40  SD       223.0090  206.2250  185.8520 S.3   104  MET104     -0.1393
     41  CE       222.8210  207.7040  186.8340 C.3   104  MET104      0.0692
     42  N        227.4380  205.0060  183.2430 N.am  105  MET105     -0.1979
     43  CA       227.6960  203.9640  182.2620 C.3   105  MET105      0.1605
     44  C        228.1700  202.6820  182.9270 C.2   105  MET105      0.2287
     45  O        227.7280  201.5890  182.5650 O.2   105  MET105     -0.2864
     46  CB       228.7230  204.4450  181.2510 C.3   105  MET105      0.0413
     47  CG       229.0790  203.4210  180.2390 C.3   105  MET105      0.0598
     48  SD       230.2090  204.0370  178.9950 S.3   105  MET105     -0.1393
     49  CE       229.1190  204.9670  177.9520 C.3   105  MET105      0.0692
     50  N        225.0020  200.5640  184.2530 N.3   108  TYR108     -0.1241
     51  CA       224.1110  199.7550  183.4350 C.3   108  TYR108      0.1605
     52  C        224.7990  198.5810  182.7690 C.2   108  TYR108      0.2264
     53  O        224.1210  197.7760  182.1280 O.2   108  TYR108     -0.2867
     54  CB       223.4070  200.6070  182.3940 C.3   108  TYR108      0.0534
     55  CG       222.2990  201.4000  183.0040 C.ar  108  TYR108     -0.0201
     56  CD1      221.0680  200.8210  183.2250 C.ar  108  TYR108     -0.0009
     57  CD2      222.4730  202.7150  183.3590 C.ar  108  TYR108     -0.0009
     58  CE1      220.0420  201.5270  183.7890 C.ar  108  TYR108      0.0417
     59  CE2      221.4490  203.4340  183.9240 C.ar  108  TYR108      0.0417
     60  CZ       220.2340  202.8350  184.1350 C.ar  108  TYR108      0.1957
     61  OH       219.2040  203.5510  184.6970 O.3   108  TYR108     -0.2866
     62  N        225.9140  198.1520  176.7620 N.3   116  GLN116     -0.1245
     63  CA       227.1790  198.8600  176.8950 C.3   116  GLN116      0.1566
     64  C        228.2520  198.1450  176.0950 C.2   116  GLN116      0.2260
     65  O        229.0870  197.4370  176.6630 O.2   116  GLN116     -0.2867
     66  CB       227.6140  198.9930  178.3510 C.3   116  GLN116      0.0367
     67  CG       226.6120  199.6920  179.2110 C.3   116  GLN116      0.0905
     68  CD       226.1650  200.9850  178.6070 C.2   116  GLN116      0.2608
     69  OE1      225.0290  201.1130  178.1690 O.2   116  GLN116     -0.2717
     70  NE2      227.0680  201.9350  178.5090 N.am  116  GLN116     -0.0878
     71  N        226.7040  201.2940  169.0700 N.3   120  SER120     -0.1202
     72  CA       225.9990  202.5660  169.0280 C.3   120  SER120      0.2020
     73  C        226.3520  203.4660  170.2000 C.2   120  SER120      0.2618
     74  O        225.5590  204.3220  170.5910 O.2   120  SER120     -0.2717
     75  CB       224.4850  202.3570  168.9500 C.3   120  SER120      0.2103
     76  OG       224.1250  201.7350  167.7270 O.3   120  SER120     -0.2182
     77  N        227.5180  203.2700  170.7850 N.am  121  PHE121     -0.1975
     78  CA       228.2660  204.3550  171.3970 C.3   121  PHE121      0.1639
     79  C        229.5290  204.4630  170.5590 C.2   121  PHE121      0.2290
     80  O        230.4890  203.7270  170.7890 O.2   121  PHE121     -0.2864
     81  CB       228.5770  204.0450  172.8540 C.3   121  PHE121      0.0560
     82  CG       229.5030  205.0210  173.4970 C.ar  121  PHE121     -0.0200
     83  CD1      229.0290  206.1940  174.0320 C.ar  121  PHE121     -0.0042
     84  CD2      230.8510  204.7610  173.5670 C.ar  121  PHE121     -0.0042
     85  CE1      229.8820  207.0850  174.6250 C.ar  121  PHE121     -0.0003
     86  CE2      231.7060  205.6520  174.1520 C.ar  121  PHE121     -0.0003
     87  CZ       231.2230  206.8150  174.6830 C.ar  121  PHE121     -0.0000
@<TRIPOS>BOND
     1    76    75    1
     2    75    72    1
     3    72    71    1
     4    72    73    1
     5    73    74    2
     6    73    77   am
     7    79    80    2
     8    79    78    1
     9    77    78    1
    10    78    81    1
    11    81    82    1
    12    82    84   ar
    13    82    83   ar
    14    84    86   ar
    15    83    85   ar
    16    86    87   ar
    17    85    87   ar
    18    64    65    2
    19    64    63    1
    20    62    63    1
    21    33    31   ar
    22    33    32   ar
    23    63    66    1
    24    31    29   ar
    25    32    30   ar
    26    49    48    1
    27    29    28   ar
    28    29    27   ar
    29    69    68    2
    30    66    67    1
    31    28    26   ar
    32    70    68   am
    33    68    67    1
    34    30    27   ar
    35    48    47    1
    36    27    25   ar
    37    26    25   ar
    38    25    24    1
    39    47    46    1
    40    15    13    1
    41    46    43    1
    42    24    21    1
    43    14    13    1
    44    13    12    1
    45    53    52    2
    46    43    44    1
    47    43    42    1
    48    54    55    1
    49    54    51    1
    50    23    22    2
    51    21    22    1
    52    21    20    1
    53    45    44    2
    54    52    51    1
    55    11    10    2
    56    12     9    1
    57    55    56   ar
    58    55    57   ar
    59    10     9    1
    60    56    58   ar
    61    42    36   am
    62    57    59   ar
    63    51    50    1
    64    37    36    2
    65    20    18   am
    66     9     8    1
    67    58    60   ar
    68    36    35    1
    69    59    60   ar
    70    60    61    1
    71    39    38    1
    72    39    40    1
    73    38    35    1
    74    18    19    2
    75    18    17    1
    76     8     3   am
    77    35    34    1
    78    40    41    1
    79     4     3    2
    80    16    17    1
    81     3     2    1
    82     2     1    1
    83     2     5    1
    84     6     5    1
    85     5     7    1
