@<TRIPOS>MOLECULE
tmp/6igzQ23.pdb
 141 139 0 0 0
SMALL
GASTEIGER

@<TRIPOS>ATOM
      1  N        251.9280  191.3720  168.4650 N.3    38  TRP38      -0.1241
      2  CA       252.1730  192.8080  168.4710 C.3    38  TRP38       0.1605
      3  C        253.4650  193.1330  169.2020 C.2    38  TRP38       0.2264
      4  O        254.3750  193.7560  168.6440 O.2    38  TRP38      -0.2867
      5  CB       251.0130  193.5310  169.1380 C.3    38  TRP38       0.0550
      6  CG       251.2500  194.9770  169.2370 C.ar   38  TRP38       0.0003
      7  CD1      251.8080  195.6370  170.2790 C.ar   38  TRP38       0.0946
      8  CD2      250.8850  195.9660  168.2830 C.ar   38  TRP38       0.0152
      9  NE1      251.8510  196.9780  170.0190 N.ar   38  TRP38      -0.2442
     10  CE2      251.2810  197.2060  168.7970 C.ar   38  TRP38       0.0810
     11  CE3      250.2730  195.9210  167.0340 C.ar   38  TRP38       0.0012
     12  CZ2      251.0860  198.3900  168.1120 C.ar   38  TRP38       0.0191
     13  CZ3      250.0790  197.0980  166.3550 C.ar   38  TRP38       0.0001
     14  CH2      250.4820  198.3150  166.8930 C.ar   38  TRP38       0.0015
     15  N        256.6550  192.7110  167.4430 N.3    41  GLU41      -0.1231
     16  CA       257.1380  193.7670  166.5670 C.3    41  GLU41       0.1699
     17  C        257.8110  194.8660  167.3630 C.2    41  GLU41       0.2592
     18  O        258.8570  195.3820  166.9580 O.2    41  GLU41      -0.2718
     19  CB       255.9890  194.3570  165.7670 C.3    41  GLU41       0.0402
     20  CG       256.4300  195.4110  164.7960 C.3    41  GLU41       0.1161
     21  CD       257.2150  194.8350  163.6500 C.2    41  GLU41       0.3649
     22  OE1      257.1350  193.6090  163.4390 O.co2  41  GLU41      -0.2457
     23  OE2      257.9190  195.6030  162.9640 O.co2  41  GLU41      -0.2457
     24  N        257.2120  195.2510  168.4860 N.am   42  ALA42      -0.1980
     25  CA       257.7420  196.3640  169.2570 C.3    42  ALA42       0.1597
     26  C        259.1730  196.0980  169.6930 C.2    42  ALA42       0.2287
     27  O        260.0280  196.9860  169.6100 O.2    42  ALA42      -0.2864
     28  CB       256.8480  196.6270  170.4640 C.3    42  ALA42       0.0319
     29  N        261.2040  196.9220  166.8560 N.3    45  GLN45      -0.1231
     30  CA       261.1550  198.3560  166.6040 C.3    45  GLN45       0.1698
     31  C        261.9520  199.1320  167.6390 C.2    45  GLN45       0.2592
     32  O        262.8510  199.9050  167.2940 O.2    45  GLN45      -0.2718
     33  CB       259.7110  198.8200  166.5830 C.3    45  GLN45       0.0381
     34  CG       258.9850  198.3020  165.4030 C.3    45  GLN45       0.0905
     35  CD       259.5370  198.8870  164.1510 C.2    45  GLN45       0.2608
     36  OE1      260.3670  198.2790  163.4850 O.2    45  GLN45      -0.2717
     37  NE2      259.0850  200.0820  163.8150 N.am   45  GLN45      -0.0878
     38  N        261.6240  198.9580  168.9170 N.am   46  ASN46      -0.1974
     39  CA       262.3980  199.6260  169.9550 C.3    46  ASN46       0.1688
     40  C        263.8660  199.2440  169.8680 C.2    46  ASN46       0.2292
     41  O        264.7460  200.1000  169.9930 O.2    46  ASN46      -0.2864
     42  CB       261.8320  199.2920  171.3280 C.3    46  ASN46       0.1181
     43  CG       260.5400  200.0040  171.6040 C.2    46  ASN46       0.2629
     44  OD1      260.5300  201.1700  171.9770 O.2    46  ASN46      -0.2716
     45  ND2      259.4360  199.3160  171.3960 N.am   46  ASN46      -0.0877
     46  N        265.6250  200.8230  166.5910 N.3    49  TRP49      -0.1241
     47  CA       265.9300  202.2430  166.6760 C.3    49  TRP49       0.1605
     48  C        267.0280  202.5100  167.6860 C.2    49  TRP49       0.2264
     49  O        267.9120  203.3330  167.4350 O.2    49  TRP49      -0.2867
     50  CB       264.6940  203.0590  167.0290 C.3    49  TRP49       0.0550
     51  CG       263.7370  203.2090  165.9150 C.ar   49  TRP49       0.0003
     52  CD1      262.5670  202.5470  165.7490 C.ar   49  TRP49       0.0946
     53  CD2      263.8860  204.0570  164.7780 C.ar   49  TRP49       0.0152
     54  NE1      261.9590  202.9480  164.5890 N.ar   49  TRP49      -0.2442
     55  CE2      262.7540  203.8760  163.9750 C.ar   49  TRP49       0.0810
     56  CE3      264.8670  204.9590  164.3660 C.ar   49  TRP49       0.0012
     57  CZ2      262.5740  204.5600  162.7860 C.ar   49  TRP49       0.0191
     58  CZ3      264.6840  205.6400  163.1870 C.ar   49  TRP49       0.0001
     59  CH2      263.5500  205.4360  162.4090 C.ar   49  TRP49       0.0015
     60  N        259.5950  215.6150  158.2660 N.3    89  GLN89      -0.1231
     61  CA       259.6870  214.4040  159.0720 C.3    89  GLN89       0.1698
     62  C        258.3440  213.7000  159.1770 C.2    89  GLN89       0.2592
     63  O        258.2670  212.4730  159.0470 O.2    89  GLN89      -0.2718
     64  CB       260.2150  214.7130  160.4650 C.3    89  GLN89       0.0381
     65  CG       260.2700  213.4730  161.3270 C.3    89  GLN89       0.0905
     66  CD       260.9950  213.6870  162.6230 C.2    89  GLN89       0.2608
     67  OE1      261.5890  214.7350  162.8480 O.2    89  GLN89      -0.2717
     68  NE2      260.9510  212.6920  163.4910 N.am   89  GLN89      -0.0878
     69  N        257.2750  214.4550  159.4180 N.am   90  ALA90      -0.1980
     70  CA       255.9730  213.8370  159.6270 C.3    90  ALA90       0.1597
     71  C        255.5400  213.0540  158.3990 C.2    90  ALA90       0.2287
     72  O        255.3220  211.8410  158.4660 O.2    90  ALA90      -0.2864
     73  CB       254.9360  214.9000  159.9780 C.3    90  ALA90       0.0319
     74  N        257.9150  209.8580  157.6490 N.3    93  MET93      -0.1230
     75  CA       257.7020  208.7010  158.5020 C.3    93  MET93       0.1702
     76  C        256.2620  208.2210  158.4570 C.2    93  MET93       0.2592
     77  O        256.0030  207.0390  158.6960 O.2    93  MET93      -0.2718
     78  CB       258.0920  209.0530  159.9300 C.3    93  MET93       0.0401
     79  CG       258.2300  207.8670  160.8360 C.3    93  MET93       0.0596
     80  SD       259.6530  206.9010  160.3280 S.3    93  MET93      -0.1393
     81  CE       260.9530  208.0240  160.7940 C.3    93  MET93       0.0692
     82  N        255.3220  209.1080  158.1440 N.am   94  HIS94      -0.1976
     83  CA       253.9270  208.7060  158.0680 C.3    94  HIS94       0.1656
     84  C        253.7430  207.6400  156.9940 C.2    94  HIS94       0.2291
     85  O        253.2740  206.5340  157.2750 O.2    94  HIS94      -0.2864
     86  CB       253.0610  209.9360  157.8010 C.3    94  HIS94       0.0771
     87  CG       251.5990  209.7190  158.0220 C.ar   94  HIS94       0.0820
     88  ND1      251.0910  209.2980  159.2300 N.ar   94  HIS94      -0.2267
     89  CD2      250.5330  209.9270  157.2160 C.ar   94  HIS94       0.1154
     90  CE1      249.7770  209.2190  159.1470 C.ar   94  HIS94       0.1986
     91  NE2      249.4120  209.5970  157.9360 N.ar   94  HIS94      -0.2212
     92  N        255.6400  204.2550  157.5930 N.3    97  GLU97      -0.1231
     93  CA       255.3210  203.4160  158.7330 C.3    97  GLU97       0.1699
     94  C        253.9050  202.8630  158.6930 C.2    97  GLU97       0.2592
     95  O        253.7250  201.6490  158.8050 O.2    97  GLU97      -0.2718
     96  CB       255.6140  204.1680  160.0300 C.3    97  GLU97       0.0402
     97  CG       255.8400  203.2040  161.1450 C.3    97  GLU97       0.1161
     98  CD       256.6050  203.7940  162.2920 C.2    97  GLU97       0.3649
     99  OE1      256.8540  205.0130  162.2920 O.co2  97  GLU97      -0.2457
    100  OE2      257.0150  203.0130  163.1700 O.co2  97  GLU97      -0.2457
    101  N        252.8800  203.7040  158.5630 N.am   98  ILE98      -0.1980
    102  CA       251.5230  203.1860  158.4130 C.3    98  ILE98       0.1595
    103  C        251.4970  202.2160  157.2390 C.2    98  ILE98       0.2287
    104  O        250.5710  201.4100  157.1090 O.2    98  ILE98      -0.2864
    105  CB       250.4820  204.3000  158.2110 C.3    98  ILE98       0.0276
    106  CG1      250.6250  204.9210  156.8360 C.3    98  ILE98       0.0022
    107  CG2      250.6330  205.3780  159.2590 C.3    98  ILE98       0.0022
    108  CD1      249.6050  204.4160  155.8690 C.3    98  ILE98       0.0001
    109  N        254.2620  200.0120  156.7500 N.3   100  ARG100     -0.1231
    110  CA       254.7840  198.7850  157.3390 C.3   100  ARG100      0.1694
    111  C        253.8690  198.2600  158.4250 C.2   100  ARG100      0.2592
    112  O        253.7670  197.0470  158.6270 O.2   100  ARG100     -0.2718
    113  CB       256.1720  199.0010  157.9160 C.3   100  ARG100      0.0321
    114  CG       256.2710  200.0640  158.9640 C.3   100  ARG100      0.0489
    115  CD       257.5840  199.9970  159.6910 C.3   100  ARG100      0.2205
    116  NE       257.5950  198.8500  160.5840 N.pl3 100  ARG100     -0.0865
    117  CZ       257.1090  198.8840  161.8160 C.cat 100  ARG100      0.5346
    118  NH1      256.5910  200.0050  162.2900 N.pl3 100  ARG100      0.1354
    119  NH2      257.1440  197.8050  162.5760 N.pl3 100  ARG100      0.1354
    120  N        253.2220  199.1570  159.1550 N.am  101  TRP101     -0.1976
    121  CA       252.2940  198.7310  160.1850 C.3   101  TRP101      0.1640
    122  C        251.1570  197.9060  159.6200 C.2   101  TRP101      0.2290
    123  O        250.5840  197.0700  160.3240 O.2   101  TRP101     -0.2864
    124  CB       251.7600  199.9490  160.9080 C.3   101  TRP101      0.0576
    125  CG       250.6080  199.6580  161.7740 C.ar  101  TRP101      0.0006
    126  CD1      250.6260  199.0660  162.9980 C.ar  101  TRP101      0.0946
    127  CD2      249.2530  200.0120  161.5180 C.ar  101  TRP101      0.0152
    128  NE1      249.3550  198.9950  163.5050 N.ar  101  TRP101     -0.2442
    129  CE2      248.4960  199.5790  162.6130 C.ar  101  TRP101      0.0810
    130  CE3      248.6060  200.6490  160.4630 C.ar  101  TRP101      0.0012
    131  CZ2      247.1300  199.7570  162.6780 C.ar  101  TRP101      0.0191
    132  CZ3      247.2560  200.8200  160.5290 C.ar  101  TRP101      0.0001
    133  CH2      246.5280  200.3820  161.6250 C.ar  101  TRP101      0.0015
    134  N        252.0090  194.2860  159.3110 N.3   104  LEU104     -0.1245
    135  CA       251.8370  193.5980  160.5820 C.3   104  LEU104      0.1561
    136  C        250.4320  193.0300  160.7150 C.2   104  LEU104      0.2260
    137  O        250.2520  191.8360  160.9720 O.2   104  LEU104     -0.2867
    138  CB       252.1360  194.5610  161.7260 C.3   104  LEU104      0.0270
    139  CG       252.0460  194.0600  163.1570 C.3   104  LEU104      0.0019
    140  CD1      253.0830  194.7700  163.9450 C.3   104  LEU104      0.0001
    141  CD2      250.6880  194.3770  163.7290 C.3   104  LEU104      0.0001
@<TRIPOS>BOND
     1   108   106    1
     2   109   110    1
     3   106   105    1
     4    84    85    2
     5    84    83    1
     6   104   103    2
     7    89    91   ar
     8    89    87   ar
     9   103   102    1
    10   110   113    1
    11   110   111    1
    12    92    93    1
    13    74    75    1
    14    86    87    1
    15    86    83    1
    16   113   114    1
    17    91    90   ar
    18    87    88   ar
    19    83    82    1
    20    82    76   am
    21   105   102    1
    22   105   107    1
    23    60    61    1
    24    71    72    2
    25    71    70    1
    26   102   101    1
    27   111   112    2
    28   111   120   am
    29    76    75    1
    30    76    77    2
    31    75    78    1
    32   101    94   am
    33    94    93    1
    34    94    95    2
    35    93    96    1
    36   114   115    1
    37    63    62    2
    38    61    62    1
    39    61    64    1
    40    90    88   ar
    41   120   121    1
    42    62    69   am
    43   134   135    1
    44    69    70    1
    45   122   121    1
    46   122   123    2
    47    70    73    1
    48   115   116    1
    49    78    79    1
    50    96    97    1
    51   121   124    1
    52    80    81    1
    53    80    79    1
    54   130   132   ar
    55   130   127   ar
    56    64    65    1
    57   132   133   ar
    58   135   136    1
    59   135   138    1
    60   116   117    2
    61   136   137    2
    62   124   125    1
    63    97    98    1
    64    65    66    1
    65   127   125   ar
    66   127   129   ar
    67   133   131   ar
    68   138   139    1
    69   125   126   ar
    70   117   118    1
    71   117   119    1
    72    98    99   ar
    73    98   100   ar
    74    59    57   ar
    75    59    58   ar
    76   129   131   ar
    77   129   128   ar
    78    66    67    2
    79    66    68   am
    80    57    55   ar
    81    23    21   ar
    82   126   128   ar
    83   139   141    1
    84   139   140    1
    85    58    56   ar
    86    22    21   ar
    87    36    35    2
    88    21    20    1
    89    37    35   am
    90    55    54   ar
    91    55    53   ar
    92    35    34    1
    93    56    53   ar
    94    54    52   ar
    95    53    51   ar
    96    20    19    1
    97    34    33    1
    98    52    51   ar
    99    19    16    1
   100    51    50    1
   101    13    14   ar
   102    13    11   ar
   103    16    17    1
   104    16    15    1
   105    33    30    1
   106    46    47    1
   107    30    29    1
   108    30    31    1
   109    47    50    1
   110    47    48    1
   111    14    12   ar
   112    18    17    2
   113    11     8   ar
   114    32    31    2
   115    17    24   am
   116    49    48    2
   117    31    38   am
   118    12    10   ar
   119     8    10   ar
   120     8     6   ar
   121     1     2    1
   122     2     5    1
   123     2     3    1
   124    24    25    1
   125     4     3    2
   126    10     9   ar
   127    38    39    1
   128     5     6    1
   129     6     7   ar
   130    25    26    1
   131    25    28    1
   132    27    26    2
   133    40    39    1
   134    40    41    2
   135    39    42    1
   136     9     7   ar
   137    42    43    1
   138    45    43   am
   139    43    44    2
