@<TRIPOS>MOLECULE
tmp/6igzR16.pdb
 163 159 0 0 0
SMALL
GASTEIGER

@<TRIPOS>ATOM
      1  N        187.4550  233.7140  132.1560 N.3    49  ARG49      -0.1245
      2  CA       186.6730  234.6260  131.3390 C.3    49  ARG49       0.1563
      3  C        186.6940  236.0270  131.9300 C.2    49  ARG49       0.2260
      4  O        186.9510  237.0110  131.2290 O.2    49  ARG49      -0.2867
      5  CB       185.2580  234.0750  131.2050 C.3    49  ARG49       0.0307
      6  CG       185.2490  232.8090  130.3910 C.3    49  ARG49       0.0489
      7  CD       183.8980  232.1710  130.2660 C.3    49  ARG49       0.2205
      8  NE       183.9870  231.0100  129.3920 N.pl3  49  ARG49      -0.0865
      9  CZ       183.0010  230.1520  129.1750 C.cat  49  ARG49       0.5346
     10  NH1      181.8370  230.3060  129.7840 N.pl3  49  ARG49       0.1354
     11  NH2      183.1840  229.1330  128.3510 N.pl3  49  ARG49       0.1354
     12  N        189.8100  237.0500  131.2020 N.3    52  MET52      -0.1230
     13  CA       189.8020  237.3150  129.7700 C.3    52  MET52       0.1702
     14  C        189.0190  238.5700  129.4390 C.2    52  MET52       0.2592
     15  O        189.3290  239.2520  128.4590 O.2    52  MET52      -0.2718
     16  CB       189.2220  236.1250  129.0130 C.3    52  MET52       0.0401
     17  CG       190.0880  234.8930  129.0410 C.3    52  MET52       0.0596
     18  SD       189.3040  233.5290  128.1850 S.3    52  MET52      -0.1393
     19  CE       189.4110  234.1270  126.5130 C.3    52  MET52       0.0692
     20  N        187.9950  238.8830  130.2210 N.am   53  LEU53      -0.1980
     21  CA       187.3030  240.1420  130.0040 C.3    53  LEU53       0.1596
     22  C        188.0410  241.3040  130.6540 C.2    53  LEU53       0.2287
     23  O        188.0420  242.4160  130.1180 O.2    53  LEU53      -0.2864
     24  CB       185.8730  240.0500  130.5240 C.3    53  LEU53       0.0297
     25  CG       184.9880  239.0320  129.8100 C.3    53  LEU53       0.0022
     26  CD1      183.6250  238.9820  130.4540 C.3    53  LEU53       0.0001
     27  CD2      184.8710  239.3510  128.3360 C.3    53  LEU53       0.0001
     28  N        192.0090  242.7710  128.9470 N.3    56  PRO56      -0.2116
     29  CA       191.9040  243.8870  128.0050 C.3    56  PRO56       0.1372
     30  C        191.3300  245.1260  128.6480 C.2    56  PRO56       0.2244
     31  O        191.7240  246.2420  128.2900 O.2    56  PRO56      -0.2868
     32  CB       190.9810  243.3370  126.9140 C.3    56  PRO56       0.0268
     33  CG       191.1420  241.8720  126.9980 C.3    56  PRO56       0.0207
     34  CD       191.2760  241.5940  128.4580 C.3    56  PRO56       0.0892
     35  N        178.0850  225.2200  132.2080 N.3   122  VAL122     -0.1231
     36  CA       179.2690  225.9390  131.7620 C.3   122  VAL122      0.1692
     37  C        179.2680  226.1150  130.2510 C.2   122  VAL122      0.2592
     38  O        179.7730  227.1200  129.7400 O.2   122  VAL122     -0.2718
     39  CB       180.5330  225.2200  132.2500 C.3   122  VAL122      0.0266
     40  CG1      180.6070  223.8290  131.6700 C.3   122  VAL122      0.0020
     41  CG2      181.7380  226.0000  131.8580 C.3   122  VAL122      0.0020
     42  N        178.6910  225.1690  129.5110 N.am  123  TYR123     -0.1963
     43  CA       178.5870  225.2420  128.0570 C.3   123  TYR123      0.1756
     44  C        177.1130  225.1860  127.6750 C.2   123  TYR123      0.2461
     45  O        176.6210  224.1500  127.2050 O.2   123  TYR123     -0.2730
     46  CB       179.3760  224.1170  127.3990 C.3   123  TYR123      0.0574
     47  CG       180.8530  224.2140  127.6500 C.ar  123  TYR123     -0.0198
     48  CD1      181.5060  225.4290  127.5690 C.ar  123  TYR123     -0.0009
     49  CD2      181.5910  223.0970  127.9860 C.ar  123  TYR123     -0.0009
     50  CE1      182.8550  225.5220  127.7980 C.ar  123  TYR123      0.0417
     51  CE2      182.9380  223.1830  128.2210 C.ar  123  TYR123      0.0417
     52  CZ       183.5640  224.3950  128.1280 C.ar  123  TYR123      0.1957
     53  OH       184.9100  224.4760  128.3620 O.3   123  TYR123     -0.2866
     54  N        176.3720  226.2720  127.8880 N.am  124  PRO124     -0.2716
     55  CA       174.9420  226.2460  127.5480 C.3   124  PRO124      0.1536
     56  C        174.6710  226.1480  126.0600 C.2   124  PRO124      0.2599
     57  O        173.7850  225.3950  125.6390 O.2   124  PRO124     -0.2715
     58  CB       174.4400  227.5740  128.1250 C.3   124  PRO124      0.0310
     59  CG       175.4300  227.9310  129.1720 C.3   124  PRO124      0.0237
     60  CD       176.7320  227.4990  128.6080 C.3   124  PRO124      0.0939
     61  N        175.4140  226.8910  125.2470 N.am  125  GLY125     -0.1955
     62  CA       175.0520  226.9930  123.8520 C.3   125  GLY125      0.1869
     63  C        173.8130  227.8560  123.6880 C.2   125  GLY125      0.2309
     64  O        173.4400  228.6380  124.5670 O.2   125  GLY125     -0.2863
     65  N        173.4570  231.8560  124.1900 N.3   128  PHE128     -0.1227
     66  CA       174.8260  232.2810  124.4360 C.3   128  PHE128      0.1736
     67  C        175.7760  231.8360  123.3350 C.2   128  PHE128      0.2595
     68  O        176.9600  232.1760  123.3780 O.2   128  PHE128     -0.2718
     69  CB       175.3090  231.7560  125.7890 C.3   128  PHE128      0.0547
     70  CG       174.5160  232.2740  126.9500 C.ar  128  PHE128     -0.0202
     71  CD1      174.7900  233.5150  127.4960 C.ar  128  PHE128     -0.0042
     72  CD2      173.4900  231.5220  127.4940 C.ar  128  PHE128     -0.0042
     73  CE1      174.0550  233.9910  128.5630 C.ar  128  PHE128     -0.0003
     74  CE2      172.7550  231.9940  128.5620 C.ar  128  PHE128     -0.0003
     75  CZ       173.0350  233.2300  129.0940 C.ar  128  PHE128     -0.0000
     76  N        175.2840  231.0890  122.3510 N.am  129  ASP129     -0.1960
     77  CA       176.0430  230.7290  121.1600 C.3   129  ASP129      0.1825
     78  C        175.3060  231.3210  119.9650 C.2   129  ASP129      0.2464
     79  O        174.6560  230.5980  119.2000 O.2   129  ASP129     -0.2730
     80  CB       176.1850  229.2140  121.0280 C.3   129  ASP129      0.1450
     81  CG       177.0450  228.8040  119.8450 C.2   129  ASP129      0.3671
     82  OD1      177.5820  229.6920  119.1490 O.co2 129  ASP129     -0.2456
     83  OD2      177.1910  227.5870  119.6120 O.co2 129  ASP129     -0.2456
     84  N        175.3670  232.6430  119.7920 N.am  130  PRO130     -0.2715
     85  CA       174.6400  233.2510  118.6700 C.3   130  PRO130      0.1536
     86  C        175.2120  232.8620  117.3270 C.2   130  PRO130      0.2598
     87  O        174.4570  232.5780  116.3880 O.2   130  PRO130     -0.2715
     88  CB       174.7900  234.7520  118.9370 C.3   130  PRO130      0.0310
     89  CG       176.0790  234.8620  119.6540 C.3   130  PRO130      0.0237
     90  CD       176.1960  233.6280  120.5050 C.3   130  PRO130      0.0939
     91  N        176.5380  232.8260  117.2150 N.am  131  ALA131     -0.1978
     92  CA       177.1660  232.5690  115.9280 C.3   131  ALA131      0.1597
     93  C        176.9150  231.1410  115.4710 C.2   131  ALA131      0.2287
     94  O        176.5040  230.9050  114.3300 O.2   131  ALA131     -0.2864
     95  CB       178.6640  232.8510  116.0210 C.3   131  ALA131      0.0319
     96  N        179.5340  228.8990  115.9470 N.3   133  PHE133     -0.1227
     97  CA       180.8680  228.4230  115.6060 C.3   133  PHE133      0.1736
     98  C        181.1990  227.1100  116.2900 C.2   133  PHE133      0.2596
     99  O        182.2400  226.5220  115.9870 O.2   133  PHE133     -0.2718
    100  CB       181.9120  229.4790  115.9610 C.3   133  PHE133      0.0547
    101  CG       181.7290  230.7780  115.2300 C.ar  133  PHE133     -0.0202
    102  CD1      180.9880  230.8350  114.0610 C.ar  133  PHE133     -0.0042
    103  CD2      182.2850  231.9460  115.7190 C.ar  133  PHE133     -0.0042
    104  CE1      180.8100  232.0260  113.3930 C.ar  133  PHE133     -0.0003
    105  CE2      182.1100  233.1430  115.0540 C.ar  133  PHE133     -0.0003
    106  CZ       181.3720  233.1830  113.8890 C.ar  133  PHE133     -0.0000
    107  N        180.3410  226.6540  117.2070 N.am  134  SER134     -0.1952
    108  CA       180.4740  225.3180  117.7740 C.3   134  SER134      0.1924
    109  C        180.6810  224.2870  116.6760 C.2   134  SER134      0.2314
    110  O        181.5200  223.3880  116.8020 O.2   134  SER134     -0.2863
    111  CB       179.2280  224.9810  118.5930 C.3   134  SER134      0.2116
    112  OG       179.0600  225.9000  119.6540 O.3   134  SER134     -0.2180
    113  N        183.5560  221.2990  118.8390 N.3   138  LEU138     -0.1245
    114  CA       183.9410  222.2400  119.8720 C.3   138  LEU138      0.1561
    115  C        185.2140  221.8330  120.6010 C.2   138  LEU138      0.2260
    116  O        185.8200  222.6730  121.2730 O.2   138  LEU138     -0.2867
    117  CB       182.7760  222.3980  120.8500 C.3   138  LEU138      0.0270
    118  CG       182.1170  221.0810  121.2870 C.3   138  LEU138      0.0019
    119  CD1      182.9030  220.3080  122.3300 C.3   138  LEU138      0.0001
    120  CD2      180.7050  221.3480  121.7800 C.3   138  LEU138      0.0001
    121  N        187.9370  223.9170  119.8680 N.3   141  LEU141     -0.1231
    122  CA       187.6380  225.2550  120.3610 C.3   141  LEU141      0.1693
    123  C        187.6510  225.3120  121.8790 C.2   141  LEU141      0.2591
    124  O        188.0250  226.3360  122.4580 O.2   141  LEU141     -0.2718
    125  CB       186.2770  225.7020  119.8370 C.3   141  LEU141      0.0284
    126  CG       186.1040  225.8280  118.3250 C.3   141  LEU141      0.0019
    127  CD1      184.6450  226.0480  118.0080 C.3   141  LEU141      0.0001
    128  CD2      186.9400  226.9640  117.7620 C.3   141  LEU141      0.0001
    129  N        187.2270  224.2360  122.5350 N.am  142  LYS142     -0.1980
    130  CA       187.1870  224.2070  123.9900 C.3   142  LYS142      0.1596
    131  C        188.5900  224.3450  124.5720 C.2   142  LYS142      0.2287
    132  O        188.8600  225.2440  125.3760 O.2   142  LYS142     -0.2864
    133  CB       186.5260  222.9100  124.4420 C.3   142  LYS142      0.0298
    134  CG       186.1740  222.8450  125.8950 C.3   142  LYS142      0.0038
    135  CD       185.7160  221.4480  126.2470 C.3   142  LYS142      0.0206
    136  CE       184.4160  221.1110  125.5570 C.3   142  LYS142      0.1093
    137  NZ       184.0080  219.7190  125.8550 N.3   142  LYS142     -0.1314
    138  N        191.0140  225.4080  122.8920 N.3   144  LYS144     -0.1231
    139  CA       191.4170  226.7090  122.3840 C.3   144  LYS144      0.1693
    140  C        191.0600  227.8130  123.3690 C.2   144  LYS144      0.2591
    141  O        191.8760  228.6930  123.6610 O.2   144  LYS144     -0.2718
    142  CB       190.7320  226.9150  121.0370 C.3   144  LYS144      0.0285
    143  CG       191.0570  228.1340  120.2350 C.3   144  LYS144      0.0035
    144  CD       190.3610  227.9490  118.8980 C.3   144  LYS144      0.0206
    145  CE       190.5210  229.1280  117.9960 C.3   144  LYS144      0.1093
    146  NZ       189.7540  230.3050  118.4860 N.3   144  LYS144     -0.1314
    147  N        189.8440  227.7610  123.9130 N.am  145  GLU145     -0.1979
    148  CA       189.3940  228.7970  124.8360 C.3   145  GLU145      0.1602
    149  C        190.1850  228.7640  126.1320 C.2   145  GLU145      0.2287
    150  O        190.4650  229.8100  126.7250 O.2   145  GLU145     -0.2864
    151  CB       187.8990  228.6320  125.1110 C.3   145  GLU145      0.0415
    152  CG       187.3130  229.6540  126.0750 C.3   145  GLU145      0.1163
    153  CD       185.7980  229.5590  126.1990 C.2   145  GLU145      0.3649
    154  OE1      185.1860  228.7190  125.5120 O.co2 145  GLU145     -0.2457
    155  OE2      185.2120  230.3290  126.9860 O.co2 145  GLU145     -0.2457
    156  N        193.8950  230.3090  125.9610 N.3   148  ASN148     -0.1240
    157  CA       193.7470  231.7530  126.1090 C.3   148  ASN148      0.1653
    158  C        193.3920  232.1210  127.5380 C.2   148  ASN148      0.2266
    159  O        193.8330  233.1560  128.0500 O.2   148  ASN148     -0.2867
    160  CB       192.6730  232.2750  125.1650 C.3   148  ASN148      0.1155
    161  CG       193.1240  232.3140  123.7440 C.2   148  ASN148      0.2627
    162  OD1      194.3140  232.4080  123.4640 O.2   148  ASN148     -0.2716
    163  ND2      192.1750  232.2500  122.8240 N.am  148  ASN148     -0.0877
@<TRIPOS>BOND
     1   104   106   ar
     2   104   102   ar
     3   106   105   ar
     4   102   101   ar
     5    94    93    2
     6   105   103   ar
     7   101   103   ar
     8   101   100    1
     9    93    92    1
    10    97    96    1
    11    97   100    1
    12    97    98    1
    13    92    95    1
    14    92    91    1
    15    99    98    2
    16    98   107   am
    17    87    86    2
    18   109   110    2
    19   109   108    1
    20   107   108    1
    21    91    86   am
    22    86    85    1
    23   128   126    1
    24   108   111    1
    25   145   146    1
    26   145   144    1
    27   127   126    1
    28   126   125    1
    29   111   112    1
    30    85    88    1
    31    85    84    1
    32   113   114    1
    33   144   143    1
    34    88    89    1
    35    82    81   ar
    36    79    78    2
    37    83    81   ar
    38    89    90    1
    39    84    78   am
    40    84    90    1
    41   125   122    1
    42    81    80    1
    43   121   122    1
    44   114   115    1
    45   114   117    1
    46    78    77    1
    47   143   142    1
    48   122   123    1
    49   115   116    2
    50   117   118    1
    51    80    77    1
    52   142   139    1
    53    77    76    1
    54   118   120    1
    55   118   119    1
    56   123   124    2
    57   123   129   am
    58    76    67   am
    59   139   138    1
    60   139   140    1
    61   129   130    1
    62   163   161   am
    63    67    68    2
    64    67    66    1
    65   140   141    2
    66   140   147   am
    67   162   161    2
    68    63    62    1
    69    63    64    2
    70   161   160    1
    71    62    61    1
    72   147   148    1
    73   130   133    1
    74   130   131    1
    75    65    66    1
    76    66    69    1
    77   133   134    1
    78   131   132    2
    79   148   151    1
    80   148   149    1
    81   151   152    1
    82   160   157    1
    83    61    56   am
    84   154   153   ar
    85   136   137    1
    86   136   135    1
    87    57    56    2
    88    69    70    1
    89   134   135    1
    90   156   157    1
    91    56    55    1
    92   152   153    1
    93   157   158    1
    94   149   150    2
    95   153   155   ar
    96    19    18    1
    97    32    33    1
    98    32    29    1
    99    70    72   ar
   100    70    71   ar
   101    33    34    1
   102    45    44    2
   103    46    47    1
   104    46    43    1
   105    72    74   ar
   106    71    73   ar
   107   158   159    2
   108    55    54    1
   109    55    58    1
   110    48    47   ar
   111    48    50   ar
   112    47    49   ar
   113    44    54   am
   114    44    43    1
   115    50    52   ar
   116    54    60    1
   117    49    51   ar
   118    29    30    1
   119    29    28    1
   120    43    42    1
   121    58    59    1
   122    52    51   ar
   123    52    53    1
   124    18    17    1
   125    31    30    2
   126    27    25    1
   127    11     9    1
   128    34    28    1
   129    15    14    2
   130    74    75   ar
   131    73    75   ar
   132    60    59    1
   133    16    17    1
   134    16    13    1
   135     9     8    2
   136     9    10    1
   137     8     7    1
   138    14    13    1
   139    14    20   am
   140    42    37   am
   141    38    37    2
   142    13    12    1
   143    25    26    1
   144    25    24    1
   145    21    20    1
   146    21    24    1
   147    21    22    1
   148    23    22    2
   149    37    36    1
   150     7     6    1
   151     6     5    1
   152     5     2    1
   153     4     3    2
   154     2     3    1
   155     2     1    1
   156    40    39    1
   157    36    35    1
   158    36    39    1
   159    41    39    1
