@<TRIPOS>MOLECULE
tmp/6igzO21.pdb
 94 96 0 0 0
SMALL
GASTEIGER

@<TRIPOS>ATOM
      1  N        255.4870  197.8450  244.0620 N.3    84  TRP84      -0.1241
      2  CA       254.8240  197.3050  242.8810 C.3    84  TRP84       0.1605
      3  C        253.6850  198.1920  242.4060 C.2    84  TRP84       0.2264
      4  O        253.4400  198.2970  241.2010 O.2    84  TRP84      -0.2867
      5  CB       254.3150  195.8940  243.1510 C.3    84  TRP84       0.0550
      6  CG       253.2880  195.7940  244.2110 C.ar   84  TRP84       0.0003
      7  CD1      253.4900  195.5460  245.5330 C.ar   84  TRP84       0.0946
      8  CD2      251.8830  195.9470  244.0410 C.ar   84  TRP84       0.0152
      9  NE1      252.2910  195.5260  246.1960 N.ar   84  TRP84      -0.2442
     10  CE2      251.2890  195.7700  245.2960 C.ar   84  TRP84       0.0810
     11  CE3      251.0690  196.2150  242.9430 C.ar   84  TRP84       0.0012
     12  CZ2      249.9260  195.8570  245.4840 C.ar   84  TRP84       0.0191
     13  CZ3      249.7210  196.3000  243.1330 C.ar   84  TRP84       0.0001
     14  CH2      249.1600  196.1240  244.3900 C.ar   84  TRP84       0.0015
     15  N        254.1180  203.1000  238.3570 N.3    88  GLY88      -0.1210
     16  CA       253.5480  203.8710  237.2790 C.3    88  GLY88       0.1956
     17  C        252.3050  203.2550  236.6960 C.2    88  GLY88       0.2612
     18  O        251.7030  203.8470  235.7940 O.2    88  GLY88      -0.2717
     19  N        251.9140  202.0770  237.1730 N.am   89  VAL89      -0.1965
     20  CA       250.6520  201.4890  236.7540 C.3    89  VAL89       0.1727
     21  C        249.4880  202.3250  237.2550 C.2    89  VAL89       0.2616
     22  O        248.4710  202.4680  236.5710 O.2    89  VAL89      -0.2715
     23  CB       250.5650  200.0360  237.2480 C.3    89  VAL89       0.0290
     24  CG1      250.7210  199.9830  238.7340 C.3    89  VAL89       0.0023
     25  CG2      249.2410  199.4570  236.8860 C.3    89  VAL89       0.0023
     26  N        249.6260  202.9150  238.4350 N.am   90  ILE90      -0.1964
     27  CA       248.5460  203.6970  239.0250 C.3    90  ILE90       0.1712
     28  C        249.0600  205.1140  239.2240 C.2    90  ILE90       0.2458
     29  O        249.6510  205.4190  240.2690 O.2    90  ILE90      -0.2730
     30  CB       248.0630  203.0840  240.3390 C.3    90  ILE90       0.0289
     31  CG1      247.5720  201.6670  240.0990 C.3    90  ILE90       0.0022
     32  CG2      246.9240  203.8860  240.8850 C.3    90  ILE90       0.0023
     33  CD1      247.2670  200.9230  241.3580 C.3    90  ILE90       0.0001
     34  N        248.8920  205.9900  238.2400 N.am   91  PRO91      -0.2716
     35  CA       249.4670  207.3270  238.3160 C.3    91  PRO91       0.1521
     36  C        249.0230  208.0950  239.5510 C.2    91  PRO91       0.2440
     37  O        249.8310  208.8250  240.1320 O.2    91  PRO91      -0.2731
     38  CB       248.9670  207.9890  237.0300 C.3    91  PRO91       0.0310
     39  CG       248.8080  206.8670  236.1000 C.3    91  PRO91       0.0237
     40  CD       248.3370  205.7090  236.9100 C.3    91  PRO91       0.0939
     41  N        247.7600  207.9840  239.9890 N.am   92  PRO92      -0.2727
     42  CA       247.3910  208.6520  241.2430 C.3    92  PRO92       0.1402
     43  C        248.2860  208.2830  242.4040 C.2    92  PRO92       0.2269
     44  O        248.5450  209.1270  243.2700 O.2    92  PRO92      -0.2865
     45  CB       245.9560  208.1880  241.4830 C.3    92  PRO92       0.0296
     46  CG       245.4350  207.9400  240.1530 C.3    92  PRO92       0.0237
     47  CD       246.5620  207.4300  239.3270 C.3    92  PRO92       0.0939
     48  N        254.1260  205.0050  229.3810 N.3   103  PRO103     -0.2102
     49  CA       253.2720  203.8430  229.6460 C.3   103  PRO103      0.1504
     50  C        252.2310  203.5980  228.5760 C.2   103  PRO103      0.2575
     51  O        251.8850  202.4380  228.3310 O.2   103  PRO103     -0.2718
     52  CB       252.6200  204.1880  230.9860 C.3   103  PRO103      0.0282
     53  CG       253.5720  205.1230  231.6210 C.3   103  PRO103      0.0208
     54  CD       254.1120  205.9530  230.5030 C.3   103  PRO103      0.0893
     55  N        251.7150  204.6440  227.9310 N.am  104  TYR104     -0.1977
     56  CA       250.6410  204.4420  226.9650 C.3   104  TYR104      0.1639
     57  C        251.1200  203.6750  225.7430 C.2   104  TYR104      0.2290
     58  O        250.3950  202.8210  225.2250 O.2   104  TYR104     -0.2864
     59  CB       250.0410  205.7760  226.5520 C.3   104  TYR104      0.0560
     60  CG       249.3030  206.4760  227.6590 C.ar  104  TYR104     -0.0198
     61  CD1      248.0050  206.1240  227.9720 C.ar  104  TYR104     -0.0009
     62  CD2      249.8870  207.5120  228.3640 C.ar  104  TYR104     -0.0009
     63  CE1      247.3200  206.7620  228.9700 C.ar  104  TYR104      0.0417
     64  CE2      249.2070  208.1600  229.3630 C.ar  104  TYR104      0.0417
     65  CZ       247.9230  207.7800  229.6620 C.ar  104  TYR104      0.1957
     66  OH       247.2340  208.4220  230.6620 O.3   104  TYR104     -0.2866
     67  N        253.5760  201.4520  225.7110 N.3   106  LEU106     -0.1231
     68  CA       253.6800  200.0880  226.2040 C.3   106  LEU106      0.1693
     69  C        252.3250  199.4110  226.2640 C.2   106  LEU106      0.2592
     70  O        252.2260  198.1960  226.0790 O.2   106  LEU106     -0.2718
     71  CB       254.3190  200.0970  227.5850 C.3   106  LEU106      0.0284
     72  CG       255.7340  200.6480  227.5580 C.3   106  LEU106      0.0019
     73  CD1      256.2760  200.8100  228.9490 C.3   106  LEU106      0.0001
     74  CD2      256.5920  199.7040  226.7620 C.3   106  LEU106      0.0001
     75  N        251.2710  200.1740  226.5290 N.am  107  PHE107     -0.1976
     76  CA       249.9520  199.5830  226.6300 C.3   107  PHE107      0.1639
     77  C        249.3420  199.3200  225.2690 C.2   107  PHE107      0.2290
     78  O        248.3870  198.5520  225.1730 O.2   107  PHE107     -0.2864
     79  CB       249.0370  200.4790  227.4540 C.3   107  PHE107      0.0560
     80  CG       247.6620  199.9340  227.6320 C.ar  107  PHE107     -0.0200
     81  CD1      247.4220  198.9200  228.5290 C.ar  107  PHE107     -0.0042
     82  CD2      246.6020  200.4510  226.9210 C.ar  107  PHE107     -0.0042
     83  CE1      246.1520  198.4150  228.6990 C.ar  107  PHE107     -0.0003
     84  CE2      245.3280  199.9530  227.0900 C.ar  107  PHE107     -0.0003
     85  CZ       245.1050  198.9360  227.9800 C.ar  107  PHE107     -0.0000
     86  N        251.2440  195.9670  224.2930 N.3   110  GLU110     -0.1245
     87  CA       250.5880  194.9770  225.1310 C.3   110  GLU110      0.1567
     88  C        249.2670  194.5460  224.5220 C.2   110  GLU110      0.2260
     89  O        249.1160  193.4040  224.0830 O.2   110  GLU110     -0.2867
     90  CB       250.3710  195.5530  226.5200 C.3   110  GLU110      0.0388
     91  CG       249.6360  194.6520  227.4550 C.3   110  GLU110      0.1160
     92  CD       249.4440  195.3030  228.7970 C.2   110  GLU110      0.3649
     93  OE1      249.8770  196.4580  228.9570 O.co2 110  GLU110     -0.2457
     94  OE2      248.8540  194.6730  229.6920 O.co2 110  GLU110     -0.2457
@<TRIPOS>BOND
     1    89    88    2
     2    86    87    1
     3    88    87    1
     4    87    90    1
     5    78    77    2
     6    58    57    2
     7    77    76    1
     8    67    68    1
     9    57    56    1
    10    70    69    2
    11    68    69    1
    12    68    71    1
    13    69    75   am
    14    90    91    1
    15    75    76    1
    16    59    56    1
    17    59    60    1
    18    76    79    1
    19    74    72    1
    20    82    84   ar
    21    82    80   ar
    22    56    55    1
    23    84    85   ar
    24    79    80    1
    25    91    92    1
    26    72    71    1
    27    72    73    1
    28    80    81   ar
    29    60    61   ar
    30    60    62   ar
    31    55    50   am
    32    61    63   ar
    33    85    83   ar
    34    51    50    2
    35    62    64   ar
    36    81    83   ar
    37    50    49    1
    38    92    93   ar
    39    92    94   ar
    40    63    65   ar
    41    64    65   ar
    42    48    49    1
    43    48    54    1
    44    49    52    1
    45    65    66    1
    46    54    53    1
    47    52    53    1
    48    18    17    2
    49    39    40    1
    50    39    38    1
    51    22    21    2
    52    17    19   am
    53    17    16    1
    54    20    19    1
    55    20    23    1
    56    20    21    1
    57    25    23    1
    58    40    34    1
    59    38    35    1
    60    23    24    1
    61    21    26   am
    62    16    15    1
    63    34    35    1
    64    34    28   am
    65    35    36    1
    66    26    27    1
    67    27    28    1
    68    27    30    1
    69    28    29    2
    70    47    41    1
    71    47    46    1
    72    36    41   am
    73    36    37    2
    74    41    42    1
    75    31    30    1
    76    31    33    1
    77    46    45    1
    78    30    32    1
    79     4     3    2
    80    42    45    1
    81    42    43    1
    82    43    44    2
    83     3     2    1
    84     2     5    1
    85     2     1    1
    86    11    13   ar
    87    11     8   ar
    88    13    14   ar
    89     5     6    1
    90     8     6   ar
    91     8    10   ar
    92     6     7   ar
    93    14    12   ar
    94    10    12   ar
    95    10     9   ar
    96     7     9   ar
