@<TRIPOS>MOLECULE
tmp/6igzQ20.pdb
 117 113 0 0 0
SMALL
GASTEIGER

@<TRIPOS>ATOM
      1  N        265.6250  200.8230  166.5910 N.3    49  TRP49      -0.1241
      2  CA       265.9300  202.2430  166.6760 C.3    49  TRP49       0.1605
      3  C        267.0280  202.5100  167.6860 C.2    49  TRP49       0.2264
      4  O        267.9120  203.3330  167.4350 O.2    49  TRP49      -0.2867
      5  CB       264.6940  203.0590  167.0290 C.3    49  TRP49       0.0550
      6  CG       263.7370  203.2090  165.9150 C.ar   49  TRP49       0.0003
      7  CD1      262.5670  202.5470  165.7490 C.ar   49  TRP49       0.0946
      8  CD2      263.8860  204.0570  164.7780 C.ar   49  TRP49       0.0152
      9  NE1      261.9590  202.9480  164.5890 N.ar   49  TRP49      -0.2442
     10  CE2      262.7540  203.8760  163.9750 C.ar   49  TRP49       0.0810
     11  CE3      264.8670  204.9590  164.3660 C.ar   49  TRP49       0.0012
     12  CZ2      262.5740  204.5600  162.7860 C.ar   49  TRP49       0.0191
     13  CZ3      264.6840  205.6400  163.1870 C.ar   49  TRP49       0.0001
     14  CH2      263.5500  205.4360  162.4090 C.ar   49  TRP49       0.0015
     15  N        272.2580  218.8460  172.2310 N.3    71  ASP71      -0.1225
     16  CA       272.5150  219.9690  171.3440 C.3    71  ASP71       0.1805
     17  C        271.4680  220.0920  170.2480 C.2    71  ASP71       0.2597
     18  O        271.2930  219.1870  169.4280 O.2    71  ASP71      -0.2718
     19  CB       273.9060  219.8240  170.7380 C.3    71  ASP71       0.1424
     20  CG       274.1310  218.4610  170.1230 C.2    71  ASP71       0.3668
     21  OD1      273.2640  217.5790  170.2970 O.co2  71  ASP71      -0.2456
     22  OD2      275.1820  218.2690  169.4780 O.co2  71  ASP71      -0.2456
     23  N        270.7630  221.2150  170.2530 N.am   72  ALA72      -0.1979
     24  CA       270.3040  221.7830  168.9910 C.3    72  ALA72       0.1597
     25  C        271.4700  222.3410  168.1840 C.2    72  ALA72       0.2287
     26  O        271.5900  221.9940  166.9950 O.2    72  ALA72      -0.2864
     27  CB       269.2320  222.8410  169.2520 C.3    72  ALA72       0.0319
     28  N        274.7930  222.6680  166.2270 N.3    74  THR74      -0.1218
     29  CA       275.6560  221.6390  165.6690 C.3    74  THR74       0.1862
     30  C        276.7120  222.2880  164.7800 C.2    74  THR74       0.2287
     31  O        276.7130  223.5030  164.5680 O.2    74  THR74      -0.2866
     32  CB       274.8460  220.6270  164.8510 C.3    74  THR74       0.1770
     33  OG1      274.2920  221.2840  163.7100 O.3    74  THR74      -0.2211
     34  CG2      273.6990  220.0760  165.6680 C.3    74  THR74       0.0375
     35  N        276.9240  220.7270  161.7570 N.3    76  ILE76      -0.1245
     36  CA       276.1200  220.6370  160.5480 C.3    76  ILE76       0.1561
     37  C        275.1310  221.7920  160.6100 C.2    76  ILE76       0.2260
     38  O        274.1840  221.8540  159.8210 O.2    76  ILE76      -0.2867
     39  CB       275.4140  219.2750  160.4140 C.3    76  ILE76       0.0252
     40  CG1      274.4710  219.0350  161.5940 C.3    76  ILE76       0.0019
     41  CG2      276.4390  218.1550  160.3040 C.3    76  ILE76       0.0019
     42  CD1      273.0200  219.3820  161.3280 C.3    76  ILE76       0.0001
     43  N        272.1870  224.2150  161.3190 N.3    78  LEU78      -0.1231
     44  CA       270.7500  223.9620  161.2940 C.3    78  LEU78       0.1678
     45  C        270.2720  224.2580  159.8850 C.2    78  LEU78       0.2434
     46  O        269.5700  225.2450  159.6410 O.2    78  LEU78      -0.2733
     47  CB       270.0510  224.8320  162.3360 C.3    78  LEU78       0.0284
     48  CG       268.5620  224.6970  162.5840 C.3    78  LEU78       0.0019
     49  CD1      268.2650  223.3170  163.1340 C.3    78  LEU78       0.0001
     50  CD2      268.1400  225.7770  163.5540 C.3    78  LEU78       0.0001
     51  N        270.6310  223.4050  158.9220 N.am   79  PRO79      -0.2718
     52  CA       270.6720  223.8700  157.5240 C.3    79  PRO79       0.1535
     53  C        269.3490  224.3890  157.0020 C.2    79  PRO79       0.2598
     54  O        269.3090  225.4830  156.4270 O.2    79  PRO79      -0.2715
     55  CB       271.1450  222.6230  156.7670 C.3    79  PRO79       0.0310
     56  CG       270.7080  221.4990  157.6000 C.3    79  PRO79       0.0237
     57  CD       270.8560  221.9580  159.0220 C.3    79  PRO79       0.0939
     58  N        268.2600  223.6500  157.1820 N.am   80  PHE80      -0.1974
     59  CA       266.9390  224.1390  156.8020 C.3    80  PHE80       0.1639
     60  C        266.0710  224.2230  158.0490 C.2    80  PHE80       0.2290
     61  O        265.4130  223.2450  158.4050 O.2    80  PHE80      -0.2864
     62  CB       266.3340  223.1890  155.7840 C.3    80  PHE80       0.0560
     63  CG       267.1320  223.0700  154.5320 C.ar   80  PHE80      -0.0200
     64  CD1      267.8590  224.1430  154.0560 C.ar   80  PHE80      -0.0042
     65  CD2      267.2200  221.8630  153.8690 C.ar   80  PHE80      -0.0042
     66  CE1      268.6110  224.0330  152.9050 C.ar   80  PHE80      -0.0003
     67  CE2      267.9770  221.7430  152.7200 C.ar   80  PHE80      -0.0003
     68  CZ       268.6740  222.8310  152.2370 C.ar   80  PHE80      -0.0000
     69  N        263.8940  224.3720  161.4020 N.3    82  ILE82      -0.1245
     70  CA       263.5800  223.2030  162.2100 C.3    82  ILE82       0.1561
     71  C        262.2340  222.7330  161.7090 C.2    82  ILE82       0.2260
     72  O        262.0860  221.6170  161.2010 O.2    82  ILE82      -0.2867
     73  CB       263.5130  223.5100  163.7090 C.3    82  ILE82       0.0252
     74  CG1      264.8210  224.1070  164.1930 C.3    82  ILE82       0.0019
     75  CG2      263.2110  222.2460  164.4760 C.3    82  ILE82       0.0019
     76  CD1      264.7540  225.5940  164.2800 C.3    82  ILE82       0.0001
     77  N        262.2380  220.8240  158.8310 N.3    85  ILE85      -0.1245
     78  CA       262.4850  219.3870  158.8850 C.3    85  ILE85       0.1561
     79  C        261.2650  218.6640  159.4310 C.2    85  ILE85       0.2260
     80  O        260.7800  217.6940  158.8360 O.2    85  ILE85      -0.2867
     81  CB       263.7240  219.0630  159.7340 C.3    85  ILE85       0.0252
     82  CG1      264.9580  219.7920  159.2350 C.3    85  ILE85       0.0019
     83  CG2      263.9960  217.5810  159.7020 C.3    85  ILE85       0.0019
     84  CD1      265.3980  220.8630  160.1690 C.3    85  ILE85       0.0001
     85  N        258.7820  217.9320  157.0150 N.3    88  PHE88      -0.1227
     86  CA       259.1240  216.7960  156.1760 C.3    88  PHE88       0.1736
     87  C        259.2650  215.5180  156.9790 C.2    88  PHE88       0.2595
     88  O        259.0830  214.4300  156.4300 O.2    88  PHE88      -0.2718
     89  CB       260.4070  217.0690  155.4110 C.3    88  PHE88       0.0547
     90  CG       260.8370  215.9300  154.5650 C.ar   88  PHE88      -0.0202
     91  CD1      260.2050  215.6740  153.3680 C.ar   88  PHE88      -0.0042
     92  CD2      261.8610  215.1070  154.9640 C.ar   88  PHE88      -0.0042
     93  CE1      260.5910  214.6140  152.5810 C.ar   88  PHE88      -0.0003
     94  CE2      262.2530  214.0480  154.1790 C.ar   88  PHE88      -0.0003
     95  CZ       261.6180  213.8020  152.9850 C.ar   88  PHE88      -0.0000
     96  N        259.5950  215.6150  158.2660 N.am   89  GLN89      -0.1979
     97  CA       259.6870  214.4040  159.0720 C.3    89  GLN89       0.1601
     98  C        258.3440  213.7000  159.1770 C.2    89  GLN89       0.2287
     99  O        258.2670  212.4730  159.0470 O.2    89  GLN89      -0.2864
    100  CB       260.2150  214.7130  160.4650 C.3    89  GLN89       0.0394
    101  CG       260.2700  213.4730  161.3270 C.3    89  GLN89       0.0908
    102  CD       260.9950  213.6870  162.6230 C.2    89  GLN89       0.2608
    103  OE1      261.5890  214.7350  162.8480 O.2    89  GLN89      -0.2717
    104  NE2      260.9510  212.6920  163.4910 N.am   89  GLN89      -0.0878
    105  N        257.1720  212.0850  155.8410 N.3    92  ALA92      -0.1231
    106  CA       258.1080  211.0150  155.5420 C.3    92  ALA92       0.1694
    107  C        257.7410  209.7780  156.3350 C.2    92  ALA92       0.2591
    108  O        257.2860  208.7790  155.7750 O.2    92  ALA92      -0.2718
    109  CB       259.5400  211.4300  155.8680 C.3    92  ALA92       0.0304
    110  N        257.9150  209.8580  157.6490 N.am   93  MET93      -0.1979
    111  CA       257.7020  208.7010  158.5020 C.3    93  MET93       0.1605
    112  C        256.2620  208.2210  158.4570 C.2    93  MET93       0.2287
    113  O        256.0030  207.0390  158.6960 O.2    93  MET93      -0.2864
    114  CB       258.0920  209.0530  159.9300 C.3    93  MET93       0.0413
    115  CG       258.2300  207.8670  160.8360 C.3    93  MET93       0.0598
    116  SD       259.6530  206.9010  160.3280 S.3    93  MET93      -0.1393
    117  CE       260.9530  208.0240  160.7940 C.3    93  MET93       0.0692
@<TRIPOS>BOND
     1    68    67   ar
     2    68    66   ar
     3    93    95   ar
     4    93    91   ar
     5    67    65   ar
     6    66    64   ar
     7    95    94   ar
     8    91    90   ar
     9    65    63   ar
    10    64    63   ar
    11    94    92   ar
    12    63    62    1
    13    90    92   ar
    14    90    89    1
    15    89    86    1
    16   106   105    1
    17   106   109    1
    18   106   107    1
    19   108   107    2
    20    62    59    1
    21    86    87    1
    22    86    85    1
    23   107   110   am
    24    54    53    2
    25    88    87    2
    26    55    52    1
    27    55    56    1
    28    59    58    1
    29    59    60    1
    30    87    96   am
    31    53    58   am
    32    53    52    1
    33    52    51    1
    34    56    57    1
    35   110   111    1
    36    60    61    2
    37    96    97    1
    38   112   111    1
    39   112   113    2
    40   111   114    1
    41    77    78    1
    42    80    79    2
    43    78    79    1
    44    78    81    1
    45    51    57    1
    46    51    45   am
    47    99    98    2
    48    97    98    1
    49    97   100    1
    50    82    81    1
    51    82    84    1
    52    46    45    2
    53    83    81    1
    54    38    37    2
    55    45    44    1
    56   114   115    1
    57    41    39    1
    58   116   117    1
    59   116   115    1
    60    39    36    1
    61    39    40    1
    62   100   101    1
    63    36    37    1
    64    36    35    1
    65    72    71    2
    66    44    43    1
    67    44    47    1
    68   101   102    1
    69    42    40    1
    70    69    70    1
    71    71    70    1
    72    70    73    1
    73    47    48    1
    74    14    12   ar
    75    14    13   ar
    76    48    49    1
    77    48    50    1
    78   102   103    2
    79   102   104   am
    80    12    10   ar
    81    13    11   ar
    82    73    74    1
    83    73    75    1
    84    33    32    1
    85    10     9   ar
    86    10     8   ar
    87    74    76    1
    88    11     8   ar
    89    31    30    2
    90     9     7   ar
    91     8     6   ar
    92    30    29    1
    93    32    34    1
    94    32    29    1
    95    29    28    1
    96     7     6   ar
    97     6     5    1
    98     1     2    1
    99     2     5    1
   100     2     3    1
   101    26    25    2
   102     4     3    2
   103    25    24    1
   104    24    27    1
   105    24    23    1
   106    18    17    2
   107    22    20   ar
   108    20    21   ar
   109    20    19    1
   110    17    23   am
   111    17    16    1
   112    19    16    1
   113    16    15    1
