@<TRIPOS>MOLECULE
tmp/6igzR01.pdb
 156 150 0 0 0
SMALL
GASTEIGER

@<TRIPOS>ATOM
      1  N        196.2860  231.6470  130.3590 N.3   151  LEU151     -0.1245
      2  CA       197.2360  232.7310  130.1660 C.3   151  LEU151      0.1561
      3  C        196.6530  234.0540  130.6320 C.2   151  LEU151      0.2260
      4  O        197.3400  234.8460  131.2850 O.2   151  LEU151     -0.2867
      5  CB       197.6470  232.8100  128.7000 C.3   151  LEU151      0.0270
      6  CG       198.5690  233.9730  128.3620 C.3   151  LEU151      0.0019
      7  CD1      199.8480  233.8510  129.1440 C.3   151  LEU151      0.0001
      8  CD2      198.8560  233.9890  126.8830 C.3   151  LEU151      0.0001
      9  N        196.8200  234.1070  134.3680 N.3   154  PHE154     -0.1227
     10  CA       198.2210  234.2410  134.7250 C.3   154  PHE154      0.1736
     11  C        198.7610  235.6010  134.3280 C.2   154  PHE154      0.2595
     12  O        199.6930  236.1060  134.9590 O.2   154  PHE154     -0.2718
     13  CB       199.0230  233.1180  134.0780 C.3   154  PHE154      0.0547
     14  CG       200.4940  233.2320  134.2820 C.ar  154  PHE154     -0.0202
     15  CD1      201.0650  232.8990  135.4860 C.ar  154  PHE154     -0.0042
     16  CD2      201.3110  233.6550  133.2600 C.ar  154  PHE154     -0.0042
     17  CE1      202.4210  233.0040  135.6720 C.ar  154  PHE154     -0.0003
     18  CE2      202.6650  233.7570  133.4390 C.ar  154  PHE154     -0.0003
     19  CZ       203.2200  233.4320  134.6480 C.ar  154  PHE154     -0.0000
     20  N        198.1810  236.2210  133.3050 N.am  155  ALA155     -0.1980
     21  CA       198.5500  237.5930  133.0000 C.3   155  ALA155      0.1597
     22  C        198.0830  238.5330  134.0970 C.2   155  ALA155      0.2287
     23  O        198.8260  239.4270  134.5130 O.2   155  ALA155     -0.2864
     24  CB       197.9670  238.0100  131.6540 C.3   155  ALA155      0.0319
     25  N        197.8220  238.2400  137.2200 N.3   157  VAL157     -0.1231
     26  CA       198.7320  238.2950  138.3590 C.3   157  VAL157      0.1692
     27  C        199.8890  239.2250  138.0510 C.2   157  VAL157      0.2592
     28  O        200.3570  239.9730  138.9170 O.2   157  VAL157     -0.2718
     29  CB       199.2340  236.8860  138.7160 C.3   157  VAL157      0.0266
     30  CG1      200.1050  236.9430  139.9520 C.3   157  VAL157      0.0020
     31  CG2      198.0800  235.9430  138.8940 C.3   157  VAL157      0.0020
     32  N        200.3620  239.1970  136.8060 N.am  158  GLY158     -0.1957
     33  CA       201.3990  240.1110  136.3790 C.3   158  GLY158      0.1869
     34  C        201.0110  241.5670  136.4850 C.2   158  GLY158      0.2309
     35  O        201.8820  242.4330  136.4310 O.2   158  GLY158     -0.2863
     36  N        200.9630  241.8220  141.0980 N.3   161  LEU161     -0.1231
     37  CA       202.2170  241.7720  141.8420 C.3   161  LEU161      0.1693
     38  C        203.1970  242.8430  141.3910 C.2   161  LEU161      0.2591
     39  O        204.0730  243.2360  142.1680 O.2   161  LEU161     -0.2718
     40  CB       202.8540  240.3890  141.7530 C.3   161  LEU161      0.0284
     41  CG       202.1360  239.3690  142.6300 C.3   161  LEU161      0.0019
     42  CD1      202.7030  237.9920  142.4480 C.3   161  LEU161      0.0001
     43  CD2      202.2490  239.7690  144.0830 C.3   161  LEU161      0.0001
     44  N        203.0870  243.3280  140.1560 N.am  162  GLN162     -0.1979
     45  CA       203.8930  244.4780  139.7730 C.3   162  GLN162      0.1601
     46  C        203.4640  245.7110  140.5480 C.2   162  GLN162      0.2287
     47  O        204.2650  246.3390  141.2460 O.2   162  GLN162     -0.2864
     48  CB       203.7750  244.7380  138.2800 C.3   162  GLN162      0.0394
     49  CG       204.4050  243.7090  137.4110 C.3   162  GLN162      0.0908
     50  CD       204.1600  244.0210  135.9630 C.2   162  GLN162      0.2608
     51  OE1      203.2320  244.7530  135.6300 O.2   162  GLN162     -0.2717
     52  NE2      204.9650  243.4560  135.0920 N.am  162  GLN162     -0.0878
     53  N        204.0000  245.7360  144.1260 N.3   165  ALA165     -0.1245
     54  CA       205.3900  246.0590  144.3720 C.3   165  ALA165      0.1562
     55  C        205.6050  247.5420  144.1110 C.2   165  ALA165      0.2260
     56  O        204.6780  248.2830  143.7740 O.2   165  ALA165     -0.2867
     57  CB       206.3030  245.2070  143.4980 C.3   165  ALA165      0.0290
     58  N        206.8220  248.7370  141.6440 N.3   167  GLY167     -0.1225
     59  CA       206.4260  248.9770  140.2720 C.3   167  GLY167      0.1811
     60  C        205.0100  249.5150  140.1680 C.2   167  GLY167      0.2280
     61  O        204.1710  249.3120  141.0460 O.2   167  GLY167     -0.2866
     62  N        201.1760  248.2990  134.3620 N.3   170  PRO170     -0.2116
     63  CA       202.0660  247.6360  133.3950 C.3   170  PRO170      0.1372
     64  C        202.3670  248.4530  132.1560 C.2   170  PRO170      0.2244
     65  O        203.4950  248.3970  131.6530 O.2   170  PRO170     -0.2868
     66  CB       201.2950  246.3590  133.0470 C.3   170  PRO170      0.0268
     67  CG       199.8730  246.7470  133.2240 C.3   170  PRO170      0.0207
     68  CD       199.8440  247.6780  134.3980 C.3   170  PRO170      0.0892
     69  N        205.2280  250.4500  132.5050 N.3   173  CYS173     -0.1221
     70  CA       206.2590  249.4690  132.8210 C.3   173  CYS173      0.1808
     71  C        206.6850  248.7130  131.5730 C.2   173  CYS173      0.2601
     72  O        207.8800  248.5830  131.2910 O.2   173  CYS173     -0.2717
     73  CB       205.7640  248.5000  133.8910 C.3   173  CYS173      0.0970
     74  SG       205.5390  249.2330  135.5150 S.3   173  CYS173     -0.0800
     75  N        205.7110  248.2210  130.8060 N.am  174  TRP174     -0.1976
     76  CA       206.0070  247.6290  129.5070 C.3   174  TRP174      0.1640
     77  C        206.9350  248.5290  128.7110 C.2   174  TRP174      0.2290
     78  O        207.9560  248.0820  128.1790 O.2   174  TRP174     -0.2864
     79  CB       204.7100  247.4000  128.7330 C.3   174  TRP174      0.0576
     80  CG       204.9140  246.8030  127.3830 C.ar  174  TRP174      0.0006
     81  CD1      204.8640  245.4850  127.0550 C.ar  174  TRP174      0.0946
     82  CD2      205.2370  247.5030  126.1800 C.ar  174  TRP174      0.0152
     83  NE1      205.1110  245.3190  125.7180 N.ar  174  TRP174     -0.2442
     84  CE2      205.3500  246.5460  125.1590 C.ar  174  TRP174      0.0810
     85  CE3      205.4350  248.8490  125.8660 C.ar  174  TRP174      0.0012
     86  CZ2      205.6540  246.8910  123.8470 C.ar  174  TRP174      0.0191
     87  CZ3      205.7400  249.1900  124.5700 C.ar  174  TRP174      0.0001
     88  CH2      205.8440  248.2170  123.5730 C.ar  174  TRP174      0.0015
     89  N        208.5580  251.1340  130.0820 N.3   176  GLU176     -0.1231
     90  CA       209.7110  251.3610  130.9410 C.3   176  GLU176      0.1699
     91  C        210.7550  250.2730  130.7430 C.2   176  GLU176      0.2592
     92  O        211.9340  250.5620  130.5130 O.2   176  GLU176     -0.2718
     93  CB       209.2630  251.4200  132.3950 C.3   176  GLU176      0.0402
     94  CG       210.3630  251.7190  133.3720 C.3   176  GLU176      0.1161
     95  CD       209.8480  251.7790  134.7890 C.2   176  GLU176      0.3649
     96  OE1      208.6440  251.5270  134.9930 O.co2 176  GLU176     -0.2457
     97  OE2      210.6410  252.0810  135.7000 O.co2 176  GLU176     -0.2457
     98  N        210.3350  249.0090  130.8120 N.am  177  HIS177     -0.1976
     99  CA       211.2690  247.9090  130.6030 C.3   177  HIS177      0.1656
    100  C        211.8940  247.9830  129.2200 C.2   177  HIS177      0.2291
    101  O        213.1200  247.9610  129.0810 O.2   177  HIS177     -0.2864
    102  CB       210.5660  246.5690  130.8100 C.3   177  HIS177      0.0771
    103  CG       211.4550  245.3830  130.6130 C.ar  177  HIS177      0.0820
    104  ND1      212.6020  245.1810  131.3480 N.ar  177  HIS177     -0.2267
    105  CD2      211.3530  244.3220  129.7790 C.ar  177  HIS177      0.1154
    106  CE1      213.1770  244.0560  130.9650 C.ar  177  HIS177      0.1986
    107  NE2      212.4380  243.5140  130.0150 N.ar  177  HIS177     -0.2212
    108  N        215.2170  247.7890  134.8050 N.3   184  ALA184     -0.1231
    109  CA       213.7860  247.5530  134.9550 C.3   184  ALA184      0.1694
    110  C        213.5890  246.0410  135.0130 C.2   184  ALA184      0.2592
    111  O        213.6590  245.3540  133.9910 O.2   184  ALA184     -0.2718
    112  CB       213.0020  248.1870  133.8110 C.3   184  ALA184      0.0304
    113  N        213.3200  245.5370  136.2120 N.am  185  ASN185     -0.1960
    114  CA       213.1540  244.1140  136.4660 C.3   185  ASN185      0.1819
    115  C        212.3770  243.9510  137.7570 C.2   185  ASN185      0.2621
    116  O        212.1440  244.9120  138.4880 O.2   185  ASN185     -0.2715
    117  CB       214.4900  243.3850  136.5520 C.3   185  ASN185      0.1195
    118  CG       215.1590  243.2720  135.2250 C.2   185  ASN185      0.2630
    119  OD1      216.3380  243.5660  135.0840 O.2   185  ASN185     -0.2716
    120  ND2      214.4000  242.8580  134.2220 N.am  185  ASN185     -0.0877
    121  N        211.9370  242.7250  138.0170 N.am  186  PHE186     -0.1974
    122  CA       211.4040  242.4620  139.3430 C.3   186  PHE186      0.1639
    123  C        212.4510  242.7320  140.4120 C.2   186  PHE186      0.2290
    124  O        212.1170  243.2090  141.5010 O.2   186  PHE186     -0.2864
    125  CB       210.8880  241.0340  139.4320 C.3   186  PHE186      0.0560
    126  CG       211.9240  239.9960  139.1770 C.ar  186  PHE186     -0.0200
    127  CD1      212.1580  239.5460  137.8990 C.ar  186  PHE186     -0.0042
    128  CD2      212.6550  239.4600  140.2160 C.ar  186  PHE186     -0.0042
    129  CE1      213.1000  238.5850  137.6600 C.ar  186  PHE186     -0.0003
    130  CE2      213.5980  238.4990  139.9800 C.ar  186  PHE186     -0.0003
    131  CZ       213.8210  238.0620  138.7000 C.ar  186  PHE186     -0.0000
    132  N        215.2530  244.9100  140.0820 N.3   188  THR188     -0.1203
    133  CA       215.5670  246.3310  140.0730 C.3   188  THR188      0.1994
    134  C        214.2850  247.1430  140.1620 C.2   188  THR188      0.2618
    135  O        213.3770  246.9610  139.3500 O.2   188  THR188     -0.2717
    136  CB       216.3320  246.6910  138.8070 C.3   188  THR188      0.1784
    137  OG1      215.6000  246.2230  137.6680 O.3   188  THR188     -0.2211
    138  CG2      217.7010  246.0610  138.8330 C.3   188  THR188      0.0376
    139  N        214.2120  248.0260  141.1550 N.am  189  ASN189     -0.1960
    140  CA       213.0700  248.9120  141.3520 C.3   189  ASN189      0.1819
    141  C        211.8340  248.1380  141.7870 C.2   189  ASN189      0.2621
    142  O        210.8730  248.7300  142.2820 O.2   189  ASN189     -0.2715
    143  CB       212.7460  249.7030  140.0780 C.3   189  ASN189      0.1195
    144  CG       213.7830  250.7560  139.7550 C.2   189  ASN189      0.2630
    145  OD1      214.4920  251.2420  140.6360 O.2   189  ASN189     -0.2716
    146  ND2      213.8730  251.1190  138.4820 N.am  189  ASN189     -0.0877
    147  N        211.8490  246.8220  141.6190 N.am  190  GLY190     -0.1954
    148  CA       210.7350  246.0110  142.0520 C.3   190  GLY190      0.1869
    149  C        210.9180  245.5910  143.4880 C.2   190  GLY190      0.2309
    150  O        209.9420  245.3550  144.2050 O.2   190  GLY190     -0.2863
    151  N        211.6250  242.9320  144.5670 N.3   192  SER192     -0.1217
    152  CA       211.0430  241.6070  144.7060 C.3   192  SER192      0.1889
    153  C        212.0510  240.5870  145.2070 C.2   192  SER192      0.2288
    154  O        211.6640  239.5890  145.8220 O.2   192  SER192     -0.2866
    155  CB       210.4800  241.1500  143.3670 C.3   192  SER192      0.2089
    156  OG       210.0470  239.8160  143.4580 O.3   192  SER192     -0.2183
@<TRIPOS>BOND
     1    88    86   ar
     2    88    87   ar
     3    86    84   ar
     4    87    85   ar
     5    84    83   ar
     6    84    82   ar
     7    83    81   ar
     8    85    82   ar
     9    82    80   ar
    10     8     6    1
    11    81    80   ar
    12    80    79    1
    13    78    77    2
    14     6     5    1
    15     6     7    1
    16     5     2    1
    17    77    76    1
    18    79    76    1
    19   101   100    2
    20   100    99    1
    21    76    75    1
    22   105   107   ar
    23   105   103   ar
    24   107   106   ar
    25    89    90    1
    26     2     1    1
    27     2     3    1
    28    92    91    2
    29    99   102    1
    30    99    98    1
    31   103   102    1
    32   103   104   ar
    33     3     4    2
    34    91    98   am
    35    91    90    1
    36    75    71   am
    37    90    93    1
    38   106   104   ar
    39    72    71    2
    40    71    70    1
    41    65    64    2
    42    24    21    1
    43    64    63    1
    44    93    94    1
    45    69    70    1
    46    70    73    1
    47    21    20    1
    48    21    22    1
    49    66    67    1
    50    66    63    1
    51    67    68    1
    52    16    18   ar
    53    16    14   ar
    54    20    11   am
    55    94    95    1
    56    63    62    1
    57    18    19   ar
    58   112   109    1
    59    73    74    1
    60   111   110    2
    61    13    14    1
    62    13    10    1
    63    22    23    2
    64   120   118   am
    65    14    15   ar
    66    11    10    1
    67    11    12    2
    68    62    68    1
    69     9    10    1
    70    19    17   ar
    71    95    96   ar
    72    95    97   ar
    73   108   109    1
    74   109   110    1
    75   110   113   am
    76   119   118    2
    77    52    50   am
    78   118   117    1
    79    15    17   ar
    80    51    50    2
    81    50    49    1
    82   113   114    1
    83    33    34    1
    84    33    32    1
    85    35    34    2
    86   114   117    1
    87   114   115    1
    88    32    27   am
    89    25    26    1
    90    49    48    1
    91   129   127   ar
    92   129   131   ar
    93   137   136    1
    94   115   121   am
    95   115   116    2
    96   127   126   ar
    97   121   122    1
    98    27    26    1
    99    27    28    2
   100    48    45    1
   101    26    29    1
   102   146   144   am
   103   131   130   ar
   104    29    31    1
   105    29    30    1
   106   136   138    1
   107   136   133    1
   108   126   125    1
   109   126   128   ar
   110   122   125    1
   111   122   123    1
   112   135   134    2
   113   144   143    1
   114   144   145    2
   115    45    44    1
   116    45    46    1
   117   130   128   ar
   118   133   132    1
   119   133   134    1
   120   143   140    1
   121    44    38   am
   122   134   139   am
   123    60    59    1
   124    60    61    2
   125    59    58    1
   126   123   124    2
   127    46    47    2
   128    36    37    1
   129   139   140    1
   130   140   141    1
   131    38    37    1
   132    38    39    2
   133   147   141   am
   134   147   148    1
   135    40    37    1
   136    40    41    1
   137   141   142    2
   138   148   149    1
   139    42    41    1
   140    41    43    1
   141   155   156    1
   142   155   152    1
   143   149   150    2
   144    57    54    1
   145    56    55    2
   146    55    54    1
   147    53    54    1
   148   151   152    1
   149   152   153    1
   150   153   154    2
