@<TRIPOS>MOLECULE
tmp/6igzQ21.pdb
 153 148 0 0 0
SMALL
GASTEIGER

@<TRIPOS>ATOM
      1  N        275.0650  215.0870  174.2270 N.3    69  TRP69      -0.1227
      2  CA       273.9390  215.3320  173.3420 C.3    69  TRP69       0.1737
      3  C        272.7820  215.8680  174.1640 C.2    69  TRP69       0.2595
      4  O        271.9670  215.1280  174.6980 O.2    69  TRP69      -0.2718
      5  CB       273.5850  214.0180  172.6580 C.3    69  TRP69       0.0564
      6  CG       273.4180  212.9270  173.6830 C.ar   69  TRP69       0.0003
      7  CD1      274.4140  212.2610  174.3290 C.ar   69  TRP69       0.0946
      8  CD2      272.1920  212.3780  174.1730 C.ar   69  TRP69       0.0152
      9  NE1      273.8900  211.3500  175.2050 N.ar   69  TRP69      -0.2442
     10  CE2      272.5260  211.3980  175.1260 C.ar   69  TRP69       0.0810
     11  CE3      270.8420  212.6230  173.9030 C.ar   69  TRP69       0.0012
     12  CZ2      271.5660  210.6610  175.8010 C.ar   69  TRP69       0.0191
     13  CZ3      269.8930  211.8990  174.5820 C.ar   69  TRP69       0.0001
     14  CH2      270.2560  210.9260  175.5160 C.ar   69  TRP69       0.0015
     15  N        272.7200  217.1870  174.2870 N.am   70  TYR70      -0.1962
     16  CA       271.4770  217.9350  174.3490 C.3    70  TYR70       0.1771
     17  C        271.3420  218.9010  173.1870 C.2    70  TYR70       0.2620
     18  O        270.4260  219.7290  173.1820 O.2    70  TYR70      -0.2715
     19  CB       271.3320  218.6090  175.7040 C.3    70  TYR70       0.0574
     20  CG       271.0400  217.5530  176.7390 C.ar   70  TYR70      -0.0198
     21  CD1      270.2130  216.4920  176.4320 C.ar   70  TYR70      -0.0009
     22  CD2      271.5880  217.5980  178.0020 C.ar   70  TYR70      -0.0009
     23  CE1      269.9490  215.5120  177.3350 C.ar   70  TYR70       0.0417
     24  CE2      271.3110  216.6120  178.9200 C.ar   70  TYR70       0.0417
     25  CZ       270.4830  215.5760  178.5760 C.ar   70  TYR70       0.1957
     26  OH       270.1910  214.5860  179.4720 O.3    70  TYR70      -0.2866
     27  N        272.2580  218.8460  172.2310 N.am   71  ASP71      -0.1957
     28  CA       272.5150  219.9690  171.3440 C.3    71  ASP71       0.1840
     29  C        271.4680  220.0920  170.2480 C.2    71  ASP71       0.2621
     30  O        271.2930  219.1870  169.4280 O.2    71  ASP71      -0.2715
     31  CB       273.9060  219.8240  170.7380 C.3    71  ASP71       0.1450
     32  CG       274.1310  218.4610  170.1230 C.2    71  ASP71       0.3671
     33  OD1      273.2640  217.5790  170.2970 O.co2  71  ASP71      -0.2456
     34  OD2      275.1820  218.2690  169.4780 O.co2  71  ASP71      -0.2456
     35  N        270.7630  221.2150  170.2530 N.am   72  ALA72      -0.1977
     36  CA       270.3040  221.7830  168.9910 C.3    72  ALA72       0.1597
     37  C        271.4700  222.3410  168.1840 C.2    72  ALA72       0.2287
     38  O        271.5900  221.9940  166.9950 O.2    72  ALA72      -0.2864
     39  CB       269.2320  222.8410  169.2520 C.3    72  ALA72       0.0319
     40  N        263.8940  224.3720  161.4020 N.3    82  ILE82      -0.1245
     41  CA       263.5800  223.2030  162.2100 C.3    82  ILE82       0.1561
     42  C        262.2340  222.7330  161.7090 C.2    82  ILE82       0.2260
     43  O        262.0860  221.6170  161.2010 O.2    82  ILE82      -0.2867
     44  CB       263.5130  223.5100  163.7090 C.3    82  ILE82       0.0252
     45  CG1      264.8210  224.1070  164.1930 C.3    82  ILE82       0.0019
     46  CG2      263.2110  222.2460  164.4760 C.3    82  ILE82       0.0019
     47  CD1      264.7540  225.5940  164.2800 C.3    82  ILE82       0.0001
     48  N        262.2380  220.8240  158.8310 N.3    85  ILE85      -0.1231
     49  CA       262.4850  219.3870  158.8850 C.3    85  ILE85       0.1692
     50  C        261.2650  218.6640  159.4310 C.2    85  ILE85       0.2591
     51  O        260.7800  217.6940  158.8360 O.2    85  ILE85      -0.2718
     52  CB       263.7240  219.0630  159.7340 C.3    85  ILE85       0.0266
     53  CG1      264.9580  219.7920  159.2350 C.3    85  ILE85       0.0019
     54  CG2      263.9960  217.5810  159.7020 C.3    85  ILE85       0.0020
     55  CD1      265.3980  220.8630  160.1690 C.3    85  ILE85       0.0001
     56  N        260.7610  219.1200  160.5810 N.am   86  VAL86      -0.1980
     57  CA       259.6510  218.4420  161.2440 C.3    86  VAL86       0.1595
     58  C        258.4580  218.3300  160.3100 C.2    86  VAL86       0.2287
     59  O        257.7440  217.3200  160.3080 O.2    86  VAL86      -0.2864
     60  CB       259.2840  219.1820  162.5380 C.3    86  VAL86       0.0276
     61  CG1      258.0960  218.5350  163.1980 C.3    86  VAL86       0.0022
     62  CG2      260.4630  219.1910  163.4660 C.3    86  VAL86       0.0022
     63  N        259.5950  215.6150  158.2660 N.3    89  GLN89      -0.1245
     64  CA       259.6870  214.4040  159.0720 C.3    89  GLN89       0.1566
     65  C        258.3440  213.7000  159.1770 C.2    89  GLN89       0.2260
     66  O        258.2670  212.4730  159.0470 O.2    89  GLN89      -0.2867
     67  CB       260.2150  214.7130  160.4650 C.3    89  GLN89       0.0367
     68  CG       260.2700  213.4730  161.3270 C.3    89  GLN89       0.0905
     69  CD       260.9950  213.6870  162.6230 C.2    89  GLN89       0.2608
     70  OE1      261.5890  214.7350  162.8480 O.2    89  GLN89      -0.2717
     71  NE2      260.9510  212.6920  163.4910 N.am   89  GLN89      -0.0878
     72  N        270.9600  202.2390  176.2790 N.3   159  PHE159     -0.1241
     73  CA       270.5780  203.6210  176.0250 C.3   159  PHE159      0.1605
     74  C        270.1490  204.3220  177.3010 C.2   159  PHE159      0.2264
     75  O        270.5570  205.4590  177.5630 O.2   159  PHE159     -0.2867
     76  CB       269.4640  203.6840  174.9930 C.3   159  PHE159      0.0534
     77  CG       268.8820  205.0500  174.8370 C.ar  159  PHE159     -0.0203
     78  CD1      269.5550  206.0240  174.1330 C.ar  159  PHE159     -0.0042
     79  CD2      267.6630  205.3610  175.4000 C.ar  159  PHE159     -0.0042
     80  CE1      269.0210  207.2810  173.9940 C.ar  159  PHE159     -0.0003
     81  CE2      267.1270  206.6160  175.2650 C.ar  159  PHE159     -0.0003
     82  CZ       267.8060  207.5760  174.5610 C.ar  159  PHE159     -0.0000
     83  N        270.9640  208.4120  179.1650 N.3   163  VAL163     -0.1245
     84  CA       270.0880  209.3860  179.7910 C.3   163  VAL163      0.1561
     85  C        270.5570  209.6390  181.2130 C.2   163  VAL163      0.2260
     86  O        271.0410  210.7290  181.5330 O.2   163  VAL163     -0.2867
     87  CB       268.6340  208.9040  179.7770 C.3   163  VAL163      0.0252
     88  CG1      267.7630  209.8840  180.5180 C.3   163  VAL163      0.0019
     89  CG2      268.1650  208.7310  178.3560 C.3   163  VAL163      0.0019
     90  N        272.2240  212.7430  183.0650 N.3   167  GLN167     -0.1245
     91  CA       271.3870  213.5580  183.9370 C.3   167  GLN167      0.1566
     92  C        272.2350  214.2140  185.0110 C.2   167  GLN167      0.2260
     93  O        272.4730  215.4240  184.9810 O.2   167  GLN167     -0.2867
     94  CB       270.3130  212.7080  184.6110 C.3   167  GLN167      0.0367
     95  CG       269.2170  212.1660  183.7160 C.3   167  GLN167      0.0905
     96  CD       268.2260  213.2120  183.2900 C.2   167  GLN167      0.2608
     97  OE1      267.8370  214.0650  184.0800 O.2   167  GLN167     -0.2717
     98  NE2      267.7910  213.1430  182.0450 N.am  167  GLN167     -0.0878
     99  N        272.4570  219.0880  184.5080 N.3   207  ILE207     -0.1231
    100  CA       271.8590  219.7860  183.3740 C.3   207  ILE207      0.1678
    101  C        270.7230  220.6640  183.8880 C.2   207  ILE207      0.2434
    102  O        269.9220  220.2260  184.7220 O.2   207  ILE207     -0.2733
    103  CB       271.3750  218.8050  182.2970 C.3   207  ILE207      0.0265
    104  CG1      270.2230  217.9560  182.8170 C.3   207  ILE207      0.0019
    105  CG2      272.5180  217.9040  181.8960 C.3   207  ILE207      0.0020
    106  CD1      269.5040  217.1880  181.7500 C.3   207  ILE207      0.0001
    107  N        270.6460  221.9110  183.4680 N.am  208  PRO208     -0.2729
    108  CA       269.6060  222.7920  183.9970 C.3   208  PRO208      0.1401
    109  C        268.3100  222.6980  183.2160 C.2   208  PRO208      0.2269
    110  O        268.2150  221.9650  182.2270 O.2   208  PRO208     -0.2865
    111  CB       270.2350  224.1800  183.8590 C.3   208  PRO208      0.0296
    112  CG       271.0830  224.0510  182.6350 C.3   208  PRO208      0.0237
    113  CD       271.5660  222.6230  182.5670 C.3   208  PRO208      0.0939
    114  N        266.4020  225.5820  178.7570 N.3   211  VAL211     -0.1245
    115  CA       267.4780  225.7260  177.7880 C.3   211  VAL211      0.1561
    116  C        266.9850  226.6250  176.6650 C.2   211  VAL211      0.2260
    117  O        265.9060  226.4050  176.1040 O.2   211  VAL211     -0.2867
    118  CB       267.9360  224.3570  177.2620 C.3   211  VAL211      0.0252
    119  CG1      266.7930  223.6280  176.6140 C.3   211  VAL211      0.0019
    120  CG2      269.0720  224.5290  176.2790 C.3   211  VAL211      0.0019
    121  N        266.4830  227.9980  173.2210 N.3   213  PHE213     -0.1241
    122  CA       266.5880  227.6780  171.8030 C.3   213  PHE213      0.1605
    123  C        265.6380  228.5740  171.0250 C.2   213  PHE213      0.2264
    124  O        264.4170  228.4480  171.1530 O.2   213  PHE213     -0.2867
    125  CB       266.2910  226.2030  171.5590 C.3   213  PHE213      0.0534
    126  CG       266.1590  225.8460  170.1230 C.ar  213  PHE213     -0.0203
    127  CD1      267.2600  225.8240  169.3030 C.ar  213  PHE213     -0.0042
    128  CD2      264.9390  225.4830  169.6060 C.ar  213  PHE213     -0.0042
    129  CE1      267.1370  225.4840  167.9840 C.ar  213  PHE213     -0.0003
    130  CE2      264.8150  225.1390  168.2960 C.ar  213  PHE213     -0.0003
    131  CZ       265.9150  225.1380  167.4820 C.ar  213  PHE213     -0.0000
    132  N        261.2920  225.4760  176.2690 N.3   218  ILE218     -0.1245
    133  CA       261.8120  224.1080  176.3350 C.3   218  ILE218      0.1561
    134  C        262.1810  223.7900  177.7800 C.2   218  ILE218      0.2260
    135  O        263.3620  223.8490  178.1490 O.2   218  ILE218     -0.2867
    136  CB       263.0050  223.9010  175.3850 C.3   218  ILE218      0.0252
    137  CG1      262.5780  224.1540  173.9470 C.3   218  ILE218      0.0019
    138  CG2      263.5040  222.4750  175.4450 C.3   218  ILE218      0.0019
    139  CD1      263.7190  224.1370  172.9850 C.3   218  ILE218      0.0001
    140  N        262.4330  221.1010  179.6400 N.3   220  THR220     -0.1204
    141  CA       263.3490  219.9650  179.7290 C.3   220  THR220      0.1979
    142  C        263.8830  219.6980  181.1420 C.2   220  THR220      0.2459
    143  O        265.0860  219.8390  181.3900 O.2   220  THR220     -0.2732
    144  CB       264.4930  220.1060  178.7300 C.3   220  THR220      0.1783
    145  OG1      265.3640  218.9780  178.8560 O.3   220  THR220     -0.2211
    146  CG2      265.2890  221.3980  178.9190 C.3   220  THR220      0.0376
    147  N        263.0330  219.2830  182.0690 N.am  221  PRO221     -0.2728
    148  CA       263.5060  218.9800  183.4180 C.3   221  PRO221      0.1401
    149  C        264.2080  217.6320  183.4640 C.2   221  PRO221      0.2269
    150  O        264.2220  216.8640  182.5040 O.2   221  PRO221     -0.2865
    151  CB       262.2170  218.9410  184.2320 C.3   221  PRO221      0.0296
    152  CG       261.2150  218.4510  183.2610 C.3   221  PRO221      0.0237
    153  CD       261.5870  219.0470  181.9340 C.3   221  PRO221      0.0939
@<TRIPOS>BOND
     1    63    64    1
     2    48    49    1
     3    51    50    2
     4    49    50    1
     5    49    52    1
     6    66    65    2
     7    64    65    1
     8    64    67    1
     9    53    52    1
    10    53    55    1
    11    50    56   am
    12    54    52    1
    13    59    58    2
    14    58    57    1
    15    67    68    1
    16    56    57    1
    17    43    42    2
    18    57    60    1
    19    68    69    1
    20    40    41    1
    21    42    41    1
    22    41    44    1
    23    60    61    1
    24    60    62    1
    25    69    70    2
    26    69    71   am
    27    44    45    1
    28    44    46    1
    29    45    47    1
    30    38    37    2
    31   131   129   ar
    32   131   130   ar
    33   129   127   ar
    34    37    36    1
    35   130   128   ar
    36    36    39    1
    37    36    35    1
    38   127   126   ar
    39    30    29    2
    40    34    32   ar
    41   128   126   ar
    42    32    33   ar
    43    32    31    1
    44   126   125    1
    45    29    35   am
    46    29    28    1
    47    31    28    1
    48   123   124    2
    49   123   122    1
    50    28    27    1
    51   125   122    1
    52   122   121    1
    53    27    17   am
    54     5     2    1
    55     5     6    1
    56   139   137    1
    57    18    17    2
    58    17    16    1
    59     2     3    1
    60     2     1    1
    61     6     8   ar
    62     6     7   ar
    63    11     8   ar
    64    11    13   ar
    65   137   136    1
    66    80    78   ar
    67    80    82   ar
    68    78    77   ar
    69     3    15   am
    70     3     4    2
    71     8    10   ar
    72    15    16    1
    73     7     9   ar
    74    16    19    1
    75    82    81   ar
    76    13    14   ar
    77    77    76    1
    78    77    79   ar
    79    76    73    1
    80    10     9   ar
    81    10    12   ar
    82    81    79   ar
    83   136   138    1
    84   136   133    1
    85    14    12   ar
    86    19    20    1
    87    73    72    1
    88    73    74    1
    89   117   116    2
    90   132   133    1
    91   120   118    1
    92   133   134    1
    93    21    20   ar
    94    21    23   ar
    95   119   118    1
    96   116   115    1
    97    20    22   ar
    98   118   115    1
    99    74    75    2
   100    23    25   ar
   101   134   135    2
   102   115   114    1
   103    22    24   ar
   104    89    87    1
   105    25    24   ar
   106    25    26    1
   107   144   145    1
   108   144   146    1
   109   144   141    1
   110    83    84    1
   111   140   141    1
   112   141   142    1
   113    87    84    1
   114    87    88    1
   115    84    85    1
   116   142   143    2
   117   142   147   am
   118    85    86    2
   119   106   104    1
   120   105   103    1
   121   153   147    1
   122   153   152    1
   123    98    96   am
   124   147   148    1
   125   110   109    2
   126   103   104    1
   127   103   100    1
   128   150   149    2
   129   113   112    1
   130   113   107    1
   131   112   111    1
   132    90    91    1
   133   109   108    1
   134   152   151    1
   135    96    95    1
   136    96    97    2
   137   100   101    1
   138   100    99    1
   139   148   149    1
   140   148   151    1
   141   107   101   am
   142   107   108    1
   143    95    94    1
   144   111   108    1
   145   101   102    2
   146    91    94    1
   147    91    92    1
   148    93    92    2
