@<TRIPOS>MOLECULE
tmp/6igzO06.pdb
 184 176 0 0 0
SMALL
GASTEIGER

@<TRIPOS>ATOM
      1  N        247.5460  180.9600  237.9260 N.3    55  ARG55      -0.1245
      2  CA       248.8390  181.1320  237.2910 C.3    55  ARG55       0.1563
      3  C        249.2560  182.5960  237.2970 C.2    55  ARG55       0.2260
      4  O        250.3730  182.9220  237.7000 O.2    55  ARG55      -0.2867
      5  CB       248.7950  180.5700  235.8790 C.3    55  ARG55       0.0307
      6  CG       248.3740  179.1110  235.8140 C.3    55  ARG55       0.0489
      7  CD       248.4500  178.6980  234.3920 C.3    55  ARG55       0.2205
      8  NE       247.8240  177.4260  234.0630 N.pl3  55  ARG55      -0.0865
      9  CZ       248.3540  176.2400  234.3310 C.cat  55  ARG55       0.5346
     10  NH1      249.4870  176.1440  234.9930 N.pl3  55  ARG55       0.1354
     11  NH2      247.7150  175.1470  233.9670 N.pl3  55  ARG55       0.1354
     12  N        250.4620  183.5540  240.7210 N.3    58  MET58      -0.1230
     13  CA       251.8490  183.1310  240.8450 C.3    58  MET58       0.1702
     14  C        252.7760  184.1290  240.1780 C.2    58  MET58       0.2592
     15  O        253.7500  184.5910  240.7780 O.2    58  MET58      -0.2718
     16  CB       252.0220  181.7560  240.2150 C.3    58  MET58       0.0401
     17  CG       251.2610  180.6520  240.8790 C.3    58  MET58       0.0596
     18  SD       251.5070  179.1670  239.9140 S.3    58  MET58      -0.1393
     19  CE       250.4700  178.0100  240.7570 C.3    58  MET58       0.0692
     20  N        252.4730  184.4890  238.9360 N.am   59  LEU59      -0.1980
     21  CA       253.3060  185.4600  238.2500 C.3    59  LEU59       0.1596
     22  C        253.1190  186.8470  238.8290 C.2    59  LEU59       0.2287
     23  O        254.0370  187.6690  238.7780 O.2    59  LEU59      -0.2864
     24  CB       252.9950  185.4620  236.7630 C.3    59  LEU59       0.0297
     25  CG       253.2590  184.1190  236.1010 C.3    59  LEU59       0.0022
     26  CD1      252.9010  184.1810  234.6390 C.3    59  LEU59       0.0001
     27  CD2      254.6970  183.7300  236.2920 C.3    59  LEU59       0.0001
     28  N        252.3380  187.5400  242.2270 N.3    61  ALA61      -0.1231
     29  CA       252.9880  187.5880  243.5300 C.3    61  ALA61       0.1694
     30  C        254.5000  187.6190  243.3840 C.2    61  ALA61       0.2591
     31  O        255.1780  188.4520  243.9910 O.2    61  ALA61      -0.2718
     32  CB       252.5550  186.3940  244.3700 C.3    61  ALA61       0.0304
     33  N        255.0450  186.7220  242.5710 N.am   62  ALA62      -0.1980
     34  CA       256.4800  186.7000  242.3490 C.3    62  ALA62       0.1597
     35  C        256.9840  187.9700  241.6870 C.2    62  ALA62       0.2287
     36  O        258.1650  188.2970  241.8220 O.2    62  ALA62      -0.2864
     37  CB       256.8490  185.4940  241.4990 C.3    62  ALA62       0.0319
     38  N        256.9140  191.2210  244.4790 N.3    65  ILE65      -0.1245
     39  CA       257.8970  191.1750  245.5520 C.3    65  ILE65       0.1561
     40  C        259.3180  191.3120  245.0260 C.2    65  ILE65       0.2260
     41  O        260.1340  192.0320  245.6100 O.2    65  ILE65      -0.2867
     42  CB       257.7160  189.8790  246.3520 C.3    65  ILE65       0.0252
     43  CG1      256.3330  189.8550  246.9710 C.3    65  ILE65       0.0019
     44  CG2      258.7350  189.7910  247.4380 C.3    65  ILE65       0.0019
     45  CD1      256.0920  191.0180  247.8890 C.3    65  ILE65       0.0001
     46  N        254.6380  174.0460  225.6770 N.3   157  PHE157     -0.1227
     47  CA       254.1300  174.3790  227.0030 C.3   157  PHE157      0.1736
     48  C        254.6330  173.4180  228.0610 C.2   157  PHE157      0.2595
     49  O        254.9430  173.8310  229.1810 O.2   157  PHE157     -0.2718
     50  CB       252.6080  174.4270  227.0080 C.3   157  PHE157      0.0547
     51  CG       252.0560  175.5720  226.2440 C.ar  157  PHE157     -0.0202
     52  CD1      252.1350  176.8450  226.7600 C.ar  157  PHE157     -0.0042
     53  CD2      251.4360  175.3830  225.0370 C.ar  157  PHE157     -0.0042
     54  CE1      251.6390  177.9080  226.0710 C.ar  157  PHE157     -0.0003
     55  CE2      250.9330  176.4470  224.3480 C.ar  157  PHE157     -0.0003
     56  CZ       251.0360  177.7110  224.8670 C.ar  157  PHE157     -0.0000
     57  N        254.7160  172.1400  227.7430 N.am  158  ASN158     -0.1960
     58  CA       255.5320  171.2350  228.5340 C.3   158  ASN158      0.1819
     59  C        256.6450  170.7490  227.6320 C.2   158  ASN158      0.2621
     60  O        256.4540  169.8140  226.8530 O.2   158  ASN158     -0.2715
     61  CB       254.7050  170.0850  229.0630 C.3   158  ASN158      0.1195
     62  CG       255.4980  169.1630  229.9170 C.2   158  ASN158      0.2630
     63  OD1      256.5150  169.5490  230.4860 O.2   158  ASN158     -0.2716
     64  ND2      255.0290  167.9330  230.0410 N.am  158  ASN158     -0.0877
     65  N        257.8120  171.3630  227.7590 N.am  159  MET159     -0.1963
     66  CA       258.9920  170.8840  227.0630 C.3   159  MET159      0.1736
     67  C        259.7360  169.8220  227.8520 C.2   159  MET159      0.2616
     68  O        260.1180  168.7920  227.2920 O.2   159  MET159     -0.2715
     69  CB       259.8890  172.0670  226.7090 C.3   159  MET159      0.0427
     70  CG       260.3000  172.9280  227.8670 C.3   159  MET159      0.0599
     71  SD       260.9500  174.4860  227.2460 S.3   159  MET159     -0.1393
     72  CE       259.4200  175.3740  226.9780 C.3   159  MET159      0.0692
     73  N        259.9100  170.0270  229.1510 N.am  160  PHE160     -0.1974
     74  CA       260.6860  169.0910  229.9460 C.3   160  PHE160      0.1639
     75  C        259.9320  167.8090  230.2380 C.2   160  PHE160      0.2290
     76  O        260.5060  166.9000  230.8430 O.2   160  PHE160     -0.2864
     77  CB       261.1310  169.7500  231.2460 C.3   160  PHE160      0.0560
     78  CG       262.0600  170.8910  231.0360 C.ar  160  PHE160     -0.0200
     79  CD1      262.7290  171.0260  229.8440 C.ar  160  PHE160     -0.0042
     80  CD2      262.2680  171.8230  232.0200 C.ar  160  PHE160     -0.0042
     81  CE1      263.5810  172.0670  229.6340 C.ar  160  PHE160     -0.0003
     82  CE2      263.1240  172.8720  231.8130 C.ar  160  PHE160     -0.0003
     83  CZ       263.7820  172.9910  230.6150 C.ar  160  PHE160     -0.0000
     84  N        257.3360  166.6510  232.2110 N.3   162  LEU162     -0.1245
     85  CA       257.2720  166.2670  233.6080 C.3   162  LEU162      0.1561
     86  C        255.8520  165.8410  233.9420 C.2   162  LEU162      0.2260
     87  O        254.8900  166.4820  233.5140 O.2   162  LEU162     -0.2867
     88  CB       257.7200  167.4190  234.5030 C.3   162  LEU162      0.0270
     89  CG       257.7370  167.1520  236.0030 C.3   162  LEU162      0.0019
     90  CD1      258.6730  165.9990  236.3270 C.3   162  LEU162      0.0001
     91  CD2      258.1850  168.4050  236.7240 C.3   162  LEU162      0.0001
     92  N        249.3720  175.8060  245.1340 N.3   179  ASN179     -0.1240
     93  CA       250.2210  176.9850  245.0410 C.3   179  ASN179      0.1653
     94  C        249.5140  178.1330  244.3500 C.2   179  ASN179      0.2266
     95  O        249.7900  179.2940  244.6560 O.2   179  ASN179     -0.2867
     96  CB       251.5100  176.6540  244.3020 C.3   179  ASN179      0.1155
     97  CG       252.4620  175.8580  245.1410 C.2   179  ASN179      0.2627
     98  OD1      253.2210  176.4120  245.9300 O.2   179  ASN179     -0.2716
     99  ND2      252.4070  174.5450  245.0070 N.am  179  ASN179     -0.0877
    100  N        247.0770  179.6100  247.0100 N.3   182  LEU182     -0.1231
    101  CA       247.9100  180.3980  247.9090 C.3   182  LEU182      0.1693
    102  C        248.4000  181.6630  247.2330 C.2   182  LEU182      0.2591
    103  O        248.4780  182.7210  247.8640 O.2   182  LEU182     -0.2718
    104  CB       249.0930  179.5680  248.3890 C.3   182  LEU182      0.0284
    105  CG       250.1660  180.3100  249.1700 C.3   182  LEU182      0.0019
    106  CD1      249.5760  180.9220  250.3990 C.3   182  LEU182      0.0001
    107  CD2      251.2620  179.3530  249.5510 C.3   182  LEU182      0.0001
    108  N        248.7300  181.5790  245.9490 N.am  183  ALA183     -0.1980
    109  CA       249.2590  182.7460  245.2600 C.3   183  ALA183      0.1597
    110  C        248.2120  183.8400  245.1500 C.2   183  ALA183      0.2287
    111  O        248.5400  185.0270  245.2380 O.2   183  ALA183     -0.2864
    112  CB       249.7700  182.3550  243.8780 C.3   183  ALA183      0.0319
    113  N        245.5280  184.5300  247.2440 N.3   185  MET185     -0.1230
    114  CA       245.3660  185.1920  248.5320 C.3   185  MET185      0.1702
    115  C        246.5230  186.1380  248.8050 C.2   185  MET185      0.2592
    116  O        246.3250  187.2430  249.3180 O.2   185  MET185     -0.2718
    117  CB       245.2500  184.1550  249.6440 C.3   185  MET185      0.0401
    118  CG       244.0410  183.2550  249.5280 C.3   185  MET185      0.0596
    119  SD       242.4860  184.1550  249.5160 S.3   185  MET185     -0.1393
    120  CE       242.5040  184.8780  251.1480 C.3   185  MET185      0.0692
    121  N        247.7370  185.7230  248.4550 N.am  186  ALA186     -0.1980
    122  CA       248.8800  186.6160  248.5410 C.3   186  ALA186      0.1597
    123  C        248.6030  187.9250  247.8240 C.2   186  ALA186      0.2287
    124  O        248.7260  189.0050  248.4090 O.2   186  ALA186     -0.2864
    125  CB       250.1110  185.9370  247.9520 C.3   186  ALA186      0.0319
    126  N        246.0350  190.0160  249.4030 N.3   189  GLY189     -0.1210
    127  CA       246.5420  190.7680  250.5340 C.3   189  GLY189      0.1956
    128  C        247.1940  192.0640  250.1020 C.2   189  GLY189      0.2611
    129  O        246.9080  193.1280  250.6540 O.2   189  GLY189     -0.2717
    130  N        248.0600  191.9900  249.0900 N.am  190  PHE190     -0.1976
    131  CA       248.8170  193.1570  248.6570 C.3   190  PHE190      0.1639
    132  C        247.9240  194.3660  248.4460 C.2   190  PHE190      0.2290
    133  O        248.2140  195.4580  248.9390 O.2   190  PHE190     -0.2864
    134  CB       249.5690  192.8390  247.3740 C.3   190  PHE190      0.0560
    135  CG       250.6740  191.8690  247.5540 C.ar  190  PHE190     -0.0200
    136  CD1      251.2020  191.6390  248.7920 C.ar  190  PHE190     -0.0042
    137  CD2      251.2050  191.2000  246.4780 C.ar  190  PHE190     -0.0042
    138  CE1      252.2280  190.7580  248.9480 C.ar  190  PHE190     -0.0003
    139  CE2      252.2350  190.3150  246.6400 C.ar  190  PHE190     -0.0003
    140  CZ       252.7430  190.0940  247.8710 C.ar  190  PHE190     -0.0000
    141  N        246.7970  195.2950  251.8620 N.3   193  GLN193     -0.1245
    142  CA       247.9450  195.5860  252.7040 C.3   193  GLN193      0.1566
    143  C        248.6720  196.8370  252.2370 C.2   193  GLN193      0.2260
    144  O        249.3240  197.5110  253.0410 O.2   193  GLN193     -0.2867
    145  CB       248.8570  194.3690  252.7080 C.3   193  GLN193      0.0367
    146  CG       249.9760  194.3720  253.6820 C.3   193  GLN193      0.0905
    147  CD       250.5880  193.0030  253.7680 C.2   193  GLN193      0.2608
    148  OE1      250.0690  192.0500  253.1940 O.2   193  GLN193     -0.2717
    149  NE2      251.6980  192.8920  254.4700 N.am  193  GLN193     -0.0878
    150  N        254.7500  195.6580  250.3620 N.3   201  PRO201     -0.2102
    151  CA       254.4700  194.3740  251.0090 C.3   201  PRO201      0.1504
    152  C        255.6990  193.7570  251.6420 C.2   201  PRO201      0.2575
    153  O        255.5920  193.1230  252.6980 O.2   201  PRO201     -0.2718
    154  CB       253.9240  193.5260  249.8590 C.3   201  PRO201      0.0282
    155  CG       254.5220  194.1270  248.6420 C.3   201  PRO201      0.0208
    156  CD       254.5800  195.5940  248.9040 C.3   201  PRO201      0.0893
    157  N        256.8710  193.9180  251.0320 N.am  202  TYR202     -0.1977
    158  CA       258.0810  193.4200  251.6710 C.3   202  TYR202      0.1639
    159  C        258.4640  194.2840  252.8590 C.2   202  TYR202      0.2290
    160  O        258.9060  193.7690  253.8900 O.2   202  TYR202     -0.2864
    161  CB       259.2300  193.3590  250.6790 C.3   202  TYR202      0.0560
    162  CG       260.5170  192.9380  251.3250 C.ar  202  TYR202     -0.0198
    163  CD1      260.7530  191.6120  251.6320 C.ar  202  TYR202     -0.0009
    164  CD2      261.4900  193.8630  251.6400 C.ar  202  TYR202     -0.0009
    165  CE1      261.9240  191.2160  252.2290 C.ar  202  TYR202      0.0417
    166  CE2      262.6670  193.4770  252.2360 C.ar  202  TYR202      0.0417
    167  CZ       262.8770  192.1520  252.5280 C.ar  202  TYR202      0.1957
    168  OH       264.0500  191.7630  253.1220 O.3   202  TYR202     -0.2866
    169  N        256.3570  195.5920  254.6800 N.3   204  ASN204     -0.1225
    170  CA       255.4160  195.1310  255.6890 C.3   204  ASN204      0.1785
    171  C        255.7920  193.7850  256.2840 C.2   204  ASN204      0.2597
    172  O        255.2030  193.3850  257.2910 O.2   204  ASN204     -0.2718
    173  CB       254.0120  195.0400  255.1010 C.3   204  ASN204      0.1169
    174  CG       253.3970  196.3890  254.8710 C.2   204  ASN204      0.2627
    175  OD1      253.7870  197.3700  255.4960 O.2   204  ASN204     -0.2716
    176  ND2      252.4260  196.4510  253.9770 N.am  204  ASN204     -0.0877
    177  N        256.7290  193.0650  255.6780 N.am  205  LEU205     -0.1980
    178  CA       257.2300  191.8610  256.3260 C.3   205  LEU205      0.1596
    179  C        258.2360  192.2060  257.4090 C.2   205  LEU205      0.2287
    180  O        258.3430  191.4900  258.4090 O.2   205  LEU205     -0.2864
    181  CB       257.8560  190.9270  255.2980 C.3   205  LEU205      0.0297
    182  CG       258.4390  189.6390  255.8600 C.3   205  LEU205      0.0022
    183  CD1      257.3510  188.8430  256.5280 C.3   205  LEU205      0.0001
    184  CD2      259.0830  188.8330  254.7580 C.3   205  LEU205      0.0001
@<TRIPOS>BOND
     1    55    56   ar
     2    55    53   ar
     3    56    54   ar
     4    53    51   ar
     5    46    47    1
     6    54    52   ar
     7    51    52   ar
     8    51    50    1
     9    69    66    1
    10    69    70    1
    11    60    59    2
    12    72    71    1
    13    47    50    1
    14    47    48    1
    15    66    65    1
    16    66    67    1
    17    71    70    1
    18    68    67    2
    19    59    65   am
    20    59    58    1
    21    57    48   am
    22    57    58    1
    23    67    73   am
    24    48    49    2
    25    58    61    1
    26    61    62    1
    27    73    74    1
    28    81    79   ar
    29    81    83   ar
    30    79    78   ar
    31    62    64   am
    32    62    63    2
    33    74    75    1
    34    74    77    1
    35    75    76    2
    36    83    82   ar
    37    78    77    1
    38    78    80   ar
    39    82    80   ar
    40    84    85    1
    41    87    86    2
    42    85    86    1
    43    85    88    1
    44    11     9    1
    45     8     9    2
    46     8     7    1
    47     9    10    1
    48     7     6    1
    49    88    89    1
    50    26    25    1
    51     6     5    1
    52     5     2    1
    53    89    90    1
    54    89    91    1
    55    25    27    1
    56    25    24    1
    57    24    21    1
    58     2     3    1
    59     2     1    1
    60     3     4    2
    61    21    22    1
    62    21    20    1
    63    23    22    2
    64    20    14   am
    65    18    19    1
    66    18    17    1
    67    14    15    2
    68    14    13    1
    69    16    13    1
    70    16    17    1
    71    12    13    1
    72    37    34    1
    73    35    36    2
    74    35    34    1
    75    28    29    1
    76    34    33    1
    77    33    30   am
    78    30    29    1
    79    30    31    2
    80    29    32    1
    81   112   109    1
    82    96    93    1
    83    96    97    1
    84    94    95    2
    85    94    93    1
    86    38    39    1
    87    99    97   am
    88    40    39    1
    89    40    41    2
    90    93    92    1
    91    97    98    2
    92   110   111    2
    93   110   109    1
    94   109   108    1
    95    39    42    1
    96   108   102   am
    97    42    43    1
    98    42    44    1
    99   137   139   ar
   100   137   135   ar
   101   139   140   ar
   102    43    45    1
   103   100   101    1
   104   102   103    2
   105   102   101    1
   106   113   114    1
   107   134   135    1
   108   134   131    1
   109   135   136   ar
   110   123   124    2
   111   123   122    1
   112   140   138   ar
   113   101   104    1
   114   125   122    1
   115   104   105    1
   116   132   131    1
   117   132   133    2
   118   121   122    1
   119   121   115   am
   120   114   115    1
   121   114   117    1
   122   155   156    1
   123   155   154    1
   124   131   130    1
   125   136   138   ar
   126   115   116    2
   127   156   150    1
   128   130   128   am
   129   105   107    1
   130   105   106    1
   131   126   127    1
   132   119   118    1
   133   119   120    1
   134   118   117    1
   135   154   151    1
   136   128   127    1
   137   128   129    2
   138   150   151    1
   139   161   162    1
   140   161   158    1
   141   151   152    1
   142   157   152   am
   143   157   158    1
   144   162   163   ar
   145   162   164   ar
   146   163   165   ar
   147   164   166   ar
   148   152   153    2
   149   158   159    1
   150   141   142    1
   151   165   167   ar
   152   166   167   ar
   153   143   142    1
   154   143   144    2
   155   167   168    1
   156   142   145    1
   157   145   146    1
   158   159   160    2
   159   148   147    2
   160   146   147    1
   161   147   149   am
   162   176   174   am
   163   169   170    1
   164   184   182    1
   165   174   173    1
   166   174   175    2
   167   173   170    1
   168   181   182    1
   169   181   178    1
   170   177   171   am
   171   177   178    1
   172   170   171    1
   173   182   183    1
   174   171   172    2
   175   178   179    1
   176   179   180    2
