@<TRIPOS>MOLECULE
tmp/6igzP10.pdb
 106 104 0 0 0
SMALL
GASTEIGER

@<TRIPOS>ATOM
      1  N        218.2350  201.4940  168.7540 N.3     2  PRO2       -0.2116
      2  CA       218.8000  202.4770  169.6800 C.3     2  PRO2        0.1372
      3  C        217.8800  202.7200  170.8590 C.2     2  PRO2        0.2244
      4  O        216.6570  202.7420  170.7230 O.2     2  PRO2       -0.2868
      5  CB       218.9420  203.7280  168.8160 C.3     2  PRO2        0.0268
      6  CG       217.9100  203.5550  167.7730 C.3     2  PRO2        0.0207
      7  CD       217.9460  202.0950  167.4480 C.3     2  PRO2        0.0892
      8  N        217.4920  205.0470  174.7250 N.3     4  TRP4       -0.1241
      9  CA       217.9460  206.3010  175.3080 C.3     4  TRP4        0.1605
     10  C        219.1460  206.0600  176.2080 C.2     4  TRP4        0.2264
     11  O        220.2190  206.6200  175.9850 O.2     4  TRP4       -0.2867
     12  CB       216.8130  207.0120  176.0410 C.3     4  TRP4        0.0550
     13  CG       216.2600  206.3460  177.2180 C.ar    4  TRP4        0.0003
     14  CD1      215.3720  205.3280  177.2320 C.ar    4  TRP4        0.0946
     15  CD2      216.4670  206.7190  178.5750 C.ar    4  TRP4        0.0152
     16  NE1      215.0490  205.0010  178.5210 N.ar    4  TRP4       -0.2442
     17  CE2      215.7070  205.8510  179.3650 C.ar    4  TRP4        0.0810
     18  CE3      217.2400  207.6910  179.2010 C.ar    4  TRP4        0.0012
     19  CZ2      215.6970  205.9230  180.7430 C.ar    4  TRP4        0.0191
     20  CZ3      217.2280  207.7600  180.5680 C.ar    4  TRP4        0.0001
     21  CH2      216.4630  206.8850  181.3250 C.ar    4  TRP4        0.0015
     22  N        213.0670  205.7740  171.0230 N.3    22  PHE22      -0.1241
     23  CA       214.2280  205.2060  171.6760 C.3    22  PHE22       0.1605
     24  C        213.9150  204.5250  172.9950 C.2    22  PHE22       0.2264
     25  O        214.8380  204.0910  173.6790 O.2    22  PHE22      -0.2867
     26  CB       215.2710  206.2880  171.8570 C.3    22  PHE22       0.0534
     27  CG       215.6660  206.9140  170.5670 C.ar   22  PHE22      -0.0203
     28  CD1      216.5530  206.2830  169.7260 C.ar   22  PHE22      -0.0042
     29  CD2      215.1250  208.1120  170.1800 C.ar   22  PHE22      -0.0042
     30  CE1      216.9010  206.8420  168.5430 C.ar   22  PHE22      -0.0003
     31  CE2      215.4770  208.6740  168.9990 C.ar   22  PHE22      -0.0003
     32  CZ       216.3650  208.0360  168.1790 C.ar   22  PHE22      -0.0000
     33  N        212.1540  205.9010  175.7860 N.3    24  TYR24      -0.1241
     34  CA       212.1900  206.7970  176.9370 C.3    24  TYR24       0.1605
     35  C        210.7830  207.2990  177.2090 C.2    24  TYR24       0.2264
     36  O        210.2820  208.1600  176.4890 O.2    24  TYR24      -0.2867
     37  CB       213.1240  207.9650  176.6570 C.3    24  TYR24       0.0534
     38  CG       213.0590  209.0960  177.6530 C.ar   24  TYR24      -0.0201
     39  CD1      213.7350  209.0270  178.8590 C.ar   24  TYR24      -0.0009
     40  CD2      212.3430  210.2430  177.3730 C.ar   24  TYR24      -0.0009
     41  CE1      213.6930  210.0580  179.7560 C.ar   24  TYR24       0.0417
     42  CE2      212.2980  211.2710  178.2640 C.ar   24  TYR24       0.0417
     43  CZ       212.9730  211.1700  179.4530 C.ar   24  TYR24       0.1957
     44  OH       212.9300  212.1910  180.3570 O.3    24  TYR24      -0.2866
     45  N        209.7510  207.7520  181.0850 N.3    26  PRO26      -0.2102
     46  CA       209.8450  207.3870  182.5020 C.3    26  PRO26       0.1504
     47  C        208.5440  207.5870  183.2520 C.2    26  PRO26       0.2575
     48  O        208.1120  206.7010  183.9960 O.2    26  PRO26      -0.2718
     49  CB       210.9580  208.3040  183.0100 C.3    26  PRO26       0.0282
     50  CG       210.8710  209.4760  182.1560 C.3    26  PRO26       0.0208
     51  CD       210.5230  208.9650  180.7960 C.3    26  PRO26       0.0893
     52  N        207.8900  208.7240  183.0540 N.am   27  LEU27      -0.1980
     53  CA       206.6720  209.0270  183.7860 C.3    27  LEU27       0.1596
     54  C        205.4710  208.2810  183.2370 C.2    27  LEU27       0.2287
     55  O        204.3910  208.3570  183.8260 O.2    27  LEU27      -0.2864
     56  CB       206.4260  210.5270  183.7660 C.3    27  LEU27       0.0297
     57  CG       207.6600  211.2580  184.2850 C.3    27  LEU27       0.0022
     58  CD1      207.4700  212.7570  184.2990 C.3    27  LEU27       0.0001
     59  CD2      208.0450  210.7300  185.6410 C.3    27  LEU27       0.0001
     60  N        212.2740  209.7190  160.5090 N.3   155  LEU155     -0.1245
     61  CA       213.2730  209.7740  161.5630 C.3   155  LEU155      0.1561
     62  C        214.0020  211.1050  161.5690 C.2   155  LEU155      0.2260
     63  O        214.4100  211.5820  162.6300 O.2   155  LEU155     -0.2867
     64  CB       214.2580  208.6270  161.3950 C.3   155  LEU155      0.0270
     65  CG       215.4010  208.6020  162.3880 C.3   155  LEU155      0.0019
     66  CD1      214.8400  208.4880  163.7780 C.3   155  LEU155      0.0001
     67  CD2      216.2880  207.4320  162.0770 C.3   155  LEU155      0.0001
     68  N        213.9090  213.6120  164.9100 N.3   159  LYS159     -0.1245
     69  CA       215.2080  213.7740  165.5400 C.3   159  LYS159      0.1561
     70  C        215.7140  215.2060  165.4600 C.2   159  LYS159      0.2260
     71  O        216.3980  215.6690  166.3750 O.2   159  LYS159     -0.2867
     72  CB       216.1810  212.8060  164.8980 C.3   159  LYS159      0.0271
     73  CG       217.5350  212.8220  165.4750 C.3   159  LYS159      0.0035
     74  CD       218.3000  211.7160  164.8440 C.3   159  LYS159      0.0206
     75  CE       217.7080  210.4320  165.3090 C.3   159  LYS159      0.1093
     76  NZ       217.9330  210.3780  166.7660 N.3   159  LYS159     -0.1314
     77  N        213.0580  216.9450  167.9010 N.3   162  ARG162     -0.1231
     78  CA       213.4700  216.7050  169.2770 C.3   162  ARG162      0.1694
     79  C        214.5430  217.6870  169.7050 C.2   162  ARG162      0.2591
     80  O        214.5190  218.2030  170.8230 O.2   162  ARG162     -0.2718
     81  CB       213.9930  215.2830  169.4190 C.3   162  ARG162      0.0321
     82  CG       213.0000  214.2000  169.1180 C.3   162  ARG162      0.0489
     83  CD       212.0100  214.0170  170.2210 C.3   162  ARG162      0.2205
     84  NE       211.0910  212.9240  169.9290 N.pl3 162  ARG162     -0.0865
     85  CZ       211.3850  211.6400  170.0820 C.cat 162  ARG162      0.5346
     86  NH1      212.5850  211.2740  170.4950 N.pl3 162  ARG162      0.1354
     87  NH2      210.4870  210.7170  169.7920 N.pl3 162  ARG162      0.1354
     88  N        215.4900  217.9700  168.8250 N.am  163  LEU163     -0.1980
     89  CA       216.6180  218.7820  169.2380 C.3   163  LEU163      0.1596
     90  C        216.2560  220.2550  169.2570 C.2   163  LEU163      0.2287
     91  O        216.6770  220.9850  170.1560 O.2   163  LEU163     -0.2864
     92  CB       217.8020  218.5280  168.3140 C.3   163  LEU163      0.0297
     93  CG       219.1590  218.9590  168.8490 C.3   163  LEU163      0.0022
     94  CD1      220.2390  218.1000  168.2680 C.3   163  LEU163      0.0001
     95  CD2      219.4220  220.3640  168.5160 C.3   163  LEU163      0.0001
     96  N        214.3530  220.9510  172.3990 N.3   166  PHE166     -0.1241
     97  CA       215.2680  221.0150  173.5290 C.3   166  PHE166      0.1605
     98  C        216.1720  222.2320  173.4330 C.2   166  PHE166      0.2264
     99  O        216.4140  222.9150  174.4310 O.2   166  PHE166     -0.2867
    100  CB       216.0910  219.7320  173.6040 C.3   166  PHE166      0.0534
    101  CG       217.0660  219.7130  174.7300 C.ar  166  PHE166     -0.0203
    102  CD1      216.6420  219.4720  176.0190 C.ar  166  PHE166     -0.0042
    103  CD2      218.4060  219.9220  174.5030 C.ar  166  PHE166     -0.0042
    104  CE1      217.5330  219.4550  177.0600 C.ar  166  PHE166     -0.0003
    105  CE2      219.3020  219.9050  175.5440 C.ar  166  PHE166     -0.0003
    106  CZ       218.8650  219.6720  176.8240 C.ar  166  PHE166     -0.0000
@<TRIPOS>BOND
     1    60    61    1
     2    64    61    1
     3    64    65    1
     4    61    62    1
     5    62    63    2
     6    67    65    1
     7    65    66    1
     8    74    75    1
     9    74    73    1
    10    72    73    1
    11    72    69    1
    12    68    69    1
    13    75    76    1
    14    70    69    1
    15    70    71    2
    16     7     6    1
    17     7     1    1
    18     6     5    1
    19    77    78    1
    20    32    30   ar
    21    32    31   ar
    22    94    93    1
    23    92    93    1
    24    92    89    1
    25    95    93    1
    26    30    28   ar
    27     1     2    1
    28     5     2    1
    29    88    89    1
    30    88    79   am
    31    31    29   ar
    32    82    81    1
    33    82    83    1
    34    89    90    1
    35    90    91    2
    36    78    81    1
    37    78    79    1
    38     2     3    1
    39    79    80    2
    40    28    27   ar
    41    87    85    1
    42    84    85    2
    43    84    83    1
    44    85    86    1
    45    29    27   ar
    46    27    26    1
    47     4     3    2
    48    22    23    1
    49    23    26    1
    50    23    24    1
    51    96    97    1
    52    24    25    2
    53    98    97    1
    54    98    99    2
    55    97   100    1
    56   100   101    1
    57   103   101   ar
    58   103   105   ar
    59     8     9    1
    60   101   102   ar
    61     9    12    1
    62     9    10    1
    63   105   106   ar
    64    33    34    1
    65    11    10    2
    66   102   104   ar
    67    12    13    1
    68    36    35    2
    69    37    34    1
    70    37    38    1
    71   106   104   ar
    72    34    35    1
    73    13    14   ar
    74    13    15   ar
    75    14    16   ar
    76    40    38   ar
    77    40    42   ar
    78    38    39   ar
    79    42    43   ar
    80    16    17   ar
    81    15    18   ar
    82    15    17   ar
    83    39    41   ar
    84    18    20   ar
    85    17    19   ar
    86    43    41   ar
    87    43    44    1
    88    20    21   ar
    89    19    21   ar
    90    51    45    1
    91    51    50    1
    92    45    46    1
    93    50    49    1
    94    46    49    1
    95    46    47    1
    96    52    47   am
    97    52    53    1
    98    54    53    1
    99    54    55    2
   100    47    48    2
   101    56    53    1
   102    56    57    1
   103    57    58    1
   104    57    59    1
