@<TRIPOS>MOLECULE
tmp/6igzU11.pdb
 198 191 0 0 0
SMALL
GASTEIGER

@<TRIPOS>ATOM
      1  N        117.1010  231.2440  194.6900 N.3     3  TRP3       -0.1241
      2  CA       117.5580  232.5210  195.2220 C.3     3  TRP3        0.1605
      3  C        118.3190  233.3730  194.2240 C.2     3  TRP3        0.2264
      4  O        118.6050  234.5260  194.5440 O.2     3  TRP3       -0.2867
      5  CB       118.4420  232.3100  196.4470 C.3     3  TRP3        0.0550
      6  CG       119.6980  231.5590  196.1860 C.ar    3  TRP3        0.0003
      7  CD1      119.8380  230.2110  196.1180 C.ar    3  TRP3        0.0946
      8  CD2      121.0030  232.1070  196.0000 C.ar    3  TRP3        0.0152
      9  NE1      121.1470  229.8790  195.8900 N.ar    3  TRP3       -0.2442
     10  CE2      121.8850  231.0280  195.8120 C.ar    3  TRP3        0.0810
     11  CE3      121.5120  233.4040  195.9620 C.ar    3  TRP3        0.0012
     12  CZ2      123.2440  231.2040  195.5930 C.ar    3  TRP3        0.0191
     13  CZ3      122.8650  233.5770  195.7490 C.ar    3  TRP3        0.0001
     14  CH2      123.7150  232.4840  195.5660 C.ar    3  TRP3        0.0015
     15  N        118.2000  220.3390  201.6090 N.3    13  LEU13      -0.1245
     16  CA       117.0270  221.0330  202.1210 C.3    13  LEU13       0.1561
     17  C        115.8850  220.9420  201.1170 C.2    13  LEU13       0.2260
     18  O        116.0800  221.1710  199.9180 O.2    13  LEU13      -0.2867
     19  CB       117.3370  222.4960  202.4570 C.3    13  LEU13       0.0270
     20  CG       117.7130  223.5610  201.4180 C.3    13  LEU13       0.0019
     21  CD1      116.4930  224.1430  200.7130 C.3    13  LEU13       0.0001
     22  CD2      118.5140  224.6830  202.0610 C.3    13  LEU13       0.0001
     23  N        111.6270  223.3760  206.2860 N.3    17  MET17      -0.1230
     24  CA       112.1480  224.3270  207.2530 C.3    17  MET17       0.1702
     25  C        111.6550  225.7170  206.8850 C.2    17  MET17       0.2592
     26  O        111.6090  226.0770  205.7070 O.2    17  MET17      -0.2718
     27  CB       113.6740  224.2670  207.2700 C.3    17  MET17       0.0401
     28  CG       114.3270  225.2190  208.2360 C.3    17  MET17       0.0596
     29  SD       116.1030  224.9540  208.3510 S.3    17  MET17      -0.1393
     30  CE       116.1430  223.4730  209.3550 C.3    17  MET17       0.0692
     31  N        111.2900  226.5040  207.8940 N.am   18  ALA18      -0.1966
     32  CA       110.3260  227.5730  207.6700 C.3    18  ALA18       0.1728
     33  C        110.9080  228.6210  206.7350 C.2    18  ALA18       0.2617
     34  O        111.8980  229.2850  207.0580 O.2    18  ALA18      -0.2715
     35  CB       109.9350  228.2060  208.9990 C.3    18  ALA18       0.0334
     36  N        110.2780  228.7620  205.5750 N.am   19  GLY19      -0.1940
     37  CA       110.7270  229.6520  204.5300 C.3    19  GLY19       0.2014
     38  C        111.8590  228.9970  203.7750 C.2    19  GLY19       0.2639
     39  O        112.7010  228.3340  204.3840 O.2    19  GLY19      -0.2714
     40  N        111.9170  229.1730  202.4620 N.am   20  ASP20      -0.1957
     41  CA       113.1530  228.8880  201.7570 C.3    20  ASP20       0.1840
     42  C        113.1840  229.6710  200.4610 C.2    20  ASP20       0.2622
     43  O        112.1780  229.7450  199.7510 O.2    20  ASP20      -0.2715
     44  CB       113.3100  227.4010  201.4640 C.3    20  ASP20       0.1450
     45  CG       114.5410  227.1140  200.6580 C.2    20  ASP20       0.3671
     46  OD1      115.6480  227.3620  201.1700 O.co2  20  ASP20      -0.2456
     47  OD2      114.4060  226.6570  199.5050 O.co2  20  ASP20      -0.2456
     48  N        114.3370  230.2550  200.1650 N.am   21  TYR21      -0.1974
     49  CA       114.6490  230.7370  198.8320 C.3    21  TYR21       0.1639
     50  C        115.6580  229.8660  198.1080 C.2    21  TYR21       0.2290
     51  O        116.0270  230.1820  196.9740 O.2    21  TYR21      -0.2864
     52  CB       115.1020  232.1870  198.9240 C.3    21  TYR21       0.0560
     53  CG       113.9500  233.0080  199.4190 C.ar   21  TYR21      -0.0198
     54  CD1      112.6890  232.8290  198.8790 C.ar   21  TYR21      -0.0009
     55  CD2      114.0890  233.8790  200.4810 C.ar   21  TYR21      -0.0009
     56  CE1      111.6140  233.5420  199.3310 C.ar   21  TYR21       0.0417
     57  CE2      113.0170  234.6060  200.9420 C.ar   21  TYR21       0.0417
     58  CZ       111.7790  234.4290  200.3660 C.ar   21  TYR21       0.1957
     59  OH       110.6980  235.1460  200.8190 O.3    21  TYR21      -0.2866
     60  N        118.7210  229.4580  199.2710 N.3    23  TYR23      -0.1227
     61  CA       119.9790  230.1850  199.3770 C.3    23  TYR23       0.1736
     62  C        120.8450  229.5540  200.4510 C.2    23  TYR23       0.2595
     63  O        120.5630  229.6880  201.6450 O.2    23  TYR23      -0.2718
     64  CB       119.6920  231.6480  199.6950 C.3    23  TYR23       0.0548
     65  CG       120.8900  232.4690  200.0930 C.ar   23  TYR23      -0.0200
     66  CD1      121.8250  232.8710  199.1600 C.ar   23  TYR23      -0.0009
     67  CD2      121.0620  232.8820  201.3970 C.ar   23  TYR23      -0.0009
     68  CE1      122.9090  233.6380  199.5220 C.ar   23  TYR23       0.0417
     69  CE2      122.1370  233.6460  201.7580 C.ar   23  TYR23       0.0417
     70  CZ       123.0570  234.0160  200.8270 C.ar   23  TYR23       0.1957
     71  OH       124.1290  234.7800  201.2120 O.3    23  TYR23      -0.2866
     72  N        121.8880  228.8490  200.0250 N.am   24  ASP24      -0.1974
     73  CA       122.9680  228.4330  200.9190 C.3    24  ASP24       0.1709
     74  C        124.2670  228.3360  200.1340 C.2    24  ASP24       0.2293
     75  O        124.7090  227.2440  199.7620 O.2    24  ASP24      -0.2864
     76  CB       122.6340  227.1170  201.6040 C.3    24  ASP24       0.1436
     77  CG       123.7250  226.6540  202.5140 C.2    24  ASP24       0.3671
     78  OD1      124.0950  227.4150  203.4290 O.co2  24  ASP24      -0.2456
     79  OD2      124.1850  225.5120  202.3310 O.co2  24  ASP24      -0.2456
     80  N        126.7960  225.6240  204.6250 N.3    28  LEU28      -0.1231
     81  CA       126.6420  225.3520  206.0450 C.3    28  LEU28       0.1693
     82  C        125.4130  224.5160  206.3510 C.2    28  LEU28       0.2592
     83  O        125.2670  224.0500  207.4850 O.2    28  LEU28      -0.2718
     84  CB       126.5740  226.6600  206.8230 C.3    28  LEU28       0.0284
     85  CG       127.8540  227.4840  206.8740 C.3    28  LEU28       0.0019
     86  CD1      127.5970  228.8140  207.5510 C.3    28  LEU28       0.0001
     87  CD2      128.9050  226.7010  207.6240 C.3    28  LEU28       0.0001
     88  N        124.5320  224.3230  205.3830 N.am   29  GLY29      -0.1957
     89  CA       123.3460  223.5340  205.5980 C.3    29  GLY29       0.1869
     90  C        123.5380  222.0450  205.5230 C.2    29  GLY29       0.2309
     91  O        122.5640  221.3060  205.6700 O.2    29  GLY29      -0.2863
     92  N        121.6570  221.4510  211.6820 N.3    35  LEU35      -0.1245
     93  CA       120.8670  222.4220  210.9310 C.3    35  LEU35       0.1561
     94  C        119.6190  222.8340  211.6970 C.2    35  LEU35       0.2260
     95  O        119.1260  223.9530  211.5220 O.2    35  LEU35      -0.2867
     96  CB       120.4950  221.8520  209.5660 C.3    35  LEU35       0.0270
     97  CG       119.5940  222.7080  208.6840 C.3    35  LEU35       0.0019
     98  CD1      120.2740  224.0180  208.3870 C.3    35  LEU35       0.0001
     99  CD2      119.2530  221.9870  207.3970 C.3    35  LEU35       0.0001
    100  N        120.9460  225.7510  213.6900 N.3    38  TYR38      -0.1227
    101  CA       121.0830  226.9280  212.8390 C.3    38  TYR38       0.1736
    102  C        119.7320  227.5320  212.4960 C.2    38  TYR38       0.2595
    103  O        119.6350  228.7400  212.2590 O.2    38  TYR38      -0.2718
    104  CB       121.8240  226.5820  211.5500 C.3    38  TYR38       0.0548
    105  CG       123.2850  226.2380  211.7060 C.ar   38  TYR38      -0.0200
    106  CD1      124.0800  226.8930  212.6280 C.ar   38  TYR38      -0.0009
    107  CD2      123.8790  225.2930  210.8910 C.ar   38  TYR38      -0.0009
    108  CE1      125.4180  226.5880  212.7550 C.ar   38  TYR38       0.0417
    109  CE2      125.2160  224.9840  211.0090 C.ar   38  TYR38       0.0417
    110  CZ       125.9810  225.6330  211.9420 C.ar   38  TYR38       0.1957
    111  OH       127.3160  225.3250  212.0510 O.3    38  TYR38      -0.2866
    112  N        118.6850  226.7090  212.4500 N.am   39  ARG39      -0.1980
    113  CA       117.3670  227.1980  212.0680 C.3    39  ARG39       0.1597
    114  C        116.8820  228.2670  213.0340 C.2    39  ARG39       0.2287
    115  O        116.6060  229.4060  212.6440 O.2    39  ARG39      -0.2864
    116  CB       116.3800  226.0360  212.0240 C.3    39  ARG39       0.0334
    117  CG       114.9790  226.4280  211.6140 C.3    39  ARG39       0.0492
    118  CD       114.0600  225.2300  211.6830 C.3    39  ARG39       0.2205
    119  NE       112.7120  225.5380  211.2300 N.pl3  39  ARG39      -0.0865
    120  CZ       111.7790  224.6170  211.0170 C.cat  39  ARG39       0.5346
    121  NH1      112.0550  223.3370  211.2160 N.pl3  39  ARG39       0.1354
    122  NH2      110.5720  224.9730  210.6020 N.pl3  39  ARG39       0.1354
    123  N        118.3460  229.7710  215.5920 N.3    41  ALA41      -0.1231
    124  CA       119.1390  230.9540  215.8890 C.3    41  ALA41       0.1694
    125  C        118.7980  232.0740  214.9250 C.2    41  ALA41       0.2592
    126  O        118.7420  233.2420  215.3200 O.2    41  ALA41      -0.2718
    127  CB       120.6260  230.6300  215.8220 C.3    41  ALA41       0.0304
    128  N        118.5760  231.7330  213.6550 N.am   42  GLU42      -0.1966
    129  CA       118.0430  232.7050  212.7100 C.3    42  GLU42       0.1733
    130  C        116.7260  233.2640  213.2120 C.2    42  GLU42       0.2616
    131  O        116.5080  234.4810  213.2020 O.2    42  GLU42      -0.2715
    132  CB       117.8510  232.0690  211.3380 C.3    42  GLU42       0.0429
    133  CG       117.3470  233.0410  210.3020 C.3    42  GLU42       0.1163
    134  CD       117.1850  232.4060  208.9490 C.2    42  GLU42       0.3649
    135  OE1      117.4060  231.1890  208.8380 O.co2  42  GLU42      -0.2457
    136  OE2      116.8460  233.1220  207.9890 O.co2  42  GLU42      -0.2457
    137  N        115.8300  232.3830  213.6520 N.am   43  LYS43      -0.1977
    138  CA       114.5800  232.8430  214.2340 C.3    43  LYS43       0.1596
    139  C        114.8590  233.8690  215.3170 C.2    43  LYS43       0.2287
    140  O        114.3870  235.0050  215.2400 O.2    43  LYS43      -0.2864
    141  CB       113.7960  231.6620  214.8000 C.3    43  LYS43       0.0298
    142  CG       113.5430  230.5460  213.8090 C.3    43  LYS43       0.0038
    143  CD       112.6130  230.9700  212.7000 C.3    43  LYS43       0.0206
    144  CE       112.2910  229.7960  211.7900 C.3    43  LYS43       0.1093
    145  NZ       113.4730  229.3500  211.0050 N.3    43  LYS43      -0.1314
    146  N        117.6760  235.6310  216.2970 N.3    45  ASN45      -0.1240
    147  CA       118.3120  236.8560  215.8260 C.3    45  ASN45       0.1653
    148  C        117.3390  237.7150  215.0320 C.2    45  ASN45       0.2266
    149  O        117.3500  238.9450  215.1430 O.2    45  ASN45      -0.2867
    150  CB       119.5520  236.5280  214.9960 C.3    45  ASN45       0.1155
    151  CG       120.7210  236.0950  215.8450 C.2    45  ASN45       0.2627
    152  OD1      120.7880  236.4110  217.0260 O.2    45  ASN45      -0.2716
    153  ND2      121.6610  235.3860  215.2440 N.am   45  ASN45      -0.0877
    154  N        110.0920  234.8210  209.3390 N.3   134  ILE134     -0.1245
    155  CA       111.4790  234.8460  208.9110 C.3   134  ILE134      0.1561
    156  C        111.6930  235.8790  207.8180 C.2   134  ILE134      0.2260
    157  O        112.7830  236.4490  207.7040 O.2   134  ILE134     -0.2867
    158  CB       111.8940  233.4300  208.4810 C.3   134  ILE134      0.0252
    159  CG1      113.3980  233.3420  208.2750 C.3   134  ILE134      0.0019
    160  CG2      111.1800  233.0220  207.2140 C.3   134  ILE134      0.0019
    161  CD1      113.8890  231.9120  208.1690 C.3   134  ILE134      0.0001
    162  N        114.6610  238.1460  208.4950 N.3   138  ARG138     -0.1245
    163  CA       115.8190  238.2570  207.6130 C.3   138  ARG138      0.1563
    164  C        116.0210  239.6800  207.1270 C.2   138  ARG138      0.2260
    165  O        117.1500  240.0890  206.8440 O.2   138  ARG138     -0.2867
    166  CB       115.6550  237.3130  206.4230 C.3   138  ARG138      0.0307
    167  CG       115.7460  235.8500  206.7750 C.3   138  ARG138      0.0489
    168  CD       115.4710  234.9920  205.5640 C.3   138  ARG138      0.2205
    169  NE       115.6450  233.5750  205.8530 N.pl3 138  ARG138     -0.0865
    170  CZ       115.3630  232.6010  204.9980 C.cat 138  ARG138      0.5346
    171  NH1      115.5590  231.3370  205.3380 N.pl3 138  ARG138      0.1354
    172  NH2      114.8830  232.8920  203.8010 N.pl3 138  ARG138      0.1354
    173  N        117.2910  241.8580  210.7570 N.3   141  MET141     -0.1230
    174  CA       118.7260  241.7120  210.9540 C.3   141  MET141      0.1702
    175  C        119.4980  242.4630  209.8800 C.2   141  MET141      0.2592
    176  O        120.4100  243.2380  210.1790 O.2   141  MET141     -0.2718
    177  CB       119.0790  240.2320  210.9390 C.3   141  MET141      0.0401
    178  CG       118.4330  239.4690  212.0560 C.3   141  MET141      0.0596
    179  SD       118.7650  237.7160  211.9220 S.3   141  MET141     -0.1393
    180  CE       117.6520  237.2830  210.5950 C.3   141  MET141      0.0692
    181  N        119.1340  242.2460  208.6170 N.am  142  PHE142     -0.1976
    182  CA       119.7390  243.0060  207.5330 C.3   142  PHE142      0.1639
    183  C        119.5610  244.4980  207.7580 C.2   142  PHE142      0.2290
    184  O        120.4860  245.2850  207.5310 O.2   142  PHE142     -0.2864
    185  CB       119.1260  242.5820  206.2000 C.3   142  PHE142      0.0560
    186  CG       119.6730  243.3170  205.0090 C.ar  142  PHE142     -0.0200
    187  CD1      120.8550  242.9200  204.4190 C.ar  142  PHE142     -0.0042
    188  CD2      118.9960  244.3950  204.4690 C.ar  142  PHE142     -0.0042
    189  CE1      121.3550  243.5890  203.3200 C.ar  142  PHE142     -0.0003
    190  CE2      119.4940  245.0670  203.3730 C.ar  142  PHE142     -0.0003
    191  CZ       120.6730  244.6610  202.7980 C.ar  142  PHE142     -0.0000
    192  N        122.3310  246.0810  210.3670 N.3   145  THR145     -0.1218
    193  CA       123.6990  246.3880  209.9690 C.3   145  THR145      0.1862
    194  C        123.8120  247.7790  209.3720 C.2   145  THR145      0.2287
    195  O        124.8360  248.4500  209.5400 O.2   145  THR145     -0.2866
    196  CB       124.1920  245.3520  208.9660 C.3   145  THR145      0.1770
    197  OG1      124.0920  244.0480  209.5450 O.3   145  THR145     -0.2211
    198  CG2      125.6410  245.6200  208.6010 C.3   145  THR145      0.0375
@<TRIPOS>BOND
     1     3     4    2
     2     3     2    1
     3     1     2    1
     4     2     5    1
     5    14    12   ar
     6    14    13   ar
     7    12    10   ar
     8    13    11   ar
     9    10     9   ar
    10    10     8   ar
    11     9     7   ar
    12    11     8   ar
    13     8     6   ar
    14     7     6   ar
    15     6     5    1
    16    51    50    2
    17    50    49    1
    18    49    52    1
    19    49    48    1
    20    54    56   ar
    21    54    53   ar
    22    52    53    1
    23    66    68   ar
    24    66    65   ar
    25    60    61    1
    26    56    58   ar
    27    61    64    1
    28    61    62    1
    29    53    55   ar
    30    47    45   ar
    31    68    70   ar
    32    64    65    1
    33    43    42    2
    34    75    74    2
    35    18    17    2
    36    72    62   am
    37    72    73    1
    38    65    67   ar
    39    74    73    1
    40    48    42   am
    41    58    59    1
    42    58    57   ar
    43    62    63    2
    44    42    41    1
    45    55    57   ar
    46    45    46   ar
    47    45    44    1
    48    21    20    1
    49    70    71    1
    50    70    69   ar
    51    73    76    1
    52    17    16    1
    53    67    69   ar
    54    20    22    1
    55    20    19    1
    56    44    41    1
    57    76    77    1
    58    15    16    1
    59    41    40    1
    60    16    19    1
    61    79    77   ar
    62    40    38   am
    63    77    78   ar
    64   191   189   ar
    65   191   190   ar
    66   189   187   ar
    67   190   188   ar
    68    38    39    2
    69    38    37    1
    70   172   170    1
    71   187   186   ar
    72   188   186   ar
    73    37    36    1
    74    80    81    1
    75   170   171    1
    76   170   169    2
    77   186   185    1
    78    88    89    1
    79    88    82   am
    80    90    89    1
    81    90    91    2
    82   168   169    1
    83   168   167    1
    84    36    33   am
    85    26    25    2
    86    81    82    1
    87    81    84    1
    88   185   182    1
    89    23    24    1
    90    82    83    2
    91   166   167    1
    92   166   163    1
    93    33    34    2
    94    33    32    1
    95    84    85    1
    96   165   164    2
    97    85    86    1
    98    85    87    1
    99    25    24    1
   100    25    31   am
   101   164   163    1
   102   160   158    1
   103    24    27    1
   104    27    28    1
   105    99    97    1
   106   184   183    2
   107   182   183    1
   108   182   181    1
   109   163   162    1
   110    32    31    1
   111    32    35    1
   112   157   156    2
   113   156   155    1
   114   136   134   ar
   115   161   159    1
   116    28    29    1
   117   159   158    1
   118    29    30    1
   119    98    97    1
   120   158   155    1
   121   198   196    1
   122   181   175   am
   123    97    96    1
   124   135   134   ar
   125   155   154    1
   126   134   133    1
   127   196   197    1
   128   196   193    1
   129   194   195    2
   130   194   193    1
   131    96    93    1
   132   175   176    2
   133   175   174    1
   134   193   192    1
   135   133   132    1
   136   180   179    1
   137   122   120    1
   138   173   174    1
   139   107   109   ar
   140   107   105   ar
   141    93    92    1
   142    93    94    1
   143   177   174    1
   144   177   178    1
   145   145   144    1
   146   109   110   ar
   147   120   121    1
   148   120   119    2
   149   119   118    1
   150   132   129    1
   151    95    94    2
   152   104   105    1
   153   104   101    1
   154   117   118    1
   155   117   116    1
   156   105   106   ar
   157   144   143    1
   158   179   178    1
   159   110   111    1
   160   110   108   ar
   161   116   113    1
   162   113   112    1
   163   113   114    1
   164   103   102    2
   165   112   102   am
   166   102   101    1
   167   106   108   ar
   168   115   114    2
   169   143   142    1
   170   129   130    1
   171   129   128    1
   172   101   100    1
   173   131   130    2
   174   130   137   am
   175   137   138    1
   176   128   125   am
   177   142   141    1
   178   138   141    1
   179   138   139    1
   180   125   126    2
   181   125   124    1
   182   150   147    1
   183   150   151    1
   184   148   149    2
   185   148   147    1
   186   140   139    2
   187   153   151   am
   188   123   124    1
   189   127   124    1
   190   147   146    1
   191   151   152    2
