@<TRIPOS>MOLECULE
tmp/6igzP14.pdb
 102 103 0 0 0
SMALL
GASTEIGER

@<TRIPOS>ATOM
      1  N        218.2350  201.4940  168.7540 N.3     2  PRO2       -0.2102
      2  CA       218.8000  202.4770  169.6800 C.3     2  PRO2        0.1504
      3  C        217.8800  202.7200  170.8590 C.2     2  PRO2        0.2576
      4  O        216.6570  202.7420  170.7230 O.2     2  PRO2       -0.2718
      5  CB       218.9420  203.7280  168.8160 C.3     2  PRO2        0.0282
      6  CG       217.9100  203.5550  167.7730 C.3     2  PRO2        0.0208
      7  CD       217.9460  202.0950  167.4480 C.3     2  PRO2        0.0893
      8  N        218.4880  202.9060  172.0260 N.am    3  ILE3       -0.1966
      9  CA       217.7890  203.1180  173.2820 C.3     3  ILE3        0.1727
     10  C        218.2840  204.4370  173.8450 C.2     3  ILE3        0.2616
     11  O        219.3590  204.9140  173.4850 O.2     3  ILE3       -0.2715
     12  CB       218.0430  201.9670  174.2700 C.3     3  ILE3        0.0290
     13  CG1      217.8100  200.6230  173.5770 C.3     3  ILE3        0.0022
     14  CG2      217.1320  202.0670  175.4690 C.3     3  ILE3        0.0023
     15  CD1      216.4210  200.4570  172.9970 C.3     3  ILE3        0.0001
     16  N        217.4920  205.0470  174.7250 N.am    4  TRP4       -0.1960
     17  CA       217.9460  206.3010  175.3080 C.3     4  TRP4        0.1771
     18  C        219.1460  206.0600  176.2080 C.2     4  TRP4        0.2619
     19  O        220.2190  206.6200  175.9850 O.2     4  TRP4       -0.2715
     20  CB       216.8130  207.0120  176.0410 C.3     4  TRP4        0.0590
     21  CG       216.2600  206.3460  177.2180 C.ar    4  TRP4        0.0006
     22  CD1      215.3720  205.3280  177.2320 C.ar    4  TRP4        0.0946
     23  CD2      216.4670  206.7190  178.5750 C.ar    4  TRP4        0.0152
     24  NE1      215.0490  205.0010  178.5210 N.ar    4  TRP4       -0.2442
     25  CE2      215.7070  205.8510  179.3650 C.ar    4  TRP4        0.0810
     26  CE3      217.2400  207.6910  179.2010 C.ar    4  TRP4        0.0012
     27  CZ2      215.6970  205.9230  180.7430 C.ar    4  TRP4        0.0191
     28  CZ3      217.2280  207.7600  180.5680 C.ar    4  TRP4        0.0001
     29  CH2      216.4630  206.8850  181.3250 C.ar    4  TRP4        0.0015
     30  N        219.0150  205.1790  177.1880 N.am    5  LEU5       -0.1964
     31  CA       220.2770  204.6640  177.6690 C.3     5  LEU5        0.1713
     32  C        220.3140  203.1640  177.4330 C.2     5  LEU5        0.2458
     33  O        219.3100  202.4820  177.6370 O.2     5  LEU5       -0.2730
     34  CB       220.5010  204.9700  179.1500 C.3     5  LEU5        0.0310
     35  CG       219.5850  204.3980  180.2240 C.3     5  LEU5        0.0022
     36  CD1      219.9780  202.9960  180.6140 C.3     5  LEU5        0.0001
     37  CD2      219.6320  205.2850  181.4310 C.3     5  LEU5        0.0001
     38  N        221.4550  202.6200  177.0240 N.am    6  PRO6       -0.2716
     39  CA       221.4490  201.2880  176.4180 C.3     6  PRO6        0.1536
     40  C        221.0320  200.1630  177.3470 C.2     6  PRO6        0.2599
     41  O        220.7430  199.0660  176.8530 O.2     6  PRO6       -0.2715
     42  CB       222.8920  201.1230  175.9490 C.3     6  PRO6        0.0310
     43  CG       223.3270  202.5050  175.6770 C.3     6  PRO6        0.0237
     44  CD       222.7050  203.3350  176.7450 C.3     6  PRO6        0.0939
     45  N        220.9880  200.3700  178.6600 N.am    7  GLY7       -0.1955
     46  CA       220.8030  199.2630  179.5710 C.3     7  GLY7        0.1869
     47  C        219.4870  199.1280  180.3000 C.2     7  GLY7        0.2309
     48  O        219.4150  198.3390  181.2510 O.2     7  GLY7       -0.2863
     49  N        213.0670  205.7740  171.0230 N.3    22  PHE22      -0.1241
     50  CA       214.2280  205.2060  171.6760 C.3    22  PHE22       0.1605
     51  C        213.9150  204.5250  172.9950 C.2    22  PHE22       0.2264
     52  O        214.8380  204.0910  173.6790 O.2    22  PHE22      -0.2867
     53  CB       215.2710  206.2880  171.8570 C.3    22  PHE22       0.0534
     54  CG       215.6660  206.9140  170.5670 C.ar   22  PHE22      -0.0203
     55  CD1      216.5530  206.2830  169.7260 C.ar   22  PHE22      -0.0042
     56  CD2      215.1250  208.1120  170.1800 C.ar   22  PHE22      -0.0042
     57  CE1      216.9010  206.8420  168.5430 C.ar   22  PHE22      -0.0003
     58  CE2      215.4770  208.6740  168.9990 C.ar   22  PHE22      -0.0003
     59  CZ       216.3650  208.0360  168.1790 C.ar   22  PHE22      -0.0000
     60  N        212.1540  205.9010  175.7860 N.3    24  TYR24      -0.1241
     61  CA       212.1900  206.7970  176.9370 C.3    24  TYR24       0.1605
     62  C        210.7830  207.2990  177.2090 C.2    24  TYR24       0.2264
     63  O        210.2820  208.1600  176.4890 O.2    24  TYR24      -0.2867
     64  CB       213.1240  207.9650  176.6570 C.3    24  TYR24       0.0534
     65  CG       213.0590  209.0960  177.6530 C.ar   24  TYR24      -0.0201
     66  CD1      213.7350  209.0270  178.8590 C.ar   24  TYR24      -0.0009
     67  CD2      212.3430  210.2430  177.3730 C.ar   24  TYR24      -0.0009
     68  CE1      213.6930  210.0580  179.7560 C.ar   24  TYR24       0.0417
     69  CE2      212.2980  211.2710  178.2640 C.ar   24  TYR24       0.0417
     70  CZ       212.9730  211.1700  179.4530 C.ar   24  TYR24       0.1957
     71  OH       212.9300  212.1910  180.3570 O.3    24  TYR24      -0.2866
     72  N        213.9090  213.6120  164.9100 N.3   159  LYS159     -0.1245
     73  CA       215.2080  213.7740  165.5400 C.3   159  LYS159      0.1561
     74  C        215.7140  215.2060  165.4600 C.2   159  LYS159      0.2260
     75  O        216.3980  215.6690  166.3750 O.2   159  LYS159     -0.2867
     76  CB       216.1810  212.8060  164.8980 C.3   159  LYS159      0.0271
     77  CG       217.5350  212.8220  165.4750 C.3   159  LYS159      0.0035
     78  CD       218.3000  211.7160  164.8440 C.3   159  LYS159      0.0206
     79  CE       217.7080  210.4320  165.3090 C.3   159  LYS159      0.1093
     80  NZ       217.9330  210.3780  166.7660 N.3   159  LYS159     -0.1314
     81  N        213.0580  216.9450  167.9010 N.3   162  ARG162     -0.1245
     82  CA       213.4700  216.7050  169.2770 C.3   162  ARG162      0.1563
     83  C        214.5430  217.6870  169.7050 C.2   162  ARG162      0.2260
     84  O        214.5190  218.2030  170.8230 O.2   162  ARG162     -0.2867
     85  CB       213.9930  215.2830  169.4190 C.3   162  ARG162      0.0307
     86  CG       213.0000  214.2000  169.1180 C.3   162  ARG162      0.0489
     87  CD       212.0100  214.0170  170.2210 C.3   162  ARG162      0.2205
     88  NE       211.0910  212.9240  169.9290 N.pl3 162  ARG162     -0.0865
     89  CZ       211.3850  211.6400  170.0820 C.cat 162  ARG162      0.5346
     90  NH1      212.5850  211.2740  170.4950 N.pl3 162  ARG162      0.1354
     91  NH2      210.4870  210.7170  169.7920 N.pl3 162  ARG162      0.1354
     92  N        214.3530  220.9510  172.3990 N.3   166  PHE166     -0.1241
     93  CA       215.2680  221.0150  173.5290 C.3   166  PHE166      0.1605
     94  C        216.1720  222.2320  173.4330 C.2   166  PHE166      0.2264
     95  O        216.4140  222.9150  174.4310 O.2   166  PHE166     -0.2867
     96  CB       216.0910  219.7320  173.6040 C.3   166  PHE166      0.0534
     97  CG       217.0660  219.7130  174.7300 C.ar  166  PHE166     -0.0203
     98  CD1      216.6420  219.4720  176.0190 C.ar  166  PHE166     -0.0042
     99  CD2      218.4060  219.9220  174.5030 C.ar  166  PHE166     -0.0042
    100  CE1      217.5330  219.4550  177.0600 C.ar  166  PHE166     -0.0003
    101  CE2      219.3020  219.9050  175.5440 C.ar  166  PHE166     -0.0003
    102  CZ       218.8650  219.6720  176.8240 C.ar  166  PHE166     -0.0000
@<TRIPOS>BOND
     1    78    79    1
     2    78    77    1
     3    76    77    1
     4    76    73    1
     5    72    73    1
     6    79    80    1
     7    74    73    1
     8    74    75    2
     9     7     6    1
    10     7     1    1
    11     6     5    1
    12    81    82    1
    13    59    57   ar
    14    59    58   ar
    15    57    55   ar
    16     1     2    1
    17     5     2    1
    18    58    56   ar
    19    86    85    1
    20    86    87    1
    21    82    85    1
    22    82    83    1
    23     2     3    1
    24    83    84    2
    25    55    54   ar
    26    91    89    1
    27    88    89    2
    28    88    87    1
    29    89    90    1
    30    56    54   ar
    31    54    53    1
    32     4     3    2
    33     3     8   am
    34    49    50    1
    35    50    53    1
    36    50    51    1
    37     8     9    1
    38    92    93    1
    39    51    52    2
    40    15    13    1
    41     9    10    1
    42     9    12    1
    43    94    93    1
    44    94    95    2
    45    11    10    2
    46    93    96    1
    47    13    12    1
    48    96    97    1
    49    10    16   am
    50    12    14    1
    51    99    97   ar
    52    99   101   ar
    53    16    17    1
    54    97    98   ar
    55    17    20    1
    56    17    18    1
    57   101   102   ar
    58    43    42    1
    59    43    44    1
    60    60    61    1
    61    42    39    1
    62    19    18    2
    63    98   100   ar
    64    20    21    1
    65    18    30   am
    66    39    38    1
    67    39    40    1
    68    63    62    2
    69    64    61    1
    70    64    65    1
    71    44    38    1
    72   102   100   ar
    73    41    40    2
    74    61    62    1
    75    38    32   am
    76    30    31    1
    77    21    22   ar
    78    21    23   ar
    79    22    24   ar
    80    40    45   am
    81    67    65   ar
    82    67    69   ar
    83    32    33    2
    84    32    31    1
    85    65    66   ar
    86    31    34    1
    87    69    70   ar
    88    24    25   ar
    89    23    26   ar
    90    23    25   ar
    91    45    46    1
    92    66    68   ar
    93    34    35    1
    94    26    28   ar
    95    25    27   ar
    96    70    68   ar
    97    70    71    1
    98    46    47    1
    99    35    36    1
   100    35    37    1
   101    47    48    2
   102    28    29   ar
   103    27    29   ar
