@<TRIPOS>MOLECULE
tmp/6igzV06.pdb
 128 128 0 0 0
SMALL
GASTEIGER

@<TRIPOS>ATOM
      1  N        113.2720  220.8160  243.1890 N.3     2  PRO2       -0.2116
      2  CA       113.7380  222.0810  242.5990 C.3     2  PRO2        0.1372
      3  C        115.2220  222.0620  242.2770 C.2     2  PRO2        0.2244
      4  O        115.6330  222.5460  241.2140 O.2     2  PRO2       -0.2868
      5  CB       113.3780  223.1120  243.6750 C.3     2  PRO2        0.0268
      6  CG       113.3290  222.3370  244.9360 C.3     2  PRO2        0.0207
      7  CD       112.7700  221.0080  244.5590 C.3     2  PRO2        0.0892
      8  N        118.1500  223.4160  242.7090 N.3     4  TRP4       -0.1227
      9  CA       119.0350  224.5480  242.3800 C.3     4  TRP4        0.1737
     10  C        119.1290  224.8110  240.8800 C.2     4  TRP4        0.2595
     11  O        120.0320  225.5250  240.4300 O.2     4  TRP4       -0.2718
     12  CB       120.4460  224.3930  242.9760 C.3     4  TRP4        0.0564
     13  CG       121.3180  223.3180  242.3910 C.ar    4  TRP4        0.0003
     14  CD1      121.3290  222.0020  242.7300 C.ar    4  TRP4        0.0946
     15  CD2      122.3500  223.4840  241.4090 C.ar    4  TRP4        0.0152
     16  NE1      122.2700  221.3270  241.9940 N.ar    4  TRP4       -0.2442
     17  CE2      122.9150  222.2190  241.1790 C.ar    4  TRP4        0.0810
     18  CE3      122.8420  224.5760  240.6950 C.ar    4  TRP4        0.0012
     19  CZ2      123.9450  222.0150  240.2650 C.ar    4  TRP4        0.0191
     20  CZ3      123.8630  224.3710  239.7880 C.ar    4  TRP4        0.0001
     21  CH2      124.4060  223.1030  239.5850 C.ar    4  TRP4        0.0015
     22  N        118.1620  224.3040  240.1260 N.am    5  TYR5       -0.1976
     23  CA       118.0010  224.5850  238.7040 C.3     5  TYR5        0.1639
     24  C        119.3030  224.6810  237.8970 C.2     5  TYR5        0.2290
     25  O        119.6070  225.7350  237.3230 O.2     5  TYR5       -0.2864
     26  CB       117.1680  225.8490  238.5450 C.3     5  TYR5        0.0560
     27  CG       116.8060  226.1890  237.1320 C.ar    5  TYR5       -0.0198
     28  CD1      115.9560  225.3740  236.4090 C.ar    5  TYR5       -0.0009
     29  CD2      117.2530  227.3550  236.5470 C.ar    5  TYR5       -0.0009
     30  CE1      115.6070  225.6820  235.1220 C.ar    5  TYR5        0.0417
     31  CE2      116.9040  227.6760  235.2640 C.ar    5  TYR5        0.0417
     32  CZ       116.0800  226.8380  234.5540 C.ar    5  TYR5        0.1957
     33  OH       115.7280  227.1670  233.2670 O.3     5  TYR5       -0.2866
     34  N        119.1520  219.3060  247.4900 N.3    22  TYR22      -0.1241
     35  CA       118.8820  219.8160  246.1580 C.3    22  TYR22       0.1605
     36  C        119.8190  219.2220  245.1220 C.2    22  TYR22       0.2264
     37  O        119.8450  219.6870  243.9840 O.2    22  TYR22      -0.2867
     38  CB       118.9710  221.3380  246.1470 C.3    22  TYR22       0.0534
     39  CG       117.8740  221.9910  246.9440 C.ar   22  TYR22      -0.0201
     40  CD1      116.5740  221.5220  246.8730 C.ar   22  TYR22      -0.0009
     41  CD2      118.1370  223.0630  247.7750 C.ar   22  TYR22      -0.0009
     42  CE1      115.5670  222.1110  247.5990 C.ar   22  TYR22       0.0417
     43  CE2      117.1410  223.6550  248.5030 C.ar   22  TYR22       0.0417
     44  CZ       115.8560  223.1810  248.4130 C.ar   22  TYR22       0.1957
     45  OH       114.8520  223.7750  249.1450 O.3    22  TYR22      -0.2866
     46  N        123.2660  219.2710  244.8250 N.3    24  TYR24      -0.1241
     47  CA       124.3470  220.1390  244.3820 C.3    24  TYR24       0.1605
     48  C        125.6520  219.6150  244.9630 C.2    24  TYR24       0.2264
     49  O        125.8820  219.7100  246.1730 O.2    24  TYR24      -0.2867
     50  CB       124.0970  221.5870  244.7870 C.3    24  TYR24       0.0534
     51  CG       125.2220  222.4970  244.3880 C.ar   24  TYR24      -0.0201
     52  CD1      125.5170  222.7010  243.0530 C.ar   24  TYR24      -0.0009
     53  CD2      125.9530  223.1930  245.3310 C.ar   24  TYR24      -0.0009
     54  CE1      126.5320  223.5330  242.6650 C.ar   24  TYR24       0.0417
     55  CE2      126.9690  224.0400  244.9490 C.ar   24  TYR24       0.0417
     56  CZ       127.2540  224.2040  243.6160 C.ar   24  TYR24       0.1957
     57  OH       128.2670  225.0430  243.2250 O.3    24  TYR24      -0.2866
     58  N        116.9440  223.6240  256.6620 N.3   133  LYS133     -0.1245
     59  CA       116.7840  224.5950  255.5930 C.3   133  LYS133      0.1561
     60  C        116.8120  226.0190  256.1270 C.2   133  LYS133      0.2260
     61  O        117.4000  226.9040  255.4990 O.2   133  LYS133     -0.2867
     62  CB       115.4890  224.3260  254.8360 C.3   133  LYS133      0.0271
     63  CG       115.3220  225.2180  253.6420 C.3   133  LYS133      0.0035
     64  CD       116.5040  225.0250  252.7200 C.3   133  LYS133      0.0206
     65  CE       116.3230  225.7880  251.4370 C.3   133  LYS133      0.1093
     66  NZ       117.5800  225.7940  250.6490 N.3   133  LYS133     -0.1314
     67  N        120.7080  226.8310  257.0950 N.3   136  ARG136     -0.1245
     68  CA       121.5010  227.0260  255.8850 C.3   136  ARG136      0.1563
     69  C        121.3320  228.4260  255.3250 C.2   136  ARG136      0.2260
     70  O        122.2930  229.0330  254.8460 O.2   136  ARG136     -0.2867
     71  CB       121.0830  225.9920  254.8390 C.3   136  ARG136      0.0307
     72  CG       121.7310  224.6490  255.0200 C.3   136  ARG136      0.0489
     73  CD       120.9000  223.5560  254.3850 C.3   136  ARG136      0.2205
     74  NE       120.6170  223.6760  252.9680 N.pl3 136  ARG136     -0.0865
     75  CZ       121.3660  223.1560  252.0130 C.cat 136  ARG136      0.5346
     76  NH1      122.4530  222.4720  252.3150 N.pl3 136  ARG136      0.1354
     77  NH2      121.0210  223.3010  250.7500 N.pl3 136  ARG136      0.1354
     78  N        127.3260  246.8930  244.7720 N.3   173  TYR173     -0.1241
     79  CA       127.8210  247.1270  243.4250 C.3   173  TYR173      0.1605
     80  C        128.5520  248.4530  243.3170 C.2   173  TYR173      0.2264
     81  O        129.4420  248.6110  242.4750 O.2   173  TYR173     -0.2867
     82  CB       126.6400  247.0770  242.4670 C.3   173  TYR173      0.0534
     83  CG       125.8610  245.7930  242.5760 C.ar  173  TYR173     -0.0201
     84  CD1      126.5050  244.5720  242.6580 C.ar  173  TYR173     -0.0009
     85  CD2      124.4830  245.8060  242.6510 C.ar  173  TYR173     -0.0009
     86  CE1      125.7950  243.3990  242.7660 C.ar  173  TYR173      0.0417
     87  CE2      123.7670  244.6410  242.7620 C.ar  173  TYR173      0.0417
     88  CZ       124.4270  243.4400  242.8200 C.ar  173  TYR173      0.1957
     89  OH       123.7050  242.2800  242.9350 O.3   173  TYR173     -0.2866
     90  N        128.7750  237.7100  239.1400 N.3   185  ILE185     -0.1245
     91  CA       127.3800  237.5240  238.7610 C.3   185  ILE185      0.1561
     92  C        127.2780  237.1400  237.2920 C.2   185  ILE185      0.2260
     93  O        126.5050  236.2510  236.9170 O.2   185  ILE185     -0.2867
     94  CB       126.5690  238.7930  239.0670 C.3   185  ILE185      0.0252
     95  CG1      126.6160  239.1140  240.5610 C.3   185  ILE185      0.0019
     96  CG2      125.1540  238.6090  238.6110 C.3   185  ILE185      0.0019
     97  CD1      126.0320  238.0350  241.4200 C.3   185  ILE185      0.0001
     98  N        128.4210  233.7400  236.6450 N.3   188  ALA188     -0.1231
     99  CA       127.4510  232.8220  237.2160 C.3   188  ALA188      0.1694
    100  C        126.1950  232.7020  236.3710 C.2   188  ALA188      0.2591
    101  O        125.3650  231.8350  236.6390 O.2   188  ALA188     -0.2718
    102  CB       127.0830  233.2540  238.6370 C.3   188  ALA188      0.0304
    103  N        126.0290  233.5510  235.3630 N.am  189  ALA189     -0.1980
    104  CA       124.8830  233.4020  234.4780 C.3   189  ALA189      0.1597
    105  C        125.1080  232.2880  233.4650 C.2   189  ALA189      0.2287
    106  O        124.2210  231.4600  233.2410 O.2   189  ALA189     -0.2864
    107  CB       124.5900  234.7230  233.7700 C.3   189  ALA189      0.0319
    108  N        127.1580  229.9100  233.9650 N.3   191  TRP191     -0.1228
    109  CA       127.4450  228.7160  234.7640 C.3   191  TRP191      0.1722
    110  C        126.4870  227.5580  234.5280 C.2   191  TRP191      0.2437
    111  O        126.9650  226.4310  234.3520 O.2   191  TRP191     -0.2733
    112  CB       127.4630  229.1410  236.2390 C.3   191  TRP191      0.0563
    113  CG       127.6530  228.0480  237.2240 C.ar  191  TRP191      0.0003
    114  CD1      126.7040  227.5070  238.0280 C.ar  191  TRP191      0.0946
    115  CD2      128.8790  227.3870  237.5480 C.ar  191  TRP191      0.0152
    116  NE1      127.2550  226.5380  238.8270 N.ar  191  TRP191     -0.2442
    117  CE2      128.5910  226.4460  238.5510 C.ar  191  TRP191      0.0810
    118  CE3      130.1910  227.4970  237.0830 C.ar  191  TRP191      0.0012
    119  CZ2      129.5640  225.6200  239.0970 C.ar  191  TRP191      0.0191
    120  CZ3      131.1560  226.6770  237.6270 C.ar  191  TRP191      0.0001
    121  CH2      130.8380  225.7510  238.6230 C.ar  191  TRP191      0.0015
    122  N        125.1640  227.7420  234.4970 N.am  192  PRO192     -0.2729
    123  CA       124.2940  226.5860  234.2550 C.3   192  PRO192      0.1401
    124  C        124.4110  226.0220  232.8560 C.2   192  PRO192      0.2269
    125  O        124.0680  224.8530  232.6510 O.2   192  PRO192     -0.2865
    126  CB       122.8910  227.1450  234.5160 C.3   192  PRO192      0.0296
    127  CG       123.1110  228.2960  235.4080 C.3   192  PRO192      0.0237
    128  CD       124.3700  228.9140  234.8950 C.3   192  PRO192      0.0939
@<TRIPOS>BOND
     1   125   124    2
     2   124   123    1
     3   106   105    2
     4    33    32    1
     5   105   104    1
     6   107   104    1
     7   108   109    1
     8   123   122    1
     9   123   126    1
    10   111   110    2
    11   104   103    1
    12   122   110   am
    13   122   128    1
    14   126   127    1
    15   110   109    1
    16    32    30   ar
    17    32    31   ar
    18   109   112    1
    19   128   127    1
    20    30    28   ar
    21    31    29   ar
    22   103   100   am
    23   112   113    1
    24   100   101    2
    25   100    99    1
    26    28    27   ar
    27    29    27   ar
    28    98    99    1
    29    93    92    2
    30   118   115   ar
    31   118   120   ar
    32    27    26    1
    33    99   102    1
    34   113   115   ar
    35   113   114   ar
    36    92    91    1
    37    25    24    2
    38   115   117   ar
    39   120   121   ar
    40    24    23    1
    41   114   116   ar
    42    26    23    1
    43   117   116   ar
    44   117   119   ar
    45    96    94    1
    46   121   119   ar
    47    23    22    1
    48    91    94    1
    49    91    90    1
    50    94    95    1
    51    21    20   ar
    52    21    19   ar
    53    20    18   ar
    54    22    10   am
    55    19    17   ar
    56    11    10    2
    57    95    97    1
    58    18    15   ar
    59    10     9    1
    60    17    15   ar
    61    17    16   ar
    62     4     3    2
    63    15    13   ar
    64    16    14   ar
    65     3     2    1
    66     9     8    1
    67     9    12    1
    68    13    14   ar
    69    13    12    1
    70    82    83    1
    71    82    79    1
    72    81    80    2
    73    83    85   ar
    74    83    84   ar
    75     2     1    1
    76     2     5    1
    77    85    87   ar
    78    84    86   ar
    79    54    52   ar
    80    54    56   ar
    81    87    88   ar
    82    86    88   ar
    83    88    89    1
    84    52    51   ar
    85     1     7    1
    86    57    56    1
    87    80    79    1
    88    79    78    1
    89    56    55   ar
    90     5     6    1
    91    37    36    2
    92    47    50    1
    93    47    46    1
    94    47    48    1
    95    51    50    1
    96    51    53   ar
    97     7     6    1
    98    55    53   ar
    99    48    49    2
   100    36    35    1
   101    38    35    1
   102    38    39    1
   103    35    34    1
   104    40    39   ar
   105    40    42   ar
   106    39    41   ar
   107    42    44   ar
   108    41    43   ar
   109    44    43   ar
   110    44    45    1
   111    66    65    1
   112    77    75    1
   113    65    64    1
   114    75    76    1
   115    75    74    2
   116    64    63    1
   117    74    73    1
   118    63    62    1
   119    73    72    1
   120    62    59    1
   121    71    72    1
   122    71    68    1
   123    70    69    2
   124    69    68    1
   125    61    60    2
   126    59    60    1
   127    59    58    1
   128    68    67    1
