@<TRIPOS>MOLECULE
tmp/6igzR08.pdb
 99 100 0 0 0
SMALL
GASTEIGER

@<TRIPOS>ATOM
      1  N        197.1750  216.9790  124.4280 N.3     2  PRO2       -0.2102
      2  CA       198.5160  217.4430  124.0500 C.3     2  PRO2        0.1504
      3  C        199.5690  217.0330  125.0690 C.2     2  PRO2        0.2576
      4  O        199.2880  216.2200  125.9540 O.2     2  PRO2       -0.2718
      5  CB       198.3490  218.9630  123.9740 C.3     2  PRO2        0.0282
      6  CG       197.2210  219.2500  124.8800 C.3     2  PRO2        0.0208
      7  CD       196.2860  218.0940  124.7840 C.3     2  PRO2        0.0893
      8  N        200.7770  217.5740  124.9590 N.am    3  GLY3       -0.1943
      9  CA       201.8920  217.1220  125.7640 C.3     3  GLY3        0.2014
     10  C        201.7060  217.4500  127.2330 C.2     3  GLY3        0.2639
     11  O        200.6460  217.8830  127.6840 O.2     3  GLY3       -0.2714
     12  N        202.7640  217.2140  128.0010 N.am    4  ASN4       -0.1958
     13  CA       202.6970  217.3970  129.4430 C.3     4  ASN4        0.1819
     14  C        203.5230  218.6000  129.8700 C.2     4  ASN4        0.2621
     15  O        204.4850  218.9860  129.2050 O.2     4  ASN4       -0.2715
     16  CB       203.1730  216.1550  130.1970 C.3     4  ASN4        0.1195
     17  CG       204.6340  215.8880  130.0050 C.2     4  ASN4        0.2630
     18  OD1      205.2520  216.3860  129.0680 O.2     4  ASN4       -0.2716
     19  ND2      205.2120  215.1220  130.9160 N.am    4  ASN4       -0.0877
     20  N        203.1180  219.2010  130.9860 N.am    5  TRP5       -0.1960
     21  CA       203.7540  220.4240  131.4540 C.3     5  TRP5        0.1771
     22  C        205.2460  220.2120  131.6640 C.2     5  TRP5        0.2619
     23  O        206.0440  220.6890  130.8570 O.2     5  TRP5       -0.2715
     24  CB       203.0550  220.9210  132.7170 C.3     5  TRP5        0.0590
     25  CG       203.0370  219.9590  133.8400 C.ar    5  TRP5        0.0006
     26  CD1      202.3180  218.8140  133.9160 C.ar    5  TRP5        0.0946
     27  CD2      203.6860  220.1090  135.1030 C.ar    5  TRP5        0.0152
     28  NE1      202.5240  218.2030  135.1250 N.ar    5  TRP5       -0.2442
     29  CE2      203.3550  218.9880  135.8760 C.ar    5  TRP5        0.0810
     30  CE3      204.5270  221.0740  135.6470 C.ar    5  TRP5        0.0012
     31  CZ2      203.8420  218.8050  137.1590 C.ar    5  TRP5        0.0191
     32  CZ3      205.0060  220.8890  136.9170 C.ar    5  TRP5        0.0001
     33  CH2      204.6620  219.7680  137.6610 C.ar    5  TRP5        0.0015
     34  N        205.6400  219.5050  132.6980 N.am    6  LEU6       -0.1964
     35  CA       207.0570  219.2210  132.5040 C.3     6  LEU6        0.1713
     36  C        207.2550  217.8680  131.8370 C.2     6  LEU6        0.2458
     37  O        206.4760  216.9450  132.0690 O.2     6  LEU6       -0.2730
     38  CB       207.8270  219.2690  133.8240 C.3     6  LEU6        0.0310
     39  CG       207.4270  218.4970  135.0780 C.3     6  LEU6        0.0022
     40  CD1      207.7860  217.0530  135.0120 C.3     6  LEU6        0.0001
     41  CD2      208.1330  219.1200  136.2550 C.3     6  LEU6        0.0001
     42  N        208.2740  217.7310  130.9980 N.am    7  PRO7       -0.2727
     43  CA       208.5680  216.4190  130.4080 C.3     7  PRO7        0.1402
     44  C        209.1580  215.4330  131.4010 C.2     7  PRO7        0.2269
     45  O        210.2430  214.8910  131.1770 O.2     7  PRO7       -0.2865
     46  CB       209.5720  216.7600  129.3040 C.3     7  PRO7        0.0296
     47  CG       209.2840  218.1630  128.9720 C.3     7  PRO7        0.0237
     48  CD       208.9350  218.8140  130.2620 C.3     7  PRO7        0.0939
     49  N        197.4310  219.2020  130.4730 N.3    23  TYR23      -0.1241
     50  CA       198.8180  218.8280  130.2960 C.3    23  TYR23       0.1605
     51  C        199.2640  217.8490  131.3620 C.2    23  TYR23       0.2264
     52  O        200.4530  217.5440  131.4570 O.2    23  TYR23      -0.2867
     53  CB       199.6880  220.0780  130.2980 C.3    23  TYR23       0.0534
     54  CG       199.3930  220.9840  129.1350 C.ar   23  TYR23      -0.0201
     55  CD1      199.3340  220.4900  127.8520 C.ar   23  TYR23      -0.0009
     56  CD2      199.1150  222.3210  129.3270 C.ar   23  TYR23      -0.0009
     57  CE1      199.0590  221.3070  126.7890 C.ar   23  TYR23       0.0417
     58  CE2      198.8240  223.1450  128.2690 C.ar   23  TYR23       0.0417
     59  CZ       198.7990  222.6320  127.0010 C.ar   23  TYR23       0.1957
     60  OH       198.5130  223.4450  125.9330 O.3    23  TYR23      -0.2866
     61  N        198.7220  218.2670  134.8540 N.3    25  TYR25      -0.1241
     62  CA       199.2900  219.1450  135.8660 C.3    25  TYR25       0.1605
     63  C        198.5090  218.9940  137.1710 C.2    25  TYR25       0.2264
     64  O        197.3980  219.5130  137.2980 O.2    25  TYR25      -0.2867
     65  CB       199.2330  220.5750  135.3500 C.3    25  TYR25       0.0534
     66  CG       199.8250  221.6050  136.2560 C.ar   25  TYR25      -0.0201
     67  CD1      201.1680  221.8880  136.2110 C.ar   25  TYR25      -0.0009
     68  CD2      199.0450  222.2830  137.1660 C.ar   25  TYR25      -0.0009
     69  CE1      201.7100  222.8270  137.0300 C.ar   25  TYR25       0.0417
     70  CE2      199.5840  223.2210  137.9940 C.ar   25  TYR25       0.0417
     71  CZ       200.9140  223.4890  137.9220 C.ar   25  TYR25       0.1957
     72  OH       201.4600  224.4290  138.7520 O.3    25  TYR25      -0.2866
     73  N        200.6580  219.1240  140.6870 N.3    27  PRO27      -0.2116
     74  CA       201.6830  218.9830  141.7240 C.3    27  PRO27       0.1372
     75  C        201.0980  218.6450  143.0840 C.2    27  PRO27       0.2244
     76  O        201.6440  217.7940  143.7930 O.2    27  PRO27      -0.2868
     77  CB       202.3680  220.3540  141.7160 C.3    27  PRO27       0.0268
     78  CG       202.1460  220.8600  140.3480 C.3    27  PRO27       0.0207
     79  CD       200.7680  220.4070  139.9830 C.3    27  PRO27       0.0892
     80  N        193.4260  227.6570  126.7420 N.3   147  LYS147     -0.1245
     81  CA       194.7980  228.1430  126.6450 C.3   147  LYS147      0.1561
     82  C        194.8410  229.6650  126.6460 C.2   147  LYS147      0.2260
     83  O        195.7180  230.2640  127.2780 O.2   147  LYS147     -0.2867
     84  CB       195.4680  227.5710  125.4000 C.3   147  LYS147      0.0271
     85  CG       195.7770  226.0870  125.4930 C.3   147  LYS147      0.0035
     86  CD       196.3110  225.5590  124.1740 C.3   147  LYS147      0.0206
     87  CE       197.7050  226.0380  123.8430 C.3   147  LYS147      0.1093
     88  NZ       198.7460  225.4030  124.6860 N.3   147  LYS147     -0.1314
     89  N        193.7810  230.3880  130.7420 N.3   150  ARG150     -0.1245
     90  CA       194.8600  230.2100  131.7030 C.3   150  ARG150      0.1563
     91  C        195.8940  231.3180  131.5880 C.2   150  ARG150      0.2260
     92  O        196.3380  231.8810  132.5920 O.2   150  ARG150     -0.2867
     93  CB       195.5210  228.8630  131.4580 C.3   150  ARG150      0.0307
     94  CG       194.6310  227.6820  131.6700 C.3   150  ARG150      0.0489
     95  CD       195.3550  226.4690  131.1870 C.3   150  ARG150      0.2205
     96  NE       194.5500  225.2740  131.3020 N.pl3 150  ARG150     -0.0865
     97  CZ       194.8620  224.1330  130.7140 C.cat 150  ARG150      0.5346
     98  NH1      195.9500  224.0600  129.9670 N.pl3 150  ARG150      0.1354
     99  NH2      194.0770  223.0780  130.8460 N.pl3 150  ARG150      0.1354
@<TRIPOS>BOND
     1    87    86    1
     2    87    88    1
     3     5     2    1
     4     5     6    1
     5     2     1    1
     6     2     3    1
     7    86    85    1
     8     1     7    1
     9     7     6    1
    10     8     3   am
    11     8     9    1
    12     3     4    2
    13    84    85    1
    14    84    81    1
    15     9    10    1
    16    60    59    1
    17    81    82    1
    18    81    80    1
    19    82    83    2
    20    57    59   ar
    21    57    55   ar
    22    59    58   ar
    23    10    11    2
    24    10    12   am
    25    55    54   ar
    26    12    13    1
    27    58    56   ar
    28    47    46    1
    29    47    48    1
    30    18    17    2
    31    54    56   ar
    32    54    53    1
    33    15    14    2
    34    46    43    1
    35    13    14    1
    36    13    16    1
    37    14    20   am
    38    98    97    1
    39    17    16    1
    40    17    19   am
    41    48    42    1
    42    50    53    1
    43    50    49    1
    44    50    51    1
    45    43    42    1
    46    43    44    1
    47    97    99    1
    48    97    96    2
    49    89    90    1
    50    23    22    2
    51    20    21    1
    52    42    36   am
    53    45    44    2
    54    95    96    1
    55    95    94    1
    56    51    52    2
    57    21    22    1
    58    21    24    1
    59    93    94    1
    60    93    90    1
    61    91    90    1
    62    91    92    2
    63    22    34   am
    64    36    37    2
    65    36    35    1
    66    35    34    1
    67    35    38    1
    68    24    25    1
    69    38    39    1
    70    25    26   ar
    71    25    27   ar
    72    26    28   ar
    73    61    62    1
    74    40    39    1
    75    39    41    1
    76    27    30   ar
    77    27    29   ar
    78    28    29   ar
    79    65    62    1
    80    65    66    1
    81    30    32   ar
    82    62    63    1
    83    29    31   ar
    84    67    66   ar
    85    67    69   ar
    86    66    68   ar
    87    32    33   ar
    88    69    71   ar
    89    31    33   ar
    90    68    70   ar
    91    63    64    2
    92    71    70   ar
    93    71    72    1
    94    79    78    1
    95    79    73    1
    96    78    77    1
    97    73    74    1
    98    77    74    1
    99    74    75    1
   100    75    76    2
