@<TRIPOS>MOLECULE
tmp/6igzQ06.pdb
 96 97 0 0 0
SMALL
GASTEIGER

@<TRIPOS>ATOM
      1  N        269.3180  203.6600  178.1080 N.3   160  VAL160     -0.1245
      2  CA       268.8770  204.2510  179.3670 C.3   160  VAL160      0.1561
      3  C        270.0650  204.7330  180.1740 C.2   160  VAL160      0.2260
      4  O        269.9860  205.7520  180.8700 O.2   160  VAL160     -0.2867
      5  CB       268.0260  203.2400  180.1550 C.3   160  VAL160      0.0252
      6  CG1      267.7320  203.7630  181.5340 C.3   160  VAL160      0.0019
      7  CG2      266.7420  202.9740  179.4200 C.3   160  VAL160      0.0019
      8  N        270.4400  208.6230  182.0670 N.3   164  MET164     -0.1245
      9  CA       270.6700  208.8270  183.4910 C.3   164  MET164      0.1570
     10  C        272.0790  209.3270  183.7660 C.2   164  MET164      0.2261
     11  O        272.2660  210.2680  184.5430 O.2   164  MET164     -0.2867
     12  CB       270.3930  207.5390  184.2510 C.3   164  MET164      0.0387
     13  CG       268.9670  207.0880  184.1070 C.3   164  MET164      0.0595
     14  SD       267.8320  208.3160  184.7560 S.3   164  MET164     -0.1393
     15  CE       266.2840  207.5040  184.4270 C.3   164  MET164      0.0692
     16  N        272.6900  213.4150  185.9720 N.3   168  ILE168     -0.1245
     17  CA       273.4780  213.9450  187.0770 C.3   168  ILE168      0.1561
     18  C        274.9540  214.0620  186.7270 C.2   168  ILE168      0.2260
     19  O        275.5970  215.0560  187.0710 O.2   168  ILE168     -0.2867
     20  CB       273.2320  213.1020  188.3340 C.3   168  ILE168      0.0252
     21  CG1      273.2180  211.6230  187.9990 C.3   168  ILE168      0.0019
     22  CG2      271.9580  213.5020  188.9980 C.3   168  ILE168      0.0019
     23  CD1      272.7960  210.8140  189.1710 C.3   168  ILE168      0.0001
     24  N        277.7790  206.1830  191.4090 N.3   189  ILE189     -0.1231
     25  CA       276.4250  206.5070  191.8610 C.3   189  ILE189      0.1692
     26  C        275.9720  205.3180  192.6910 C.2   189  ILE189      0.2592
     27  O        274.8650  204.7920  192.5480 O.2   189  ILE189     -0.2718
     28  CB       275.4780  206.8850  190.7090 C.3   189  ILE189      0.0266
     29  CG1      275.9670  208.2080  190.1430 C.3   189  ILE189      0.0019
     30  CG2      274.0690  207.1700  191.1960 C.3   189  ILE189      0.0020
     31  CD1      275.2770  208.6810  188.9410 C.3   189  ILE189      0.0001
     32  N        276.8940  204.8460  193.5100 N.am  190  PHE190     -0.1976
     33  CA       276.6430  203.9060  194.5780 C.3   190  PHE190      0.1639
     34  C        277.3220  204.6120  195.7330 C.2   190  PHE190      0.2290
     35  O        276.7130  204.8740  196.7710 O.2   190  PHE190     -0.2864
     36  CB       277.2190  202.5300  194.2680 C.3   190  PHE190      0.0560
     37  CG       276.6270  201.4260  195.0800 C.ar  190  PHE190     -0.0200
     38  CD1      275.4280  200.8590  194.7000 C.ar  190  PHE190     -0.0042
     39  CD2      277.2630  200.9440  196.1990 C.ar  190  PHE190     -0.0042
     40  CE1      274.8730  199.8410  195.4210 C.ar  190  PHE190     -0.0003
     41  CE2      276.7120  199.9160  196.9260 C.ar  190  PHE190     -0.0003
     42  CZ       275.5140  199.3680  196.5370 C.ar  190  PHE190     -0.0000
     43  N        264.7060  213.7330  185.0010 N.3   223  PHE223     -0.1227
     44  CA       263.7370  212.6440  185.0910 C.3   223  PHE223      0.1736
     45  C        263.6150  212.2190  186.5470 C.2   223  PHE223      0.2595
     46  O        264.4790  211.5360  187.0960 O.2   223  PHE223     -0.2718
     47  CB       264.1670  211.4790  184.2120 C.3   223  PHE223      0.0547
     48  CG       263.2440  210.3050  184.2700 C.ar  223  PHE223     -0.0202
     49  CD1      262.1160  210.2550  183.4750 C.ar  223  PHE223     -0.0042
     50  CD2      263.4980  209.2550  185.1290 C.ar  223  PHE223     -0.0042
     51  CE1      261.2660  209.1700  183.5280 C.ar  223  PHE223     -0.0003
     52  CE2      262.6530  208.1690  185.1880 C.ar  223  PHE223     -0.0003
     53  CZ       261.5360  208.1250  184.3880 C.ar  223  PHE223     -0.0000
     54  N        262.4900  212.5950  187.1520 N.am  224  PHE224     -0.1976
     55  CA       262.1060  212.2200  188.5100 C.3   224  PHE224      0.1639
     56  C        263.3000  212.2730  189.4630 C.2   224  PHE224      0.2290
     57  O        263.8270  211.2630  189.9200 O.2   224  PHE224     -0.2864
     58  CB       261.4350  210.8480  188.5160 C.3   224  PHE224      0.0560
     59  CG       260.1640  210.8080  187.7300 C.ar  224  PHE224     -0.0200
     60  CD1      259.4980  211.9740  187.4130 C.ar  224  PHE224     -0.0042
     61  CD2      259.6390  209.6080  187.3020 C.ar  224  PHE224     -0.0042
     62  CE1      258.3360  211.9410  186.6830 C.ar  224  PHE224     -0.0003
     63  CE2      258.4720  209.5730  186.5740 C.ar  224  PHE224     -0.0003
     64  CZ       257.8220  210.7390  186.2630 C.ar  224  PHE224     -0.0000
     65  N        263.1150  210.9930  193.4980 N.3   227  PHE227     -0.1227
     66  CA       263.2870  209.5930  193.8520 C.3   227  PHE227      0.1736
     67  C        264.6820  209.0670  193.5590 C.2   227  PHE227      0.2595
     68  O        264.9490  207.8890  193.8140 O.2   227  PHE227     -0.2718
     69  CB       262.2440  208.7460  193.1370 C.3   227  PHE227      0.0547
     70  CG       260.8530  209.0820  193.5330 C.ar  227  PHE227     -0.0202
     71  CD1      260.3170  208.5750  194.6990 C.ar  227  PHE227     -0.0042
     72  CD2      260.0800  209.9180  192.7520 C.ar  227  PHE227     -0.0042
     73  CE1      259.0360  208.8880  195.0770 C.ar  227  PHE227     -0.0003
     74  CE2      258.7950  210.2360  193.1230 C.ar  227  PHE227     -0.0003
     75  CZ       258.2720  209.7210  194.2870 C.ar  227  PHE227     -0.0000
     76  N        265.5730  209.9000  193.0340 N.am  228  TRP228     -0.1963
     77  CA       266.9500  209.4910  192.8600 C.3   228  TRP228      0.1756
     78  C        267.5390  209.0370  194.1840 C.2   228  TRP228      0.2461
     79  O        267.0910  209.4600  195.2510 O.2   228  TRP228     -0.2730
     80  CB       267.7710  210.6390  192.2920 C.3   228  TRP228      0.0590
     81  CG       267.5600  210.8510  190.8500 C.ar  228  TRP228      0.0006
     82  CD1      266.9430  210.0090  189.9820 C.ar  228  TRP228      0.0946
     83  CD2      267.9390  211.9960  190.0960 C.ar  228  TRP228      0.0152
     84  NE1      266.9370  210.5470  188.7230 N.ar  228  TRP228     -0.2442
     85  CE2      267.5420  211.7730  188.7700 C.ar  228  TRP228      0.0810
     86  CE3      268.5890  213.1850  190.4120 C.ar  228  TRP228      0.0012
     87  CZ2      267.7640  212.6950  187.7670 C.ar  228  TRP228      0.0191
     88  CZ3      268.7950  214.1000  189.4220 C.ar  228  TRP228      0.0001
     89  CH2      268.3950  213.8510  188.1120 C.ar  228  TRP228      0.0015
     90  N        268.5370  208.1490  194.1430 N.am  229  PRO229     -0.2727
     91  CA       269.2560  207.7200  195.3430 C.3   229  PRO229      0.1402
     92  C        269.8250  208.8990  196.1120 C.2   229  PRO229      0.2269
     93  O        270.3580  208.6870  197.1930 O.2   229  PRO229     -0.2865
     94  CB       270.3760  206.8500  194.7780 C.3   229  PRO229      0.0296
     95  CG       269.8320  206.3270  193.5230 C.3   229  PRO229      0.0237
     96  CD       268.9940  207.4260  192.9510 C.3   229  PRO229      0.0939
@<TRIPOS>BOND
     1     1     2    1
     2     2     5    1
     3     2     3    1
     4     7     5    1
     5     5     6    1
     6     3     4    2
     7     8     9    1
     8    49    51   ar
     9    49    48   ar
    10     9    10    1
    11     9    12    1
    12    51    53   ar
    13    10    11    2
    14    13    12    1
    15    13    14    1
    16    47    48    1
    17    47    44    1
    18    48    50   ar
    19    53    52   ar
    20    15    14    1
    21    43    44    1
    22    44    45    1
    23    50    52   ar
    24    16    17    1
    25    64    63   ar
    26    64    62   ar
    27    45    46    2
    28    45    54   am
    29    63    61   ar
    30    62    60   ar
    31    18    19    2
    32    18    17    1
    33    17    20    1
    34    54    55    1
    35    61    59   ar
    36    60    59   ar
    37    59    58    1
    38    87    89   ar
    39    87    85   ar
    40    21    20    1
    41    21    23    1
    42    89    88   ar
    43    20    22    1
    44    55    58    1
    45    55    56    1
    46    84    85   ar
    47    84    82   ar
    48    85    83   ar
    49    31    29    1
    50    88    86   ar
    51    56    57    2
    52    82    81   ar
    53    83    86   ar
    54    83    81   ar
    55    29    28    1
    56    28    30    1
    57    28    25    1
    58    81    80    1
    59    24    25    1
    60    25    26    1
    61    80    77    1
    62    27    26    2
    63    26    32   am
    64    72    74   ar
    65    72    70   ar
    66    77    76    1
    67    77    78    1
    68    96    95    1
    69    96    90    1
    70    76    67   am
    71    74    75   ar
    72    69    70    1
    73    69    66    1
    74    65    66    1
    75    32    33    1
    76    95    94    1
    77    70    71   ar
    78    67    68    2
    79    67    66    1
    80    90    78   am
    81    90    91    1
    82    78    79    2
    83    36    33    1
    84    36    37    1
    85    75    73   ar
    86    33    34    1
    87    71    73   ar
    88    38    37   ar
    89    38    40   ar
    90    94    91    1
    91    37    39   ar
    92    91    92    1
    93    40    42   ar
    94    34    35    2
    95    92    93    2
    96    39    41   ar
    97    42    41   ar
