@<TRIPOS>MOLECULE
tmp/6igzL05.pdb
 82 77 0 0 0
SMALL
GASTEIGER

@<TRIPOS>ATOM
      1  N        167.0970  222.3230  264.4930 N.3    61  PHE61      -0.1241
      2  CA       166.4180  223.5820  264.2210 C.3    61  PHE61       0.1605
      3  C        166.5740  224.5760  265.3620 C.2    61  PHE61       0.2264
      4  O        166.8830  225.7460  265.1150 O.2    61  PHE61      -0.2867
      5  CB       164.9360  223.3420  263.9580 C.3    61  PHE61       0.0534
      6  CG       164.6570  222.5360  262.7390 C.ar   61  PHE61      -0.0203
      7  CD1      164.6750  223.1220  261.4930 C.ar   61  PHE61      -0.0042
      8  CD2      164.3440  221.1980  262.8380 C.ar   61  PHE61      -0.0042
      9  CE1      164.4080  222.3790  260.3620 C.ar   61  PHE61      -0.0003
     10  CE2      164.0750  220.4490  261.7120 C.ar   61  PHE61      -0.0003
     11  CZ       164.1070  221.0390  260.4730 C.ar   61  PHE61      -0.0000
     12  N        169.4140  226.9200  263.5030 N.3    65  GLY65      -0.1210
     13  CA       168.4010  227.3190  262.5440 C.3    65  GLY65       0.1940
     14  C        168.8410  228.5380  261.7590 C.2    65  GLY65       0.2454
     15  O        169.9440  229.0400  261.9600 O.2    65  GLY65      -0.2732
     16  N        167.9850  229.0200  260.8490 N.am   66  PRO66      -0.2717
     17  CA       168.3380  230.2090  260.0690 C.3    66  PRO66       0.1535
     18  C        168.5030  231.3980  261.0000 C.2    66  PRO66       0.2598
     19  O        169.4460  232.1740  260.8590 O.2    66  PRO66      -0.2715
     20  CB       167.1240  230.4090  259.1570 C.3    66  PRO66       0.0310
     21  CG       166.0120  229.6590  259.8070 C.3    66  PRO66       0.0237
     22  CD       166.6550  228.4960  260.4990 C.3    66  PRO66       0.0939
     23  N        167.5840  231.5280  261.9500 N.am   67  LEU67      -0.1978
     24  CA       167.6220  232.6090  262.9230 C.3    67  LEU67       0.1596
     25  C        168.0860  232.0660  264.2680 C.2    67  LEU67       0.2287
     26  O        167.3220  231.4230  264.9850 O.2    67  LEU67      -0.2864
     27  CB       166.2430  233.2520  263.0640 C.3    67  LEU67       0.0297
     28  CG       165.0490  232.3640  262.7130 C.3    67  LEU67       0.0022
     29  CD1      165.1640  231.0160  263.4060 C.3    67  LEU67       0.0001
     30  CD2      163.7470  233.0530  263.0880 C.3    67  LEU67       0.0001
     31  N        161.1430  229.1490  266.7590 N.3    78  ALA78      -0.1231
     32  CA       161.3530  229.0580  265.3190 C.3    78  ALA78       0.1694
     33  C        161.8130  227.6620  264.9310 C.2    78  ALA78       0.2592
     34  O        161.5010  227.1680  263.8420 O.2    78  ALA78      -0.2718
     35  CB       162.3680  230.1030  264.8650 C.3    78  ALA78       0.0304
     36  N        162.5650  227.0110  265.8140 N.am   79  GLY79      -0.1957
     37  CA       162.9300  225.6310  265.5680 C.3    79  GLY79       0.1869
     38  C        161.8100  224.6690  265.9090 C.2    79  GLY79       0.2309
     39  O        161.6210  223.6550  265.2330 O.2    79  GLY79      -0.2863
     40  N        158.5200  225.2210  265.7160 N.3    81  LEU81      -0.1231
     41  CA       157.5200  225.2610  264.6550 C.3    81  LEU81       0.1693
     42  C        157.9770  224.4600  263.4420 C.2    81  LEU81       0.2592
     43  O        157.2240  223.6410  262.9050 O.2    81  LEU81      -0.2718
     44  CB       157.2220  226.7080  264.2620 C.3    81  LEU81       0.0284
     45  CG       156.5790  227.6030  265.3170 C.3    81  LEU81       0.0019
     46  CD1      156.4140  229.0100  264.7830 C.3    81  LEU81       0.0001
     47  CD2      155.2470  227.0370  265.7580 C.3    81  LEU81       0.0001
     48  N        159.2190  224.6740  263.0080 N.am   82  SER82      -0.1952
     49  CA       159.7170  223.9950  261.8170 C.3    82  SER82       0.1924
     50  C        159.9530  222.5160  262.0870 C.2    82  SER82       0.2314
     51  O        159.6660  221.6650  261.2390 O.2    82  SER82      -0.2863
     52  CB       160.9980  224.6690  261.3400 C.3    82  SER82       0.2116
     53  OG       160.7370  226.0100  260.9750 O.3    82  SER82      -0.2180
     54  N        157.0210  220.7230  261.5820 N.3    85  LEU85      -0.1245
     55  CA       156.6120  220.5120  260.1990 C.3    85  LEU85       0.1561
     56  C        157.0240  219.1330  259.7220 C.2    85  LEU85       0.2260
     57  O        156.2090  218.3950  259.1580 O.2    85  LEU85      -0.2867
     58  CB       157.2170  221.5820  259.2990 C.3    85  LEU85       0.0270
     59  CG       156.8890  222.9650  259.8320 C.3    85  LEU85       0.0019
     60  CD1      157.3650  224.0570  258.9000 C.3    85  LEU85       0.0001
     61  CD2      155.4260  223.0630  260.1620 C.3    85  LEU85       0.0001
     62  N        154.5590  217.1420  260.4790 N.3    88  ILE88      -0.1231
     63  CA       153.3650  217.1830  259.6400 C.3    88  ILE88       0.1692
     64  C        153.6600  216.6380  258.2470 C.2    88  ILE88       0.2591
     65  O        152.8010  216.0040  257.6220 O.2    88  ILE88      -0.2718
     66  CB       152.7960  218.6140  259.5970 C.3    88  ILE88       0.0266
     67  CG1      152.2290  218.9940  260.9660 C.3    88  ILE88       0.0019
     68  CG2      151.7320  218.7450  258.5310 C.3    88  ILE88       0.0020
     69  CD1      151.8570  220.4500  261.0990 C.3    88  ILE88       0.0001
     70  N        154.8740  216.8580  257.7380 N.am   89  ILE89      -0.1980
     71  CA       155.2170  216.3240  256.4200 C.3    89  ILE89       0.1595
     72  C        155.2390  214.8020  256.4470 C.2    89  ILE89       0.2287
     73  O        154.5940  214.1410  255.6260 O.2    89  ILE89      -0.2864
     74  CB       156.5580  216.8930  255.9210 C.3    89  ILE89       0.0276
     75  CG1      156.4130  218.3460  255.4660 C.3    89  ILE89       0.0022
     76  CG2      157.0960  216.0580  254.7850 C.3    89  ILE89       0.0022
     77  CD1      156.9620  219.3550  256.4100 C.3    89  ILE89       0.0001
     78  N        152.1350  212.8170  256.0550 N.3    92  ALA92      -0.1245
     79  CA       151.7050  212.6190  254.6800 C.3    92  ALA92       0.1562
     80  C        152.4520  211.4590  254.0460 C.2    92  ALA92       0.2260
     81  O        151.8430  210.6100  253.3870 O.2    92  ALA92      -0.2867
     82  CB       151.9110  213.8990  253.8780 C.3    92  ALA92       0.0290
@<TRIPOS>BOND
     1    81    80    2
     2    82    79    1
     3    80    79    1
     4    79    78    1
     5    76    74    1
     6    75    74    1
     7    75    77    1
     8    73    72    2
     9    74    71    1
    10    71    72    1
    11    71    70    1
    12    65    64    2
    13    70    64   am
    14    64    63    1
    15    68    66    1
    16    60    59    1
    17    20    21    1
    18    20    17    1
    19    57    56    2
    20    58    59    1
    21    58    55    1
    22    66    63    1
    23    66    67    1
    24    63    62    1
    25    56    55    1
    26    21    22    1
    27    59    61    1
    28    17    16    1
    29    17    18    1
    30    55    54    1
    31     9    11   ar
    32     9     7   ar
    33    11    10   ar
    34    22    16    1
    35    16    14   am
    36    19    18    2
    37    67    69    1
    38    53    52    1
    39    18    23   am
    40    51    50    2
    41    52    49    1
    42     7     6   ar
    43    10     8   ar
    44    14    15    2
    45    14    13    1
    46    49    50    1
    47    49    48    1
    48    23    24    1
    49    13    12    1
    50    28    27    1
    51    28    30    1
    52    28    29    1
    53     6     8   ar
    54     6     5    1
    55    43    42    2
    56    24    27    1
    57    24    25    1
    58    48    42   am
    59    42    41    1
    60    34    33    2
    61     5     2    1
    62     2     1    1
    63     2     3    1
    64    44    41    1
    65    44    45    1
    66    25    26    2
    67    41    40    1
    68    46    45    1
    69    35    32    1
    70    33    32    1
    71    33    36   am
    72     4     3    2
    73    39    38    2
    74    45    47    1
    75    32    31    1
    76    37    36    1
    77    37    38    1
