@<TRIPOS>MOLECULE
tmp/6igzF03.pdb
 83 81 0 0 0
SMALL
GASTEIGER

@<TRIPOS>ATOM
      1  N        199.6060  234.9270  196.2340 N.3    86  ASP86      -0.1225
      2  CA       199.0930  234.6340  197.5630 C.3    86  ASP86       0.1805
      3  C        198.4270  233.2660  197.6130 C.2    86  ASP86       0.2597
      4  O        198.7340  232.4480  198.4860 O.2    86  ASP86      -0.2718
      5  CB       198.1390  235.7490  197.9820 C.3    86  ASP86       0.1424
      6  CG       197.0640  236.0140  196.9540 C.2    86  ASP86       0.3668
      7  OD1      197.0360  235.3050  195.9310 O.co2  86  ASP86      -0.2456
      8  OD2      196.2670  236.9520  197.1470 O.co2  86  ASP86      -0.2456
      9  N        197.5080  233.0000  196.6920 N.am   87  ILE87      -0.1980
     10  CA       196.8260  231.7090  196.6090 C.3    87  ILE87       0.1595
     11  C        196.9220  231.2040  195.1770 C.2    87  ILE87       0.2287
     12  O        197.3110  230.0600  194.9330 O.2    87  ILE87      -0.2864
     13  CB       195.3640  231.7860  197.0730 C.3    87  ILE87       0.0276
     14  CG1      195.2860  232.2020  198.5370 C.3    87  ILE87       0.0022
     15  CG2      194.7140  230.4370  196.9230 C.3    87  ILE87       0.0022
     16  CD1      194.9730  233.6620  198.7430 C.3    87  ILE87       0.0001
     17  N        200.0390  229.3640  194.2990 N.3    90  PRO90      -0.2102
     18  CA       200.2200  228.1720  195.1380 C.3    90  PRO90       0.1504
     19  C        199.0020  227.2720  195.2060 C.2    90  PRO90       0.2576
     20  O        199.1410  226.1130  195.6110 O.2    90  PRO90      -0.2718
     21  CB       200.5700  228.7540  196.5120 C.3    90  PRO90       0.0282
     22  CG       200.0110  230.0950  196.4950 C.3    90  PRO90       0.0208
     23  CD       200.2200  230.5860  195.1000 C.3    90  PRO90       0.0893
     24  N        197.8160  227.7440  194.8270 N.am   91  THR91      -0.1953
     25  CA       196.7070  226.8080  194.7330 C.3    91  THR91       0.1897
     26  C        196.8950  225.8510  193.5760 C.2    91  THR91       0.2313
     27  O        196.2560  224.8000  193.5490 O.2    91  THR91      -0.2863
     28  CB       195.3680  227.5300  194.5900 C.3    91  THR91       0.1794
     29  OG1      194.3050  226.5840  194.7240 O.3    91  THR91      -0.2208
     30  CG2      195.2500  228.1580  193.2390 C.3    91  THR91       0.0378
     31  N        199.8030  223.3240  195.2150 N.3    94  PHE94      -0.1227
     32  CA       199.2760  222.3130  196.1190 C.3    94  PHE94       0.1736
     33  C        198.6380  221.1640  195.3610 C.2    94  PHE94       0.2595
     34  O        198.9590  219.9970  195.6030 O.2    94  PHE94      -0.2718
     35  CB       198.2620  222.9110  197.0830 C.3    94  PHE94       0.0547
     36  CG       197.5310  221.8740  197.8640 C.ar   94  PHE94      -0.0202
     37  CD1      198.1310  221.2470  198.9340 C.ar   94  PHE94      -0.0042
     38  CD2      196.2580  221.5020  197.5070 C.ar   94  PHE94      -0.0042
     39  CE1      197.4680  220.2760  199.6340 C.ar   94  PHE94      -0.0003
     40  CE2      195.5990  220.5310  198.2000 C.ar   94  PHE94      -0.0003
     41  CZ       196.2050  219.9160  199.2640 C.ar   94  PHE94      -0.0000
     42  N        197.7150  221.4720  194.4510 N.am   95  ILE95      -0.1980
     43  CA       196.9950  220.4110  193.7550 C.3    95  ILE95       0.1595
     44  C        197.9670  219.4250  193.1330 C.2    95  ILE95       0.2287
     45  O        197.7840  218.2070  193.2270 O.2    95  ILE95      -0.2864
     46  CB       196.0440  221.0030  192.7050 C.3    95  ILE95       0.0276
     47  CG1      195.0250  221.9090  193.3750 C.3    95  ILE95       0.0022
     48  CG2      195.3350  219.9000  191.9710 C.3    95  ILE95       0.0022
     49  CD1      194.1920  221.2070  194.3790 C.3    95  ILE95       0.0001
     50  N        199.3430  217.5420  196.0510 N.3    98  ALA98      -0.1231
     51  CA       198.4010  216.6300  196.6800 C.3    98  ALA98       0.1694
     52  C        197.9500  215.5320  195.7320 C.2    98  ALA98       0.2592
     53  O        197.9090  214.3590  196.1050 O.2    98  ALA98      -0.2718
     54  CB       197.1970  217.4040  197.1930 C.3    98  ALA98       0.0304
     55  N        197.5750  215.8890  194.5130 N.am   99  GLY99      -0.1957
     56  CA       197.1590  214.8650  193.5780 C.3    99  GLY99       0.1869
     57  C        198.2600  213.8720  193.2800 C.2    99  GLY99       0.2309
     58  O        197.9920  212.6880  193.0600 O.2    99  GLY99      -0.2863
     59  N        200.6170  212.6110  195.3220 N.3   101  THR101     -0.1203
     60  CA       200.4740  211.5520  196.3120 C.3   101  THR101      0.1994
     61  C        199.1020  210.9080  196.2530 C.2   101  THR101      0.2618
     62  O        198.9500  209.7420  196.6270 O.2   101  THR101     -0.2717
     63  CB       200.7330  212.0720  197.7170 C.3   101  THR101      0.1784
     64  OG1      200.5490  210.9960  198.6390 O.3   101  THR101     -0.2211
     65  CG2      199.7910  213.1750  198.0740 C.3   101  THR101      0.0376
     66  N        198.0920  211.6400  195.7910 N.am  102  GLY102     -0.1956
     67  CA       196.7800  211.0390  195.6450 C.3   102  GLY102      0.1869
     68  C        196.7710  209.9580  194.5860 C.2   102  GLY102      0.2309
     69  O        196.3630  208.8250  194.8390 O.2   102  GLY102     -0.2863
     70  N        200.4360  213.1920  186.6150 N.3   140  TRP140     -0.1241
     71  CA       199.1200  212.6120  186.8200 C.3   140  TRP140      0.1605
     72  C        197.9980  213.3940  186.1470 C.2   140  TRP140      0.2264
     73  O        197.0390  212.7440  185.7000 O.2   140  TRP140     -0.2867
     74  CB       198.8270  212.4250  188.3160 C.3   140  TRP140      0.0550
     75  CG       198.7680  213.6520  189.1290 C.ar  140  TRP140      0.0003
     76  CD1      199.7930  214.2460  189.7810 C.ar  140  TRP140      0.0946
     77  CD2      197.6070  214.4350  189.4050 C.ar  140  TRP140      0.0152
     78  NE1      199.3500  215.3590  190.4460 N.ar  140  TRP140     -0.2442
     79  CE2      198.0070  215.4960  190.2260 C.ar  140  TRP140      0.0810
     80  CE3      196.2680  214.3440  189.0280 C.ar  140  TRP140      0.0012
     81  CZ2      197.1220  216.4650  190.6730 C.ar  140  TRP140      0.0191
     82  CZ3      195.3910  215.3020  189.4760 C.ar  140  TRP140      0.0001
     83  CH2      195.8180  216.3460  190.2920 C.ar  140  TRP140      0.0015
@<TRIPOS>BOND
     1    73    72    2
     2    72    71    1
     3    70    71    1
     4    71    74    1
     5    74    75    1
     6    80    77   ar
     7    80    82   ar
     8    75    77   ar
     9    75    76   ar
    10    77    79   ar
    11    82    83   ar
    12    76    78   ar
    13    79    78   ar
    14    79    81   ar
    15    83    81   ar
    16    48    46    1
    17    46    47    1
    18    46    43    1
    19    58    57    2
    20    44    45    2
    21    44    43    1
    22    30    28    1
    23    57    56    1
    24    47    49    1
    25    27    26    2
    26    26    25    1
    27    56    55    1
    28    43    42    1
    29    17    23    1
    30    17    18    1
    31    42    33   am
    32    55    52   am
    33    68    69    2
    34    68    67    1
    35    28    29    1
    36    28    25    1
    37    25    24    1
    38    24    19   am
    39    12    11    2
    40    23    22    1
    41    18    19    1
    42    18    21    1
    43    11    10    1
    44    19    20    2
    45    31    32    1
    46    59    60    1
    47    33    34    2
    48    33    32    1
    49    67    66    1
    50    52    53    2
    51    52    51    1
    52    66    61   am
    53     7     6   ar
    54    50    51    1
    55    32    35    1
    56     1     2    1
    57    61    60    1
    58    61    62    2
    59    60    63    1
    60    22    21    1
    61    10     9    1
    62    10    13    1
    63    51    54    1
    64     9     3   am
    65    15    13    1
    66     6     8   ar
    67     6     5    1
    68    13    14    1
    69    35    36    1
    70    38    36   ar
    71    38    40   ar
    72     2     3    1
    73     2     5    1
    74     3     4    2
    75    63    65    1
    76    63    64    1
    77    36    37   ar
    78    40    41   ar
    79    14    16    1
    80    37    39   ar
    81    41    39   ar
