@<TRIPOS>MOLECULE
tmp/6igzS15.pdb
 125 119 0 0 0
SMALL
GASTEIGER

@<TRIPOS>ATOM
      1  N        284.1110  196.7160  217.7890 N.3    72  TYR72      -0.1241
      2  CA       282.7280  196.9370  217.3850 C.3    72  TYR72       0.1605
      3  C        282.5820  198.1080  216.4360 C.2    72  TYR72       0.2264
      4  O        281.5140  198.2740  215.8470 O.2    72  TYR72      -0.2867
      5  CB       281.8590  197.1490  218.6240 C.3    72  TYR72       0.0534
      6  CG       280.4020  197.4740  218.3880 C.ar   72  TYR72      -0.0201
      7  CD1      279.4800  196.4770  218.1390 C.ar   72  TYR72      -0.0009
      8  CD2      279.9510  198.7800  218.4390 C.ar   72  TYR72      -0.0009
      9  CE1      278.1570  196.7700  217.9400 C.ar   72  TYR72       0.0417
     10  CE2      278.6310  199.0810  218.2370 C.ar   72  TYR72       0.0417
     11  CZ       277.7350  198.0720  217.9880 C.ar   72  TYR72       0.1957
     12  OH       276.4070  198.3690  217.7840 O.3    72  TYR72      -0.2866
     13  N        284.5440  200.1510  211.2880 N.3    75  GLY75      -0.1225
     14  CA       283.9470  200.4340  210.0040 C.3    75  GLY75       0.1811
     15  C        284.3760  201.7340  209.3680 C.2    75  GLY75       0.2280
     16  O        284.7940  201.7630  208.2110 O.2    75  GLY75      -0.2866
     17  N        286.8670  205.4600  199.6550 N.3    88  ASN88      -0.1225
     18  CA       285.4830  205.8920  199.5040 C.3    88  ASN88       0.1785
     19  C        284.5040  204.7400  199.6700 C.2    88  ASN88       0.2597
     20  O        284.0440  204.1800  198.6730 O.2    88  ASN88      -0.2718
     21  CB       285.2880  206.5700  198.1480 C.3    88  ASN88       0.1169
     22  CG       283.9020  207.1340  197.9750 C.2    88  ASN88       0.2627
     23  OD1      283.2260  207.4600  198.9470 O.2    88  ASN88      -0.2716
     24  ND2      283.4750  207.2710  196.7290 N.am   88  ASN88      -0.0877
     25  N        284.2060  204.3610  200.9150 N.am   89  LEU89      -0.1966
     26  CA       283.4320  203.1620  201.2290 C.3    89  LEU89       0.1728
     27  C        282.2470  202.9680  200.3000 C.2    89  LEU89       0.2616
     28  O        281.9380  201.8380  199.9130 O.2    89  LEU89      -0.2715
     29  CB       282.8880  203.2180  202.6550 C.3    89  LEU89       0.0311
     30  CG       283.8180  203.2480  203.8550 C.3    89  LEU89       0.0022
     31  CD1      282.9750  203.3780  205.1040 C.3    89  LEU89       0.0001
     32  CD2      284.6570  201.9980  203.8970 C.3    89  LEU89       0.0001
     33  N        281.5760  204.0550  199.9410 N.am   90  GLY90      -0.1955
     34  CA       280.4950  203.9500  198.9830 C.3    90  GLY90       0.1869
     35  C        280.9160  203.2870  197.6890 C.2    90  GLY90       0.2309
     36  O        280.0770  202.7640  196.9530 O.2    90  GLY90      -0.2863
     37  N        281.6390  199.4240  199.1470 N.3    93  LEU93      -0.1245
     38  CA       280.4060  198.6530  199.1990 C.3    93  LEU93       0.1561
     39  C        279.9470  198.2910  197.8000 C.2    93  LEU93       0.2260
     40  O        279.4180  197.1990  197.5710 O.2    93  LEU93      -0.2867
     41  CB       279.3240  199.4360  199.9310 C.3    93  LEU93       0.0270
     42  CG       277.9960  198.6970  200.0130 C.3    93  LEU93       0.0019
     43  CD1      278.1670  197.4150  200.8030 C.3    93  LEU93       0.0001
     44  CD2      276.9480  199.5730  200.6420 C.3    93  LEU93       0.0001
     45  N        280.0210  184.5490  219.2410 N.3   169  TRP169     -0.1241
     46  CA       280.0330  185.8080  218.5090 C.3   169  TRP169      0.1605
     47  C        278.9870  186.7580  219.0590 C.2   169  TRP169      0.2264
     48  O        279.2250  187.9640  219.1550 O.2   169  TRP169     -0.2867
     49  CB       279.7910  185.5700  217.0250 C.3   169  TRP169      0.0550
     50  CG       279.9080  186.8110  216.2210 C.ar  169  TRP169      0.0003
     51  CD1      281.0160  187.2720  215.5850 C.ar  169  TRP169      0.0946
     52  CD2      278.8830  187.7770  215.9870 C.ar  169  TRP169      0.0152
     53  NE1      280.7450  188.4560  214.9530 N.ar  169  TRP169     -0.2442
     54  CE2      279.4410  188.7920  215.1930 C.ar  169  TRP169      0.0810
     55  CE3      277.5460  187.8820  216.3720 C.ar  169  TRP169      0.0012
     56  CZ2      278.7110  189.8920  214.7740 C.ar  169  TRP169      0.0191
     57  CZ3      276.8250  188.9780  215.9590 C.ar  169  TRP169      0.0001
     58  CH2      277.4070  189.9680  215.1680 C.ar  169  TRP169      0.0015
     59  N        279.2500  190.8330  220.5010 N.3   173  ALA173     -0.1245
     60  CA       278.5090  192.0250  220.1130 C.3   173  ALA173      0.1562
     61  C        277.8500  192.6820  221.3110 C.2   173  ALA173      0.2260
     62  O        277.7020  193.9040  221.3440 O.2   173  ALA173     -0.2867
     63  CB       277.4660  191.6750  219.0590 C.3   173  ALA173      0.0290
     64  N        279.4490  196.0120  223.3330 N.3   177  GLN177     -0.1245
     65  CA       278.4320  197.0480  223.3230 C.3   177  GLN177      0.1566
     66  C        278.2770  197.6870  224.6940 C.2   177  GLN177      0.2260
     67  O        278.2650  198.9120  224.8170 O.2   177  GLN177     -0.2867
     68  CB       277.1280  196.4320  222.8510 C.3   177  GLN177      0.0367
     69  CG       276.0060  197.3580  222.6090 C.3   177  GLN177      0.0905
     70  CD       274.8860  196.6320  221.9360 C.2   177  GLN177      0.2608
     71  OE1      275.0480  195.5000  221.4970 O.2   177  GLN177     -0.2717
     72  NE2      273.7360  197.2490  221.8880 N.am  177  GLN177     -0.0878
     73  N        279.6960  209.5150  208.5840 N.3   214  VAL214     -0.1231
     74  CA       280.8960  209.5240  207.7600 C.3   214  VAL214      0.1692
     75  C        280.8660  210.6900  206.7830 C.2   214  VAL214      0.2592
     76  O        281.5500  211.6980  206.9820 O.2   214  VAL214     -0.2718
     77  CB       281.0490  208.1920  207.0120 C.3   214  VAL214      0.0266
     78  CG1      282.3010  208.2130  206.1600 C.3   214  VAL214      0.0020
     79  CG2      281.0760  207.0440  207.9980 C.3   214  VAL214      0.0020
     80  N        280.0670  210.5670  205.7300 N.am  215  GLY215     -0.1957
     81  CA       280.0010  211.5970  204.7130 C.3   215  GLY215      0.1869
     82  C        278.7720  212.4730  204.8410 C.2   215  GLY215      0.2309
     83  O        278.3450  213.1080  203.8720 O.2   215  GLY215     -0.2863
     84  N        274.6990  210.3720  209.4870 N.3   218  ASN218     -0.1225
     85  CA       274.4220  209.0750  208.8990 C.3   218  ASN218      0.1785
     86  C        274.3570  208.0210  209.9900 C.2   218  ASN218      0.2597
     87  O        274.7590  208.2500  211.1320 O.2   218  ASN218     -0.2718
     88  CB       275.5090  208.6880  207.8860 C.3   218  ASN218      0.1169
     89  CG       275.7350  209.7450  206.8300 C.2   218  ASN218      0.2627
     90  OD1      276.8700  210.1160  206.5470 O.2   218  ASN218     -0.2716
     91  ND2      274.6600  210.2430  206.2530 N.am  218  ASN218     -0.0877
     92  N        273.8460  206.8530  209.6140 N.am  219  ILE219     -0.1980
     93  CA       274.0720  205.6150  210.3510 C.3   219  ILE219      0.1595
     94  C        273.6020  205.7390  211.7950 C.2   219  ILE219      0.2287
     95  O        274.4340  205.9000  212.6910 O.2   219  ILE219     -0.2864
     96  CB       275.5560  205.2350  210.3020 C.3   219  ILE219      0.0276
     97  CG1      276.0150  205.1530  208.8550 C.3   219  ILE219      0.0022
     98  CG2      275.7790  203.8810  210.9310 C.3   219  ILE219      0.0022
     99  CD1      277.5070  205.0520  208.7030 C.3   219  ILE219      0.0001
    100  N        271.2570  201.9160  217.0750 N.3   222  TYR222     -0.1227
    101  CA       270.1430  201.6450  217.9740 C.3   222  TYR222      0.1736
    102  C        270.4790  200.6850  219.0960 C.2   222  TYR222      0.2596
    103  O        269.5640  200.2440  219.7950 O.2   222  TYR222     -0.2718
    104  CB       268.9400  201.1260  217.1960 C.3   222  TYR222      0.0548
    105  CG       268.3380  202.2080  216.3670 C.ar  222  TYR222     -0.0200
    106  CD1      267.4930  203.1360  216.9440 C.ar  222  TYR222     -0.0009
    107  CD2      268.6200  202.3190  215.0200 C.ar  222  TYR222     -0.0009
    108  CE1      266.9410  204.1470  216.2070 C.ar  222  TYR222      0.0417
    109  CE2      268.0680  203.3260  214.2670 C.ar  222  TYR222      0.0417
    110  CZ       267.2260  204.2400  214.8700 C.ar  222  TYR222      0.1957
    111  OH       266.6590  205.2580  214.1430 O.3   222  TYR222     -0.2866
    112  N        271.7460  200.3150  219.2470 N.am  223  CYS223     -0.1956
    113  CA       272.2120  199.4050  220.2860 C.3   223  CYS223      0.1843
    114  C        271.3320  198.1650  220.3330 C.2   223  CYS223      0.2625
    115  O        270.9500  197.6490  219.2820 O.2   223  CYS223     -0.2714
    116  CB       272.2860  200.0880  221.6600 C.3   223  CYS223      0.0997
    117  SG       270.7850  200.8060  222.3600 S.3   223  CYS223     -0.0797
    118  N        271.0110  197.6660  221.5270 N.am  224  LEU224     -0.1977
    119  CA       270.1820  196.4700  221.5940 C.3   224  LEU224      0.1596
    120  C        269.0810  196.6080  222.6390 C.2   224  LEU224      0.2287
    121  O        267.9020  196.7200  222.2970 O.2   224  LEU224     -0.2864
    122  CB       271.0630  195.2620  221.8690 C.3   224  LEU224      0.0297
    123  CG       270.4150  193.9100  221.6890 C.3   224  LEU224      0.0022
    124  CD1      269.9510  193.8500  220.2650 C.3   224  LEU224      0.0001
    125  CD2      271.4690  192.8640  221.9260 C.3   224  LEU224      0.0001
@<TRIPOS>BOND
     1    24    22   am
     2    36    35    2
     3    40    39    2
     4    35    34    1
     5    39    38    1
     6    22    21    1
     7    22    23    2
     8    21    18    1
     9    20    19    2
    10    34    33    1
    11    37    38    1
    12    38    41    1
    13    18    17    1
    14    18    19    1
    15    19    25   am
    16    28    27    2
    17    41    42    1
    18    33    27   am
    19    42    44    1
    20    42    43    1
    21    27    26    1
    22    25    26    1
    23    26    29    1
    24    29    30    1
    25    30    32    1
    26    30    31    1
    27    83    82    2
    28    81    82    1
    29    81    80    1
    30    80    75   am
    31    78    77    1
    32    91    89   am
    33    90    89    2
    34    75    76    2
    35    75    74    1
    36    89    88    1
    37    77    74    1
    38    77    79    1
    39    74    73    1
    40    88    85    1
    41    16    15    2
    42    99    97    1
    43    97    96    1
    44    85    84    1
    45    85    86    1
    46    15    14    1
    47    92    86   am
    48    92    93    1
    49    86    87    2
    50    14    13    1
    51    96    93    1
    52    96    98    1
    53    93    94    1
    54    94    95    2
    55   111   110    1
    56   109   110   ar
    57   109   107   ar
    58    56    58   ar
    59    56    54   ar
    60   110   108   ar
    61    53    54   ar
    62    53    51   ar
    63   107   105   ar
    64    58    57   ar
    65    54    52   ar
    66    51    50   ar
    67     4     3    2
    68    57    55   ar
    69    52    50   ar
    70    52    55   ar
    71   108   106   ar
    72    50    49    1
    73   105   106   ar
    74   105   104    1
    75     3     2    1
    76    49    46    1
    77   100   101    1
    78   104   101    1
    79     2     1    1
    80     2     5    1
    81    12    11    1
    82     9    11   ar
    83     9     7   ar
    84   101   102    1
    85    11    10   ar
    86     7     6   ar
    87    10     8   ar
    88     6     8   ar
    89     6     5    1
    90    46    47    1
    91    46    45    1
    92    47    48    2
    93    63    60    1
    94   102   112   am
    95   102   103    2
    96   112   113    1
    97   115   114    2
    98    60    59    1
    99    60    61    1
   100   124   123    1
   101   113   114    1
   102   113   116    1
   103   114   118   am
   104    61    62    2
   105    71    70    2
   106   118   119    1
   107   119   122    1
   108   119   120    1
   109   116   117    1
   110   123   122    1
   111   123   125    1
   112    72    70   am
   113    70    69    1
   114   121   120    2
   115    69    68    1
   116    68    65    1
   117    65    64    1
   118    65    66    1
   119    66    67    2
