@<TRIPOS>MOLECULE
tmp/6igzQ24.pdb
 166 163 0 0 0
SMALL
GASTEIGER

@<TRIPOS>ATOM
      1  N        265.6290  198.0940  167.1440 N.3    48  ARG48      -0.1231
      2  CA       266.2970  198.5510  165.9380 C.3    48  ARG48       0.1694
      3  C        266.4470  200.0610  165.8770 C.2    48  ARG48       0.2592
      4  O        267.3370  200.5460  165.1760 O.2    48  ARG48      -0.2718
      5  CB       265.5590  198.0320  164.7160 C.3    48  ARG48       0.0321
      6  CG       265.7170  196.5440  164.5570 C.3    48  ARG48       0.0489
      7  CD       265.0010  196.0410  163.3440 C.3    48  ARG48       0.2205
      8  NE       265.1370  194.6010  163.2090 N.pl3  48  ARG48      -0.0865
      9  CZ       264.4500  193.8810  162.3380 C.cat  48  ARG48       0.5346
     10  NH1      263.5770  194.4730  161.5450 N.pl3  48  ARG48       0.1354
     11  NH2      264.6220  192.5750  162.2700 N.pl3  48  ARG48       0.1354
     12  N        265.6250  200.8230  166.5910 N.am   49  TRP49      -0.1976
     13  CA       265.9300  202.2430  166.6760 C.3    49  TRP49       0.1640
     14  C        267.0280  202.5100  167.6860 C.2    49  TRP49       0.2290
     15  O        267.9120  203.3330  167.4350 O.2    49  TRP49      -0.2864
     16  CB       264.6940  203.0590  167.0290 C.3    49  TRP49       0.0576
     17  CG       263.7370  203.2090  165.9150 C.ar   49  TRP49       0.0006
     18  CD1      262.5670  202.5470  165.7490 C.ar   49  TRP49       0.0946
     19  CD2      263.8860  204.0570  164.7780 C.ar   49  TRP49       0.0152
     20  NE1      261.9590  202.9480  164.5890 N.ar   49  TRP49      -0.2442
     21  CE2      262.7540  203.8760  163.9750 C.ar   49  TRP49       0.0810
     22  CE3      264.8670  204.9590  164.3660 C.ar   49  TRP49       0.0012
     23  CZ2      262.5740  204.5600  162.7860 C.ar   49  TRP49       0.0191
     24  CZ3      264.6840  205.6400  163.1870 C.ar   49  TRP49       0.0001
     25  CH2      263.5500  205.4360  162.4090 C.ar   49  TRP49       0.0015
     26  N        269.5400  200.5430  168.7660 N.3    51  MET51      -0.1230
     27  CA       270.8330  200.1490  168.2180 C.3    51  MET51       0.1702
     28  C        271.4010  201.2450  167.3390 C.2    51  MET51       0.2592
     29  O        272.5090  201.7380  167.5630 O.2    51  MET51      -0.2718
     30  CB       270.7140  198.8630  167.4060 C.3    51  MET51       0.0401
     31  CG       270.4610  197.6350  168.2080 C.3    51  MET51       0.0596
     32  SD       270.6070  196.1640  167.1930 S.3    51  MET51      -0.1393
     33  CE       269.1120  196.2850  166.2450 C.3    51  MET51       0.0692
     34  N        270.6330  201.6550  166.3380 N.am   52  MET52      -0.1979
     35  CA       271.0910  202.7180  165.4660 C.3    52  MET52       0.1605
     36  C        271.2370  204.0260  166.2230 C.2    52  MET52       0.2287
     37  O        272.0170  204.8860  165.8090 O.2    52  MET52      -0.2864
     38  CB       270.1220  202.8620  164.3000 C.3    52  MET52       0.0413
     39  CG       270.5660  203.8070  163.2170 C.3    52  MET52       0.0598
     40  SD       269.4470  203.7220  161.8120 S.3    52  MET52      -0.1393
     41  CE       270.1950  204.9200  160.7210 C.3    52  MET52       0.0692
     42  N        274.5750  203.6600  168.6780 N.3    55  PHE55      -0.1241
     43  CA       275.7540  203.8240  167.8440 C.3    55  PHE55       0.1605
     44  C        275.8920  205.2600  167.3730 C.2    55  PHE55       0.2264
     45  O        276.9970  205.7050  167.0550 O.2    55  PHE55      -0.2867
     46  CB       275.6940  202.8760  166.6530 C.3    55  PHE55       0.0534
     47  CG       276.8760  202.9770  165.7470 C.ar   55  PHE55      -0.0203
     48  CD1      278.0640  202.3560  166.0720 C.ar   55  PHE55      -0.0042
     49  CD2      276.8010  203.6850  164.5690 C.ar   55  PHE55      -0.0042
     50  CE1      279.1530  202.4450  165.2440 C.ar   55  PHE55      -0.0003
     51  CE2      277.8930  203.7750  163.7340 C.ar   55  PHE55      -0.0003
     52  CZ       279.0680  203.1540  164.0730 C.ar   55  PHE55      -0.0000
     53  N        259.0010  190.0790  147.9630 N.3   121  LEU121     -0.1245
     54  CA       259.3510  188.7670  148.4760 C.3   121  LEU121      0.1561
     55  C        258.0450  188.0360  148.7460 C.2   121  LEU121      0.2260
     56  O        256.9810  188.6610  148.6980 O.2   121  LEU121     -0.2867
     57  CB       260.1520  188.9100  149.7700 C.3   121  LEU121      0.0270
     58  CG       260.6730  187.6880  150.5270 C.3   121  LEU121      0.0019
     59  CD1      261.8680  187.0790  149.8110 C.3   121  LEU121      0.0001
     60  CD2      260.9790  187.9790  151.9690 C.3   121  LEU121      0.0001
     61  N        256.9240  185.9840  154.1720 N.3   124  HIS124     -0.1241
     62  CA       257.9850  185.8960  155.1710 C.3   124  HIS124      0.1621
     63  C        257.4940  186.1540  156.5900 C.2   124  HIS124      0.2264
     64  O        256.3910  185.7490  156.9620 O.2   124  HIS124     -0.2867
     65  CB       259.1470  186.8480  154.8370 C.3   124  HIS124      0.0745
     66  CG       258.7620  188.2920  154.7320 C.ar  124  HIS124      0.0817
     67  ND1      258.2390  188.8450  153.5830 N.ar  124  HIS124     -0.2268
     68  CD2      258.8100  189.2950  155.6400 C.ar  124  HIS124      0.1154
     69  CE1      257.9920  190.1270  153.7850 C.ar  124  HIS124      0.1986
     70  NE2      258.3260  190.4240  155.0270 N.ar  124  HIS124     -0.2212
     71  N        260.4800  191.0030  159.5740 N.3   128  TYR128     -0.1228
     72  CA       261.7620  190.7510  158.9140 C.3   128  TYR128      0.1721
     73  C        261.5950  190.8360  157.4070 C.2   128  TYR128      0.2437
     74  O        261.6880  189.8260  156.7030 O.2   128  TYR128     -0.2733
     75  CB       262.3100  189.3760  159.2980 C.3   128  TYR128      0.0547
     76  CG       262.7100  189.2040  160.7380 C.ar  128  TYR128     -0.0200
     77  CD1      263.9740  189.5590  161.1690 C.ar  128  TYR128     -0.0009
     78  CD2      261.8430  188.6390  161.6540 C.ar  128  TYR128     -0.0009
     79  CE1      264.3570  189.3850  162.4710 C.ar  128  TYR128      0.0417
     80  CE2      262.2170  188.4600  162.9630 C.ar  128  TYR128      0.0417
     81  CZ       263.4780  188.8350  163.3640 C.ar  128  TYR128      0.1957
     82  OH       263.8670  188.6650  164.6700 O.3   128  TYR128     -0.2866
     83  N        261.3400  192.0250  156.8710 N.am  129  PRO129     -0.2718
     84  CA       261.1090  192.1330  155.4230 C.3   129  PRO129      0.1535
     85  C        262.3450  191.7330  154.6310 C.2   129  PRO129      0.2599
     86  O        263.4020  192.3470  154.7430 O.2   129  PRO129     -0.2715
     87  CB       260.7830  193.6140  155.2350 C.3   129  PRO129      0.0310
     88  CG       260.3100  194.0600  156.5640 C.3   129  PRO129      0.0237
     89  CD       261.1290  193.3070  157.5520 C.3   129  PRO129      0.0939
     90  N        262.1800  190.7640  153.7460 N.am  130  GLY130     -0.1955
     91  CA       263.3020  190.2460  153.0010 C.3   130  GLY130      0.1869
     92  C        263.5230  191.0120  151.7170 C.2   130  GLY130      0.2309
     93  O        263.0730  192.1450  151.5380 O.2   130  GLY130     -0.2863
     94  N        265.2980  194.8050  151.4070 N.3   133  PHE133     -0.1227
     95  CA       265.8250  195.2940  152.6750 C.3   133  PHE133      0.1736
     96  C        267.0410  194.5210  153.1520 C.2   133  PHE133      0.2595
     97  O        267.9240  195.1170  153.7730 O.2   133  PHE133     -0.2718
     98  CB       264.7590  195.2720  153.7710 C.3   133  PHE133      0.0547
     99  CG       263.6810  196.2930  153.5820 C.ar  133  PHE133     -0.0202
    100  CD1      263.9200  197.6200  153.8700 C.ar  133  PHE133     -0.0042
    101  CD2      262.4270  195.9260  153.1490 C.ar  133  PHE133     -0.0042
    102  CE1      262.9410  198.5620  153.6990 C.ar  133  PHE133     -0.0003
    103  CE2      261.4430  196.8680  152.9820 C.ar  133  PHE133     -0.0003
    104  CZ       261.7020  198.1870  153.2580 C.ar  133  PHE133     -0.0000
    105  N        267.1270  193.2270  152.8660 N.am  134  ALA134     -0.1980
    106  CA       268.2500  192.4020  153.3130 C.3   134  ALA134      0.1597
    107  C        268.9390  191.7350  152.1280 C.2   134  ALA134      0.2287
    108  O        268.8900  190.5120  151.9730 O.2   134  ALA134     -0.2864
    109  CB       267.7750  191.3610  154.3240 C.3   134  ALA134      0.0319
    110  N        273.0840  189.8110  153.5790 N.3   137  VAL137     -0.1231
    111  CA       272.9550  188.5700  154.3430 C.3   137  VAL137      0.1678
    112  C        274.3300  188.0910  154.8100 C.2   137  VAL137      0.2434
    113  O        274.8520  187.1020  154.2770 O.2   137  VAL137     -0.2733
    114  CB       272.2370  187.4930  153.5050 C.3   137  VAL137      0.0265
    115  CG1      271.9710  186.2330  154.3110 C.3   137  VAL137      0.0020
    116  CG2      270.9490  188.0450  152.9210 C.3   137  VAL137      0.0020
    117  N        274.9690  188.7710  155.7700 N.am  138  PRO138     -0.2729
    118  CA       276.3360  188.3690  156.1600 C.3   138  PRO138      0.1401
    119  C        276.4270  186.9570  156.7100 C.2   138  PRO138      0.2269
    120  O        277.2710  186.1680  156.2570 O.2   138  PRO138     -0.2865
    121  CB       276.6990  189.3990  157.2370 C.3   138  PRO138      0.0296
    122  CG       275.8480  190.5550  156.9550 C.3   138  PRO138      0.0237
    123  CD       274.5580  190.0180  156.4260 C.3   138  PRO138      0.0939
    124  N        271.9300  184.1390  162.9770 N.3   144  LEU144     -0.1231
    125  CA       272.1100  185.5770  162.8730 C.3   144  LEU144      0.1693
    126  C        270.8750  186.3250  163.3550 C.2   144  LEU144      0.2591
    127  O        270.9740  187.4720  163.8060 O.2   144  LEU144     -0.2718
    128  CB       272.4450  185.9280  161.4280 C.3   144  LEU144      0.0284
    129  CG       272.6950  187.3660  161.0150 C.3   144  LEU144      0.0019
    130  CD1      273.8860  187.9310  161.7400 C.3   144  LEU144      0.0001
    131  CD2      272.9540  187.3470  159.5450 C.3   144  LEU144      0.0001
    132  N        269.7090  185.6880  163.2830 N.am  145  LYS145     -0.1980
    133  CA       268.4850  186.3190  163.7560 C.3   145  LYS145      0.1596
    134  C        268.4760  186.4180  165.2750 C.2   145  LYS145      0.2287
    135  O        268.2400  187.4910  165.8380 O.2   145  LYS145     -0.2864
    136  CB       267.2820  185.5390  163.2350 C.3   145  LYS145      0.0298
    137  CG       265.9530  186.1320  163.5690 C.3   145  LYS145      0.0038
    138  CD       264.8480  185.2830  162.9920 C.3   145  LYS145      0.0206
    139  CE       264.8520  185.3630  161.4790 C.3   145  LYS145      0.1093
    140  NZ       263.7570  184.5550  160.8830 N.3   145  LYS145     -0.1314
    141  N        271.0540  186.4580  166.7870 N.3   147  LYS147     -0.1231
    142  CA       272.1930  187.3200  167.0290 C.3   147  LYS147      0.1693
    143  C        271.7920  188.7820  167.0260 C.2   147  LYS147      0.2591
    144  O        272.4930  189.6050  167.6150 O.2   147  LYS147     -0.2718
    145  CB       273.2530  187.0490  165.9690 C.3   147  LYS147      0.0285
    146  CG       274.6080  187.6150  166.2520 C.3   147  LYS147      0.0035
    147  CD       275.5430  187.2890  165.1080 C.3   147  LYS147      0.0206
    148  CE       275.7340  185.7950  164.9110 C.3   147  LYS147      0.1093
    149  NZ       276.4070  185.1230  166.0440 N.3   147  LYS147     -0.1314
    150  N        270.6680  189.1140  166.3920 N.am  148  GLU148     -0.1979
    151  CA       270.2260  190.5000  166.3090 C.3   148  GLU148      0.1602
    152  C        269.5890  190.9700  167.6060 C.2   148  GLU148      0.2287
    153  O        269.8920  192.0620  168.0920 O.2   148  GLU148     -0.2864
    154  CB       269.2380  190.6660  165.1600 C.3   148  GLU148      0.0415
    155  CG       268.7360  192.0730  165.0020 C.3   148  GLU148      0.1163
    156  CD       267.7780  192.2080  163.8520 C.2   148  GLU148      0.3649
    157  OE1      267.4840  191.1840  163.2110 O.co2 148  GLU148     -0.2457
    158  OE2      267.3110  193.3330  163.5880 O.co2 148  GLU148     -0.2457
    159  N        271.9490  191.6860  170.5990 N.3   151  ASN151     -0.1240
    160  CA       272.5830  192.9920  170.4820 C.3   151  ASN151      0.1653
    161  C        271.6220  194.1010  170.8880 C.2   151  ASN151      0.2266
    162  O        271.9500  194.9440  171.7280 O.2   151  ASN151     -0.2867
    163  CB       273.0770  193.2220  169.0580 C.3   151  ASN151      0.1155
    164  CG       274.1720  192.2700  168.6570 C.2   151  ASN151      0.2627
    165  OD1      274.1140  191.6570  167.6000 O.2   151  ASN151     -0.2716
    166  ND2      275.1930  192.1640  169.4860 N.am  151  ASN151     -0.0877
@<TRIPOS>BOND
     1    53    54    1
     2    54    55    1
     3    54    57    1
     4    56    55    2
     5    57    58    1
     6    59    58    1
     7    58    60    1
     8    94    95    1
     9    93    92    2
    10    92    91    1
    11   108   107    2
    12   107   106    1
    13    95    96    1
    14    95    98    1
    15   105    96   am
    16   105   106    1
    17   116   114    1
    18   103   101   ar
    19   103   104   ar
    20    91    90    1
    21   101    99   ar
    22    96    97    2
    23   104   102   ar
    24   106   109    1
    25   114   115    1
    26   114   111    1
    27   110   111    1
    28    99    98    1
    29    99   100   ar
    30    67    69   ar
    31    67    66   ar
    32   102   100   ar
    33    90    85   am
    34    69    70   ar
    35    61    62    1
    36   113   112    2
    37   111   112    1
    38    85    86    2
    39    85    84    1
    40    66    65    1
    41    66    68   ar
    42   112   117   am
    43    65    62    1
    44    70    68   ar
    45    62    63    1
    46    87    84    1
    47    87    88    1
    48    84    83    1
    49   117   118    1
    50   117   123    1
    51   118   119    1
    52   118   121    1
    53   120   119    2
    54   123   122    1
    55    88    89    1
    56    63    64    2
    57    74    73    2
    58    83    73   am
    59    83    89    1
    60   122   121    1
    61    73    72    1
    62    72    75    1
    63    72    71    1
    64    75    76    1
    65   131   129    1
    66    41    40    1
    67    76    77   ar
    68    76    78   ar
    69   140   139    1
    70   129   128    1
    71   129   130    1
    72    77    79   ar
    73   128   125    1
    74   139   138    1
    75    10     9    1
    76    78    80   ar
    77    40    39    1
    78    11     9    1
    79     9     8    2
    80    25    23   ar
    81    25    24   ar
    82    79    81   ar
    83    23    21   ar
    84   125   124    1
    85   125   126    1
    86    80    81   ar
    87   138   137    1
    88    24    22   ar
    89     8     7    1
    90   157   156   ar
    91    39    38    1
    92   136   137    1
    93   136   133    1
    94   132   126   am
    95   132   133    1
    96     7     6    1
    97   126   127    2
    98    81    82    1
    99   158   156   ar
   100    51    52   ar
   101    51    49   ar
   102   133   134    1
   103   156   155    1
   104    21    20   ar
   105    21    19   ar
   106    52    50   ar
   107    38    35    1
   108    22    19   ar
   109     6     5    1
   110    49    47   ar
   111    20    18   ar
   112     5     2    1
   113    19    17   ar
   114   148   147    1
   115   148   149    1
   116   155   154    1
   117   147   146    1
   118   154   151    1
   119     4     3    2
   120    50    48   ar
   121   134   135    2
   122    35    36    1
   123    35    34    1
   124    47    48   ar
   125    47    46    1
   126    18    17   ar
   127    37    36    2
   128     3     2    1
   129     3    12   am
   130    17    16    1
   131     2     1    1
   132   145   146    1
   133   145   142    1
   134    33    32    1
   135   151   150    1
   136   151   152    1
   137    34    28   am
   138   150   143   am
   139    12    13    1
   140    46    43    1
   141    13    16    1
   142    13    14    1
   143   141   142    1
   144   143   142    1
   145   143   144    2
   146    45    44    2
   147    32    31    1
   148    28    29    2
   149    28    27    1
   150    44    43    1
   151    30    31    1
   152    30    27    1
   153    15    14    2
   154   165   164    2
   155   152   153    2
   156    43    42    1
   157    27    26    1
   158   164   163    1
   159   164   166   am
   160   163   160    1
   161   160   159    1
   162   160   161    1
   163   161   162    2
