@<TRIPOS>MOLECULE
tmp/6ih0A01.pdb
 105 100 0 0 0
SMALL
GASTEIGER

@<TRIPOS>ATOM
      1  N        -21.8950    3.9210   29.0530 N.3    55  THR55      -0.1203
      2  CA       -21.3940    5.0440   28.2650 C.3    55  THR55       0.1994
      3  C        -20.3660    4.6310   27.2170 C.2    55  THR55       0.2618
      4  O        -19.6830    5.5090   26.6680 O.2    55  THR55      -0.2717
      5  CB       -20.7710    6.1390   29.1430 C.3    55  THR55       0.1784
      6  OG1      -19.6970    5.5720   29.9040 O.3    55  THR55      -0.2211
      7  CG2      -21.7840    6.7520   30.0860 C.3    55  THR55       0.0376
      8  N        -20.2120    3.3490   26.9200 N.am   56  ASN56      -0.1960
      9  CA       -19.2240    2.9050   25.9410 C.3    56  ASN56       0.1819
     10  C        -19.9290    2.5940   24.6260 C.2    56  ASN56       0.2621
     11  O        -20.6400    1.5940   24.5200 O.2    56  ASN56      -0.2715
     12  CB       -18.4770    1.6820   26.4620 C.3    56  ASN56       0.1195
     13  CG       -17.2710    1.3470   25.6270 C.2    56  ASN56       0.2630
     14  OD1      -16.4850    2.2320   25.2720 O.2    56  ASN56      -0.2716
     15  ND2      -17.1060    0.0650   25.3100 N.am   56  ASN56      -0.0877
     16  N        -19.7310    3.4520   23.6260 N.am   57  HIS57      -0.1973
     17  CA       -20.3000    3.4180   22.2800 C.3    57  HIS57       0.1656
     18  C        -21.7260    3.9340   22.2070 C.2    57  HIS57       0.2291
     19  O        -22.2460    4.1070   21.1010 O.2    57  HIS57      -0.2864
     20  CB       -20.1890    2.0610   21.5680 C.3    57  HIS57       0.0771
     21  CG       -18.7820    1.5840   21.4350 C.ar   57  HIS57       0.0820
     22  ND1      -17.9420    2.0070   20.4270 N.ar   57  HIS57      -0.2267
     23  CD2      -18.0540    0.7500   22.2110 C.ar   57  HIS57       0.1154
     24  CE1      -16.7600    1.4310   20.5790 C.ar   57  HIS57       0.1986
     25  NE2      -16.8020    0.6650   21.6530 N.ar   57  HIS57      -0.2212
     26  N         -7.8180   12.8510   26.4710 N.3   136  ARG136     -0.1245
     27  CA        -9.0770   13.4540   26.0670 C.3   136  ARG136      0.1563
     28  C         -9.4680   14.5220   27.0730 C.2   136  ARG136      0.2260
     29  O         -9.1900   14.4060   28.2680 O.2   136  ARG136     -0.2867
     30  CB       -10.1770   12.3980   26.0060 C.3   136  ARG136      0.0307
     31  CG        -9.7850   11.1430   25.2490 C.3   136  ARG136      0.0489
     32  CD       -10.8440   10.0590   25.4000 C.3   136  ARG136      0.2205
     33  NE       -10.3800    8.7740   24.8830 N.pl3 136  ARG136     -0.0865
     34  CZ       -10.3870    8.4340   23.5990 C.cat 136  ARG136      0.5346
     35  NH1      -10.8420    9.2820   22.6850 N.pl3 136  ARG136      0.1354
     36  NH2       -9.9410    7.2410   23.2250 N.pl3 136  ARG136      0.1354
     37  N         -6.9580    8.4410   13.0740 N.3   155  LYS155     -0.1245
     38  CA        -5.8530    7.6380   12.5550 C.3   155  LYS155      0.1561
     39  C         -6.1550    7.0750   11.1750 C.2   155  LYS155      0.2260
     40  O         -5.9340    5.8880   10.9180 O.2   155  LYS155     -0.2867
     41  CB        -5.5180    6.5210   13.5400 C.3   155  LYS155      0.0271
     42  CG        -5.4460    6.9800   14.9910 C.3   155  LYS155      0.0035
     43  CD        -5.3030    5.8030   15.9520 C.3   155  LYS155      0.0206
     44  CE        -6.6410    5.1120   16.1930 C.3   155  LYS155      0.1093
     45  NZ        -6.5820    4.1700   17.3450 N.3   155  LYS155     -0.1314
     46  N        -11.9220   -1.4290   13.7090 N.3   184  GLU184     -0.1245
     47  CA       -12.4680   -1.4810   15.0570 C.3   184  GLU184      0.1567
     48  C        -13.7430   -2.3020   15.1540 C.2   184  GLU184      0.2260
     49  O        -14.1550   -2.6510   16.2700 O.2   184  GLU184     -0.2867
     50  CB       -12.7520   -0.0610   15.5680 C.3   184  GLU184      0.0388
     51  CG       -11.5160    0.8110   15.6530 C.3   184  GLU184      0.1160
     52  CD       -11.7600    2.1120   16.3890 C.2   184  GLU184      0.3649
     53  OE1      -12.9210    2.5730   16.4350 O.co2 184  GLU184     -0.2457
     54  OE2      -10.7840    2.6770   16.9260 O.co2 184  GLU184     -0.2457
     55  N        -13.9090   -5.8480   17.0870 N.3   187  HIS187     -0.1241
     56  CA       -13.9360   -5.7310   18.5410 C.3   187  HIS187      0.1621
     57  C        -15.2900   -5.2470   19.0380 C.2   187  HIS187      0.2264
     58  O        -15.8080   -5.7620   20.0350 O.2   187  HIS187     -0.2867
     59  CB       -12.8250   -4.7960   19.0250 C.3   187  HIS187      0.0745
     60  CG       -12.9640   -4.3790   20.4600 C.ar  187  HIS187      0.0817
     61  ND1      -12.5550   -5.1740   21.5110 N.ar  187  HIS187     -0.2268
     62  CD2      -13.4710   -3.2530   21.0170 C.ar  187  HIS187      0.1154
     63  CE1      -12.7960   -4.5520   22.6510 C.ar  187  HIS187      0.1986
     64  NE2      -13.3540   -3.3850   22.3800 N.ar  187  HIS187     -0.2212
     65  N        -19.9960   14.0100   16.3570 N.3   226  LYS226     -0.1245
     66  CA       -19.5550   14.0370   17.7510 C.3   226  LYS226      0.1561
     67  C        -20.0860   15.2610   18.4900 C.2   226  LYS226      0.2260
     68  O        -20.3900   15.1720   19.6880 O.2   226  LYS226     -0.2867
     69  CB       -18.0310   13.9640   17.8290 C.3   226  LYS226      0.0271
     70  CG       -17.4560   12.6470   17.3140 C.3   226  LYS226      0.0035
     71  CD       -17.7490   11.4900   18.2540 C.3   226  LYS226      0.0206
     72  CE       -16.9080   11.5830   19.5130 C.3   226  LYS226      0.1093
     73  NZ       -16.8840   10.3240   20.3020 N.3   226  LYS226     -0.1314
     74  N        -23.6520   14.3090   19.2810 N.3   229  ASP229     -0.1239
     75  CA       -23.6750   13.4100   20.4390 C.3   229  ASP229      0.1674
     76  C        -23.5310   14.1850   21.7430 C.2   229  ASP229      0.2266
     77  O        -24.2290   13.9080   22.7270 O.2   229  ASP229     -0.2867
     78  CB       -22.5040   12.4240   20.3690 C.3   229  ASP229      0.1410
     79  CG       -22.7260   11.2460   19.4290 C.2   229  ASP229      0.3668
     80  OD1      -23.8670   10.9510   19.0240 O.co2 229  ASP229     -0.2456
     81  OD2      -21.6990   10.5960   19.1240 O.co2 229  ASP229     -0.2456
     82  N        -13.2820   13.7430   23.0130 N.3   250  GLY250     -0.1210
     83  CA       -14.2180   13.2430   23.9990 C.3   250  GLY250      0.1956
     84  C        -15.1710   12.2120   23.4240 C.2   250  GLY250      0.2612
     85  O        -15.3590   12.0850   22.2150 O.2   250  GLY250     -0.2717
     86  N        -15.7860   11.4540   24.3240 N.am  251  GLY251     -0.1942
     87  CA       -16.8300   10.5180   23.9670 C.3   251  GLY251      0.2014
     88  C        -17.8550   10.4640   25.0770 C.2   251  GLY251      0.2639
     89  O        -17.8000   11.2800   26.0000 O.2   251  GLY251     -0.2714
     90  N        -18.7920    9.5160   25.0120 N.am  252  HIS252     -0.1959
     91  CA       -19.9060    9.5410   25.9590 C.3   252  HIS252      0.1787
     92  C        -19.4390    9.4820   27.4070 C.2   252  HIS252      0.2620
     93  O        -20.0350   10.1260   28.2740 O.2   252  HIS252     -0.2715
     94  CB       -20.8820    8.4020   25.7050 C.3   252  HIS252      0.0785
     95  CG       -21.4510    8.4070   24.3310 C.ar  252  HIS252      0.0821
     96  ND1      -22.2080    9.4460   23.8360 N.ar  252  HIS252     -0.2267
     97  CD2      -21.3530    7.5000   23.3330 C.ar  252  HIS252      0.1154
     98  CE1      -22.5520    9.1740   22.5880 C.ar  252  HIS252      0.1986
     99  NE2      -22.0410    8.0010   22.2590 N.ar  252  HIS252     -0.2212
    100  N        -18.4050    8.6890   27.7000 N.am  253  SER253     -0.1950
    101  CA       -17.9680    8.5660   29.0880 C.3   253  SER253      0.1924
    102  C        -17.4980    9.9100   29.6280 C.2   253  SER253      0.2314
    103  O        -17.8770   10.3230   30.7290 O.2   253  SER253     -0.2863
    104  CB       -16.8570    7.5230   29.2040 C.3   253  SER253      0.2116
    105  OG       -17.2990    6.2350   28.8160 O.3   253  SER253     -0.2180
@<TRIPOS>BOND
     1    40    39    2
     2    39    38    1
     3    38    37    1
     4    38    41    1
     5    41    42    1
     6    46    47    1
     7    42    43    1
     8    47    48    1
     9    47    50    1
    10    48    49    2
    11    50    51    1
    12    51    52    1
    13    43    44    1
    14    44    45    1
    15    65    66    1
    16    52    53   ar
    17    52    54   ar
    18    55    56    1
    19    70    69    1
    20    70    71    1
    21    66    69    1
    22    66    67    1
    23    71    72    1
    24    67    68    2
    25    56    59    1
    26    56    57    1
    27    80    79   ar
    28    59    60    1
    29    57    58    2
    30    81    79   ar
    31    74    75    1
    32    79    78    1
    33    72    73    1
    34    78    75    1
    35    22    24   ar
    36    22    21   ar
    37    75    76    1
    38    60    62   ar
    39    60    61   ar
    40    24    25   ar
    41    62    64   ar
    42    19    18    2
    43    21    20    1
    44    21    23   ar
    45    61    63   ar
    46    20    17    1
    47    25    23   ar
    48    76    77    2
    49    18    17    1
    50    85    84    2
    51    99    98   ar
    52    99    97   ar
    53    17    16    1
    54    64    63   ar
    55    98    96   ar
    56    35    34    1
    57    82    83    1
    58    36    34    1
    59    97    95   ar
    60    84    83    1
    61    84    86   am
    62    34    33    2
    63    16    10   am
    64    96    95   ar
    65    87    86    1
    66    87    88    1
    67    95    94    1
    68    11    10    2
    69    10     9    1
    70    33    32    1
    71    90    88   am
    72    90    91    1
    73    88    89    2
    74    31    32    1
    75    31    30    1
    76    14    13    2
    77    15    13   am
    78    13    12    1
    79    94    91    1
    80     9    12    1
    81     9     8    1
    82    91    92    1
    83    30    27    1
    84    27    26    1
    85    27    28    1
    86     4     3    2
    87     8     3   am
    88    28    29    2
    89     3     2    1
    90    92   100   am
    91    92    93    2
    92   100   101    1
    93     2     1    1
    94     2     5    1
    95   105   104    1
    96   101   104    1
    97   101   102    1
    98     5     6    1
    99     5     7    1
   100   102   103    2
