@<TRIPOS>MOLECULE
tmp/6ih0A00.pdb
 180 173 0 0 0
SMALL
GASTEIGER

@<TRIPOS>ATOM
      1  N        -29.0260    0.3710   16.5800 N.3    17  ILE17      -0.1231
      2  CA       -27.6770    0.1800   16.0480 C.3    17  ILE17       0.1692
      3  C        -26.8950   -0.8790   16.8250 C.2    17  ILE17       0.2592
      4  O        -26.0880   -1.6190   16.2400 O.2    17  ILE17      -0.2718
      5  CB       -26.9190    1.5160   15.9570 C.3    17  ILE17       0.0266
      6  CG1      -25.6620    1.3550   15.1060 C.3    17  ILE17       0.0019
      7  CG2      -26.5080    2.0220   17.3200 C.3    17  ILE17       0.0020
      8  CD1      -25.9050    1.4990   13.6610 C.3    17  ILE17       0.0001
      9  N        -27.0840   -0.9580   18.1420 N.am   18  HIS18      -0.1976
     10  CA       -26.2960   -1.8740   18.9610 C.3    18  HIS18       0.1656
     11  C        -26.9700   -3.2080   19.2050 C.2    18  HIS18       0.2291
     12  O        -26.3020   -4.2520   19.1260 O.2    18  HIS18      -0.2864
     13  CB       -25.8900   -1.2270   20.2770 C.3    18  HIS18       0.0771
     14  CG       -24.8880   -0.1510   20.0770 C.ar   18  HIS18       0.0820
     15  ND1      -23.7260   -0.3580   19.3690 N.ar   18  HIS18      -0.2267
     16  CD2      -24.9040    1.1580   20.4170 C.ar   18  HIS18       0.1154
     17  CE1      -23.0480    0.7750   19.3140 C.ar   18  HIS18       0.1986
     18  NE2      -23.7420    1.7100   19.9400 N.ar   18  HIS18      -0.2212
     19  N        -19.7310    3.4520   23.6260 N.3    57  HIS57      -0.1241
     20  CA       -20.3000    3.4180   22.2800 C.3    57  HIS57       0.1621
     21  C        -21.7260    3.9340   22.2070 C.2    57  HIS57       0.2264
     22  O        -22.2460    4.1070   21.1010 O.2    57  HIS57      -0.2867
     23  CB       -20.1890    2.0610   21.5680 C.3    57  HIS57       0.0745
     24  CG       -18.7820    1.5840   21.4350 C.ar   57  HIS57       0.0817
     25  ND1      -17.9420    2.0070   20.4270 N.ar   57  HIS57      -0.2268
     26  CD2      -18.0540    0.7500   22.2110 C.ar   57  HIS57       0.1154
     27  CE1      -16.7600    1.4310   20.5790 C.ar   57  HIS57       0.1986
     28  NE2      -16.8020    0.6650   21.6530 N.ar   57  HIS57      -0.2212
     29  N        -28.7570    9.1460   23.0220 N.3    72  GLU72      -0.1231
     30  CA       -28.0950   10.4220   22.7620 C.3    72  GLU72       0.1699
     31  C        -28.6450   11.1560   21.5380 C.2    72  GLU72       0.2592
     32  O        -28.6450   12.3940   21.5190 O.2    72  GLU72      -0.2718
     33  CB       -26.5870   10.2230   22.6460 C.3    72  GLU72       0.0402
     34  CG       -26.1510    9.2480   21.5410 C.3    72  GLU72       0.1161
     35  CD       -25.9580    7.8060   22.0140 C.2    72  GLU72       0.3649
     36  OE1      -26.5680    7.4040   23.0320 O.co2  72  GLU72      -0.2457
     37  OE2      -25.2050    7.0580   21.3480 O.co2  72  GLU72      -0.2457
     38  N        -29.0780   10.4390   20.5000 N.am   73  HIS73      -0.1976
     39  CA       -29.4830   11.1200   19.2750 C.3    73  HIS73       0.1656
     40  C        -30.8570   11.7540   19.4200 C.2    73  HIS73       0.2291
     41  O        -31.0510   12.9170   19.0430 O.2    73  HIS73      -0.2864
     42  CB       -29.4080   10.1840   18.0680 C.3    73  HIS73       0.0771
     43  CG       -28.0660    9.5290   17.9110 C.ar   73  HIS73       0.0820
     44  ND1      -27.9170    8.1760   17.6840 N.ar   73  HIS73      -0.2267
     45  CD2      -26.8120   10.0210   18.0330 C.ar   73  HIS73       0.1154
     46  CE1      -26.6290    7.8820   17.6100 C.ar   73  HIS73       0.1986
     47  NE2      -25.9360    8.9910   17.7940 N.ar   73  HIS73      -0.2212
     48  N        -23.6940    8.7540   12.5250 N.3   178  THR178     -0.1203
     49  CA       -22.7460    7.9570   13.2710 C.3   178  THR178      0.1994
     50  C        -21.7730    7.2700   12.3140 C.2   178  THR178      0.2618
     51  O        -22.0390    7.1110   11.1190 O.2   178  THR178     -0.2717
     52  CB       -23.4920    6.9490   14.1450 C.3   178  THR178      0.1784
     53  OG1      -22.5900    6.4170   15.1160 O.3   178  THR178     -0.2211
     54  CG2      -24.0950    5.8200   13.3290 C.3   178  THR178      0.0376
     55  N        -20.6300    6.8650   12.8550 N.am  179  PHE179     -0.1961
     56  CA       -19.5400    6.3780   12.0250 C.3   179  PHE179      0.1771
     57  C        -18.7720    5.3060   12.7810 C.2   179  PHE179      0.2619
     58  O        -18.8580    5.1890   14.0080 O.2   179  PHE179     -0.2715
     59  CB       -18.6190    7.5270   11.5790 C.3   179  PHE179      0.0574
     60  CG       -17.9750    8.2690   12.7170 C.ar  179  PHE179     -0.0200
     61  CD1      -18.6380    9.3110   13.3550 C.ar  179  PHE179     -0.0042
     62  CD2      -16.7140    7.9220   13.1590 C.ar  179  PHE179     -0.0042
     63  CE1      -18.0440    9.9980   14.4030 C.ar  179  PHE179     -0.0003
     64  CE2      -16.1180    8.6030   14.2150 C.ar  179  PHE179     -0.0003
     65  CZ       -16.7900    9.6480   14.8330 C.ar  179  PHE179     -0.0000
     66  N        -18.0040    4.5270   12.0190 N.am  180  ALA180     -0.1977
     67  CA       -17.1870    3.4570   12.5680 C.3   180  ALA180      0.1597
     68  C        -16.0170    3.2050   11.6370 C.2   180  ALA180      0.2287
     69  O        -16.0790    3.4840   10.4400 O.2   180  ALA180     -0.2864
     70  CB       -17.9920    2.1680   12.7510 C.3   180  ALA180      0.0319
     71  N        -14.3800   -2.6140   14.0270 N.3   185  ILE185     -0.1245
     72  CA       -15.7280   -3.1690   14.0650 C.3   185  ILE185      0.1561
     73  C        -15.7340   -4.5740   14.6620 C.2   185  ILE185      0.2260
     74  O        -16.6620   -4.9400   15.3940 O.2   185  ILE185     -0.2867
     75  CB       -16.3950   -3.0830   12.6780 C.3   185  ILE185      0.0252
     76  CG1      -16.7950   -1.6320   12.3840 C.3   185  ILE185      0.0019
     77  CG2      -17.6080   -4.0020   12.5970 C.3   185  ILE185      0.0019
     78  CD1      -17.2040   -1.3820   10.9510 C.3   185  ILE185      0.0001
     79  N        -15.8670   -4.2380   18.3740 N.3   188  ILE188     -0.1231
     80  CA       -17.1690   -3.7220   18.7960 C.3   188  ILE188      0.1692
     81  C        -18.2080   -4.8350   18.7990 C.2   188  ILE188      0.2591
     82  O        -18.9970   -4.9730   19.7460 O.2   188  ILE188     -0.2718
     83  CB       -17.5840   -2.5210   17.9250 C.3   188  ILE188      0.0266
     84  CG1      -16.6320   -1.3480   18.1630 C.3   188  ILE188      0.0019
     85  CG2      -19.0120   -2.1160   18.2240 C.3   188  ILE188      0.0020
     86  CD1      -16.7240   -0.2390   17.1230 C.3   188  ILE188      0.0001
     87  N        -18.2180   -5.6580   17.7510 N.am  189  LYS189     -0.1980
     88  CA       -19.1540   -6.7720   17.7280 C.3   189  LYS189      0.1596
     89  C        -18.8200   -7.8040   18.8020 C.2   189  LYS189      0.2287
     90  O        -19.7230   -8.3510   19.4480 O.2   189  LYS189     -0.2864
     91  CB       -19.1900   -7.3890   16.3310 C.3   189  LYS189      0.0298
     92  CG       -19.8080   -6.4480   15.3030 C.3   189  LYS189      0.0038
     93  CD       -19.9550   -7.1030   13.9410 C.3   189  LYS189      0.0206
     94  CE       -20.6440   -6.1640   12.9530 C.3   189  LYS189      0.1093
     95  NZ       -22.1180   -6.0880   13.1840 N.3   189  LYS189     -0.1314
     96  N        -22.9800   -2.9860   18.1980 N.3   194  GLY194     -0.1225
     97  CA       -22.9780   -2.8190   16.7550 C.3   194  GLY194      0.1811
     98  C        -23.7850   -3.8220   15.9570 C.2   194  GLY194      0.2280
     99  O        -23.5900   -3.9170   14.7430 O.2   194  GLY194     -0.2866
    100  N        -25.5470   -2.3330   12.9170 N.3   197  GLY197     -0.1210
    101  CA       -24.8010   -1.4360   12.0520 C.3   197  GLY197      0.1956
    102  C        -24.7210   -1.9540   10.6290 C.2   197  GLY197      0.2613
    103  O        -24.5170   -3.1430   10.3860 O.2   197  GLY197     -0.2717
    104  N        -24.8520   -1.0350    9.6830 N.am  198  SER198     -0.1938
    105  CA       -24.7530   -1.3750    8.2690 C.3   198  SER198      0.2055
    106  C        -24.4310   -0.1010    7.5120 C.2   198  SER198      0.2642
    107  O        -24.4550    0.9990    8.0680 O.2   198  SER198     -0.2714
    108  CB       -26.0650   -1.9580    7.7390 C.3   198  SER198      0.2130
    109  OG       -26.9990   -0.9160    7.5470 O.3   198  SER198     -0.2179
    110  N        -24.1710   -0.2500    6.2160 N.am  199  LEU199     -0.1977
    111  CA       -23.9420    0.9260    5.3920 C.3   199  LEU199      0.1596
    112  C        -25.2000    1.7530    5.1980 C.2   199  LEU199      0.2287
    113  O        -25.1120    2.8610    4.6550 O.2   199  LEU199     -0.2864
    114  CB       -23.3450    0.5220    4.0470 C.3   199  LEU199      0.0297
    115  CG       -21.9950   -0.1870    4.1080 C.3   199  LEU199      0.0022
    116  CD1      -21.5260   -0.5300    2.7010 C.3   199  LEU199      0.0001
    117  CD2      -20.9670    0.6750    4.8220 C.3   199  LEU199      0.0001
    118  N        -24.6810    3.7920    9.0240 N.3   202  THR202     -0.1218
    119  CA       -23.3820    4.1240    9.5860 C.3   202  THR202      0.1862
    120  C        -22.4460    4.5030    8.4550 C.2   202  THR202      0.2287
    121  O        -22.4210    3.8400    7.4130 O.2   202  THR202     -0.2866
    122  CB       -22.7920    2.9020   10.3080 C.3   202  THR202      0.1770
    123  OG1      -23.6990    2.4610   11.3220 O.3   202  THR202     -0.2211
    124  CG2      -21.4580    3.2240   10.9520 C.3   202  THR202      0.0375
    125  N        -18.9910    4.1170    7.2970 N.3   204  VAL204     -0.1245
    126  CA       -17.9400    3.1560    7.6050 C.3   204  VAL204      0.1561
    127  C        -16.6880    3.5360    6.8290 C.2   204  VAL204      0.2260
    128  O        -16.7160    3.6340    5.5970 O.2   204  VAL204     -0.2867
    129  CB       -18.3760    1.7140    7.3180 C.3   204  VAL204      0.0252
    130  CG1      -17.2390    0.7580    7.6260 C.3   204  VAL204      0.0019
    131  CG2      -19.6040    1.3690    8.1570 C.3   204  VAL204      0.0019
    132  N        -16.4250    3.2130    2.7310 N.3   211  TYR211     -0.1241
    133  CA       -17.1660    2.0420    2.2750 C.3   211  TYR211      0.1605
    134  C        -18.5130    2.4180    1.6620 C.2   211  TYR211      0.2264
    135  O        -18.9610    1.7810    0.7010 O.2   211  TYR211     -0.2867
    136  CB       -17.3730    1.0610    3.4270 C.3   211  TYR211      0.0534
    137  CG       -16.1560    0.2460    3.7920 C.ar  211  TYR211     -0.0201
    138  CD1      -15.0970    0.8130    4.4800 C.ar  211  TYR211     -0.0009
    139  CD2      -16.0720   -1.1040    3.4520 C.ar  211  TYR211     -0.0009
    140  CE1      -13.9800    0.0660    4.8200 C.ar  211  TYR211      0.0417
    141  CE2      -14.9620   -1.8580    3.7860 C.ar  211  TYR211      0.0417
    142  CZ       -13.9210   -1.2670    4.4670 C.ar  211  TYR211      0.1957
    143  OH       -12.8140   -2.0120    4.8030 O.3   211  TYR211     -0.2866
    144  N        -20.9400   14.8620   13.8420 N.3   225  HIS225     -0.1226
    145  CA       -21.6980   13.8820   14.6070 C.3   225  HIS225      0.1752
    146  C        -21.2910   13.8780   16.0740 C.2   225  HIS225      0.2595
    147  O        -22.1430   13.7440   16.9600 O.2   225  HIS225     -0.2718
    148  CB       -21.5680   12.4790   14.0210 C.3   225  HIS225      0.0759
    149  CG       -22.4730   11.5190   14.7070 C.ar  225  HIS225      0.0818
    150  ND1      -23.8140   11.4370   14.4060 N.ar  225  HIS225     -0.2268
    151  CD2      -22.2740   10.7200   15.7800 C.ar  225  HIS225      0.1154
    152  CE1      -24.3910   10.5820   15.2360 C.ar  225  HIS225      0.1986
    153  NE2      -23.4820   10.1370   16.0830 N.ar  225  HIS225     -0.2212
    154  N        -19.9960   14.0100   16.3570 N.am  226  LYS226     -0.1980
    155  CA       -19.5550   14.0370   17.7510 C.3   226  LYS226      0.1596
    156  C        -20.0860   15.2610   18.4900 C.2   226  LYS226      0.2287
    157  O        -20.3900   15.1720   19.6880 O.2   226  LYS226     -0.2864
    158  CB       -18.0310   13.9640   17.8290 C.3   226  LYS226      0.0298
    159  CG       -17.4560   12.6470   17.3140 C.3   226  LYS226      0.0038
    160  CD       -17.7490   11.4900   18.2540 C.3   226  LYS226      0.0206
    161  CE       -16.9080   11.5830   19.5130 C.3   226  LYS226      0.1093
    162  NZ       -16.8840   10.3240   20.3020 N.3   226  LYS226     -0.1314
    163  N        -23.6520   14.3090   19.2810 N.3   229  ASP229     -0.1239
    164  CA       -23.6750   13.4100   20.4390 C.3   229  ASP229      0.1674
    165  C        -23.5310   14.1850   21.7430 C.2   229  ASP229      0.2266
    166  O        -24.2290   13.9080   22.7270 O.2   229  ASP229     -0.2867
    167  CB       -22.5040   12.4240   20.3690 C.3   229  ASP229      0.1410
    168  CG       -22.7260   11.2460   19.4290 C.2   229  ASP229      0.3668
    169  OD1      -23.8670   10.9510   19.0240 O.co2 229  ASP229     -0.2456
    170  OD2      -21.6990   10.5960   19.1240 O.co2 229  ASP229     -0.2456
    171  N        -18.7920    9.5160   25.0120 N.3   252  HIS252     -0.1241
    172  CA       -19.9060    9.5410   25.9590 C.3   252  HIS252      0.1621
    173  C        -19.4390    9.4820   27.4070 C.2   252  HIS252      0.2264
    174  O        -20.0350   10.1260   28.2740 O.2   252  HIS252     -0.2867
    175  CB       -20.8820    8.4020   25.7050 C.3   252  HIS252      0.0745
    176  CG       -21.4510    8.4070   24.3310 C.ar  252  HIS252      0.0817
    177  ND1      -22.2080    9.4460   23.8360 N.ar  252  HIS252     -0.2268
    178  CD2      -21.3530    7.5000   23.3330 C.ar  252  HIS252      0.1154
    179  CE1      -22.5520    9.1740   22.5880 C.ar  252  HIS252      0.1986
    180  NE2      -22.0410    8.0010   22.2590 N.ar  252  HIS252     -0.2212
@<TRIPOS>BOND
     1   135   134    2
     2   134   133    1
     3   133   132    1
     4   133   136    1
     5   116   115    1
     6   136   137    1
     7   139   141   ar
     8   139   137   ar
     9   141   142   ar
    10   137   138   ar
    11   114   115    1
    12   114   111    1
    13   115   117    1
    14   142   143    1
    15   142   140   ar
    16   138   140   ar
    17   113   112    2
    18   112   111    1
    19   111   110    1
    20   128   127    2
    21   110   106   am
    22   127   126    1
    23   125   126    1
    24   129   126    1
    25   129   130    1
    26   129   131    1
    27   121   120    2
    28   106   107    2
    29   106   105    1
    30   109   108    1
    31   108   105    1
    32   105   104    1
    33   120   119    1
    34   118   119    1
    35   119   122    1
    36   104   102   am
    37   122   124    1
    38   122   123    1
    39   103   102    2
    40    69    68    2
    41   102   101    1
    42    78    76    1
    43    51    50    2
    44    59    56    1
    45    59    60    1
    46    68    67    1
    47    66    67    1
    48    66    57   am
    49    56    57    1
    50    56    55    1
    51   101   100    1
    52    50    55   am
    53    50    49    1
    54    76    75    1
    55    48    49    1
    56    67    70    1
    57    77    75    1
    58    75    72    1
    59    60    62   ar
    60    60    61   ar
    61    57    58    2
    62    94    95    1
    63    94    93    1
    64    62    64   ar
    65    49    52    1
    66    54    52    1
    67    61    63   ar
    68     8     6    1
    69   144   145    1
    70    93    92    1
    71   148   145    1
    72   148   149    1
    73    71    72    1
    74    72    73    1
    75    52    53    1
    76    64    65   ar
    77    63    65   ar
    78   150   149   ar
    79   150   152   ar
    80   145   146    1
    81    73    74    2
    82   149   151   ar
    83    99    98    2
    84     6     5    1
    85   152   153   ar
    86    92    91    1
    87   151   153   ar
    88    98    97    1
    89     5     2    1
    90     5     7    1
    91     2     1    1
    92     2     3    1
    93   146   154   am
    94   146   147    2
    95     4     3    2
    96    91    88    1
    97   154   155    1
    98    97    96    1
    99     3     9   am
   100    86    84    1
   101   159   158    1
   102   159   160    1
   103    46    44   ar
   104    46    47   ar
   105    44    43   ar
   106    88    87    1
   107    88    89    1
   108   155   158    1
   109   155   156    1
   110    87    81   am
   111    47    45   ar
   112    43    45   ar
   113    43    42    1
   114    83    84    1
   115    83    85    1
   116    83    80    1
   117    42    39    1
   118     9    10    1
   119   160   161    1
   120    79    80    1
   121   156   157    2
   122    80    81    1
   123    81    82    2
   124    89    90    2
   125    10    11    1
   126    10    13    1
   127   169   168   ar
   128    41    40    2
   129   170   168   ar
   130    12    11    2
   131    39    40    1
   132    39    38    1
   133   163   164    1
   134    17    15   ar
   135    17    18   ar
   136    15    14   ar
   137   168   167    1
   138   161   162    1
   139    18    16   ar
   140    14    13    1
   141    14    16   ar
   142   167   164    1
   143    25    27   ar
   144    25    24   ar
   145   164   165    1
   146    38    31   am
   147    27    28   ar
   148    22    21    2
   149    37    35   ar
   150    24    23    1
   151    24    26   ar
   152    32    31    2
   153    31    30    1
   154    34    35    1
   155    34    33    1
   156    23    20    1
   157    28    26   ar
   158   165   166    2
   159    35    36   ar
   160    21    20    1
   161   180   179   ar
   162   180   178   ar
   163    20    19    1
   164   179   177   ar
   165    33    30    1
   166    30    29    1
   167   178   176   ar
   168   177   176   ar
   169   176   175    1
   170   171   172    1
   171   175   172    1
   172   172   173    1
   173   173   174    2
