@<TRIPOS>MOLECULE
tmp/6ih6B00.pdb
 209 196 0 0 0
SMALL
GASTEIGER

@<TRIPOS>ATOM
      1  N        108.7680  -33.3040   91.4020 N.3    76  LYS76      -0.1245
      2  CA       109.6590  -32.5250   92.2450 C.3    76  LYS76       0.1561
      3  C        108.9280  -31.8280   93.3760 C.2    76  LYS76       0.2260
      4  O        109.5420  -31.5520   94.4140 O.2    76  LYS76      -0.2867
      5  CB       110.4210  -31.4850   91.4120 C.3    76  LYS76       0.0271
      6  CG       109.6090  -30.3060   90.9050 C.3    76  LYS76       0.0035
      7  CD       110.4720  -29.4890   89.9500 C.3    76  LYS76       0.0206
      8  CE       109.8000  -28.2120   89.5340 C.3    76  LYS76       0.1093
      9  NZ       109.5490  -27.3890   90.7400 N.3    76  LYS76      -0.1314
     10  N        114.7390  -31.9370   91.1250 N.3    98  ASP98      -0.1239
     11  CA       114.3810  -31.1910   89.9220 C.3    98  ASP98       0.1674
     12  C        115.2550  -31.5680   88.7290 C.2    98  ASP98       0.2266
     13  O        116.3930  -31.1040   88.6240 O.2    98  ASP98      -0.2867
     14  CB       114.5010  -29.6880   90.2010 C.3    98  ASP98       0.1410
     15  CG       113.9970  -28.8190   89.0550 C.2    98  ASP98       0.3668
     16  OD1      113.7290  -29.3400   87.9520 O.co2  98  ASP98      -0.2456
     17  OD2      113.8650  -27.5940   89.2740 O.co2  98  ASP98      -0.2456
     18  N        114.0410  -30.8220   85.6370 N.3   100  LEU100     -0.1231
     19  CA       113.2480  -30.1480   84.6270 C.3   100  LEU100      0.1693
     20  C        113.8730  -28.8520   84.1150 C.2   100  LEU100      0.2592
     21  O        113.4450  -28.3560   83.0650 O.2   100  LEU100     -0.2718
     22  CB       111.8480  -29.8330   85.1760 C.3   100  LEU100      0.0284
     23  CG       111.0610  -30.8640   86.0040 C.3   100  LEU100      0.0019
     24  CD1      109.6540  -30.3390   86.3140 C.3   100  LEU100      0.0001
     25  CD2      110.9980  -32.2430   85.3530 C.3   100  LEU100      0.0001
     26  N        114.8600  -28.2920   84.8190 N.am  101  THR101     -0.1953
     27  CA       115.3320  -26.9470   84.4890 C.3   101  THR101      0.1897
     28  C        115.8370  -26.8490   83.0440 C.2   101  THR101      0.2313
     29  O        115.4000  -25.9770   82.2850 O.2   101  THR101     -0.2863
     30  CB       116.4200  -26.5240   85.4750 C.3   101  THR101      0.1794
     31  OG1      115.8170  -26.1960   86.7340 O.3   101  THR101     -0.2208
     32  CG2      117.1720  -25.3250   84.9520 C.3   101  THR101      0.0378
     33  N        113.4800  -27.2070   80.1740 N.3   104  THR104     -0.1218
     34  CA       112.5170  -26.1150   80.1060 C.3   104  THR104      0.1862
     35  C        113.1500  -24.8540   79.5410 C.2   104  THR104      0.2287
     36  O        112.5020  -24.1230   78.7890 O.2   104  THR104     -0.2866
     37  CB       111.9050  -25.8460   81.4900 C.3   104  THR104      0.1770
     38  OG1      111.0420  -26.9340   81.8570 O.3   104  THR104     -0.2211
     39  CG2      111.1050  -24.5460   81.4910 C.3   104  THR104      0.0375
     40  N        112.4990  -12.3520   83.6510 N.3   151  ARG151     -0.1231
     41  CA       111.7670  -12.0140   84.8720 C.3   151  ARG151      0.1694
     42  C        111.8930  -13.1930   85.8230 C.2   151  ARG151      0.2592
     43  O        111.0880  -14.1210   85.8080 O.2   151  ARG151     -0.2718
     44  CB       110.3110  -11.7140   84.5480 C.3   151  ARG151      0.0321
     45  CG       109.4130  -11.6260   85.7490 C.3   151  ARG151      0.0489
     46  CD       109.5930  -10.2900   86.4010 C.3   151  ARG151      0.2205
     47  NE       109.1120  -10.3100   87.7680 N.pl3 151  ARG151     -0.0865
     48  CZ       109.8660  -10.6400   88.8040 C.cat 151  ARG151      0.5346
     49  NH1      111.1430  -10.9760   88.6380 N.pl3 151  ARG151      0.1354
     50  NH2      109.3360  -10.6180   90.0060 N.pl3 151  ARG151      0.1354
     51  N        112.9320  -13.1750   86.6460 N.am  152  GLY152     -0.1957
     52  CA       113.1430  -14.2620   87.5750 C.3   152  GLY152      0.1869
     53  C        114.4060  -15.0270   87.2630 C.2   152  GLY152      0.2309
     54  O        114.4480  -15.7830   86.2950 O.2   152  GLY152     -0.2863
     55  N        115.8300  -17.5950   88.6650 N.3   154  GLY154     -0.1210
     56  CA       115.8420  -18.8860   89.3240 C.3   154  GLY154      0.1956
     57  C        116.5770  -19.9360   88.5210 C.2   154  GLY154      0.2612
     58  O        117.5040  -19.6370   87.7580 O.2   154  GLY154     -0.2717
     59  N        116.1610  -21.1930   88.6960 N.am  155  ALA155     -0.1965
     60  CA       116.8200  -22.3040   88.0130 C.3   155  ALA155      0.1728
     61  C        116.7110  -22.1570   86.5030 C.2   155  ALA155      0.2616
     62  O        117.7160  -22.1950   85.7880 O.2   155  ALA155     -0.2715
     63  CB       116.2100  -23.6310   88.4610 C.3   155  ALA155      0.0334
     64  N        115.4790  -22.0150   86.0040 N.am  156  VAL156     -0.1963
     65  CA       115.2500  -21.8300   84.5750 C.3   156  VAL156      0.1727
     66  C        116.0060  -20.6060   84.0800 C.2   156  VAL156      0.2617
     67  O        116.9130  -20.7120   83.2450 O.2   156  VAL156     -0.2715
     68  CB       113.7420  -21.7250   84.2850 C.3   156  VAL156      0.0290
     69  CG1      113.4870  -21.1750   82.8820 C.3   156  VAL156      0.0023
     70  CG2      113.0880  -23.0820   84.4720 C.3   156  VAL156      0.0023
     71  N        115.6630  -19.4330   84.6140 N.am  157  GLY157     -0.1940
     72  CA       116.2880  -18.1810   84.2280 C.3   157  GLY157      0.2014
     73  C        117.7960  -18.2490   84.0400 C.2   157  GLY157      0.2638
     74  O        118.3220  -17.8090   83.0150 O.2   157  GLY157     -0.2714
     75  N        118.5120  -18.8050   85.0130 N.am  158  ARG158     -0.1977
     76  CA       119.9570  -18.8810   84.8550 C.3   158  ARG158      0.1597
     77  C        120.3450  -19.8490   83.7470 C.2   158  ARG158      0.2287
     78  O        121.4170  -19.7000   83.1540 O.2   158  ARG158     -0.2864
     79  CB       120.6200  -19.2670   86.1780 C.3   158  ARG158      0.0334
     80  CG       120.2310  -18.3620   87.3370 C.3   158  ARG158      0.0492
     81  CD       121.0600  -18.6050   88.5980 C.3   158  ARG158      0.2205
     82  NE       120.2070  -18.9450   89.7350 N.pl3 158  ARG158     -0.0865
     83  CZ       120.0600  -20.1770   90.2090 C.cat 158  ARG158      0.5346
     84  NH1      120.7330  -21.1830   89.6670 N.pl3 158  ARG158      0.1354
     85  NH2      119.2450  -20.4010   91.2340 N.pl3 158  ARG158      0.1354
     86  N        115.4310  -10.5840   89.0150 N.3   175  ASP175     -0.1225
     87  CA       115.2110  -11.2290   90.3150 C.3   175  ASP175      0.1805
     88  C        115.6080  -10.3290   91.4910 C.2   175  ASP175      0.2597
     89  O        116.4990   -9.4830   91.3820 O.2   175  ASP175     -0.2718
     90  CB       116.0030  -12.5390   90.3810 C.3   175  ASP175      0.1424
     91  CG       115.5840  -13.4340   91.5410 C.2   175  ASP175      0.3668
     92  OD1      114.9430  -12.9410   92.5040 O.co2 175  ASP175     -0.2456
     93  OD2      115.8960  -14.6490   91.4780 O.co2 175  ASP175     -0.2456
     94  N        114.9810  -10.5950   92.6420 N.am  176  ARG176     -0.1979
     95  CA       115.2140   -9.8810   93.9010 C.3   176  ARG176      0.1597
     96  C        116.5150  -10.2800   94.5570 C.2   176  ARG176      0.2287
     97  O        117.0950   -9.5110   95.2910 O.2   176  ARG176     -0.2864
     98  CB       114.0670  -10.0920   94.8850 C.3   176  ARG176      0.0334
     99  CG       112.8470   -9.2340   94.6050 C.3   176  ARG176      0.0492
    100  CD       111.7760   -9.3440   95.6760 C.3   176  ARG176      0.2205
    101  NE       111.3260  -10.7020   95.9150 N.pl3 176  ARG176     -0.0865
    102  CZ       111.1330  -11.6080   94.9730 C.cat 176  ARG176      0.5346
    103  NH1      110.7230  -12.8100   95.3120 N.pl3 176  ARG176      0.1354
    104  NH2      111.3390  -11.3160   93.7000 N.pl3 176  ARG176      0.1354
    105  N        110.2310  -16.0260   84.4200 N.3   207  ALA207     -0.1231
    106  CA       110.7570  -17.2420   85.0370 C.3   207  ALA207      0.1694
    107  C        110.4160  -17.2490   86.5300 C.2   207  ALA207      0.2592
    108  O        111.2820  -17.3660   87.3950 O.2   207  ALA207     -0.2718
    109  CB       112.2600  -17.3500   84.7970 C.3   207  ALA207      0.0304
    110  N        109.1260  -17.1160   86.8360 N.am  208  VAL208     -0.1966
    111  CA       108.6690  -17.0510   88.2300 C.3   208  VAL208      0.1712
    112  C        107.7100  -18.2040   88.5330 C.2   208  VAL208      0.2458
    113  O        106.9530  -18.6340   87.6410 O.2   208  VAL208     -0.2730
    114  CB       108.0240  -15.6860   88.5580 C.3   208  VAL208      0.0289
    115  CG1      109.0550  -14.5690   88.4910 C.3   208  VAL208      0.0023
    116  CG2      106.8570  -15.3840   87.6420 C.3   208  VAL208      0.0023
    117  N        107.7700  -18.7900   89.7770 N.am  209  PRO209     -0.2727
    118  CA       106.7940  -19.7930   90.2040 C.3   209  PRO209      0.1402
    119  C        105.3320  -19.4120   90.0380 C.2   209  PRO209      0.2269
    120  O        104.9380  -18.5350   89.2610 O.2   209  PRO209     -0.2865
    121  CB       107.1200  -19.9720   91.6810 C.3   209  PRO209      0.0296
    122  CG       108.5530  -19.4930   91.8620 C.3   209  PRO209      0.0237
    123  CD       108.9980  -18.8920   90.5520 C.3   209  PRO209      0.0939
    124  N        102.2560  -18.2770   92.8800 N.3   211  ALA211     -0.1245
    125  CA       101.9380  -17.8530   94.2310 C.3   211  ALA211      0.1562
    126  C        100.7180  -16.9570   94.1160 C.2   211  ALA211      0.2260
    127  O        100.4340  -16.4160   93.0420 O.2   211  ALA211     -0.2867
    128  CB       103.1130  -17.1180   94.9000 C.3   211  ALA211      0.0290
    129  N        100.9590  -14.2820   95.6740 N.3   213  GLU213     -0.1231
    130  CA       101.9020  -13.2220   95.3370 C.3   213  GLU213      0.1699
    131  C        102.3130  -13.3190   93.8730 C.2   213  GLU213      0.2592
    132  O        102.8620  -14.3370   93.4380 O.2   213  GLU213     -0.2718
    133  CB       103.1390  -13.3160   96.2390 C.3   213  GLU213      0.0402
    134  CG       104.3650  -12.5390   95.7330 C.3   213  GLU213      0.1161
    135  CD       105.6930  -13.0570   96.2910 C.2   213  GLU213      0.3649
    136  OE1      105.6940  -14.1290   96.9360 O.co2 213  GLU213     -0.2457
    137  OE2      106.7360  -12.3940   96.0710 O.co2 213  GLU213     -0.2457
    138  N        102.0420  -12.2580   93.1150 N.am  214  THR214     -0.1953
    139  CA       102.5960  -12.0720   91.7720 C.3   214  THR214      0.1897
    140  C        102.1970  -13.2020   90.8120 C.2   214  THR214      0.2313
    141  O        103.0160  -13.7460   90.0660 O.2   214  THR214     -0.2863
    142  CB       104.1130  -11.8870   91.8430 C.3   214  THR214      0.1794
    143  OG1      104.7430  -13.0780   92.3430 O.3   214  THR214     -0.2208
    144  CG2      104.4220  -10.7060   92.7530 C.3   214  THR214      0.0378
    145  N        101.3660  -11.3660   86.6900 N.3   217  LEU217     -0.1245
    146  CA       102.4680  -10.4720   86.8900 C.3   217  LEU217      0.1561
    147  C        102.4030   -9.6850   85.6360 C.2   217  LEU217      0.2260
    148  O        102.7220   -8.5240   85.6440 O.2   217  LEU217     -0.2867
    149  CB       103.7930  -11.1970   87.0280 C.3   217  LEU217      0.0270
    150  CG       104.8600  -10.4870   87.8320 C.3   217  LEU217      0.0019
    151  CD1      104.8170  -10.8800   89.2870 C.3   217  LEU217      0.0001
    152  CD2      106.2260  -10.7410   87.2390 C.3   217  LEU217      0.0001
    153  N        106.8700  -19.9800   79.4870 N.3   235  ALA235     -0.1231
    154  CA       106.8680  -21.3830   79.8590 C.3   235  ALA235      0.1694
    155  C        106.9650  -21.5090   81.3730 C.2   235  ALA235      0.2592
    156  O        107.6730  -22.3730   81.8910 O.2   235  ALA235     -0.2718
    157  CB       108.0060  -22.1390   79.1760 C.3   235  ALA235      0.0304
    158  N        106.2550  -20.6380   82.0980 N.am  236  CYS236     -0.1956
    159  CA       106.3060  -20.6130   83.5610 C.3   236  CYS236      0.1843
    160  C        104.8940  -20.6280   84.1640 C.2   236  CYS236      0.2625
    161  O        104.2340  -19.5990   84.3360 O.2   236  CYS236     -0.2714
    162  CB       107.1960  -19.4200   84.0450 C.3   236  CYS236      0.0997
    163  SG       106.5290  -17.7660   84.4450 S.3   236  CYS236     -0.0797
    164  N        104.4270  -21.8430   84.4670 N.am  237  ARG237     -0.1977
    165  CA       103.1930  -22.1400   85.2030 C.3   237  ARG237      0.1597
    166  C        101.9070  -21.7860   84.4640 C.2   237  ARG237      0.2287
    167  O        101.0420  -22.6580   84.2800 O.2   237  ARG237     -0.2864
    168  CB       103.1870  -21.4910   86.5740 C.3   237  ARG237      0.0334
    169  CG       101.9340  -21.9160   87.3300 C.3   237  ARG237      0.0492
    170  CD       102.1310  -23.2850   88.0410 C.3   237  ARG237      0.2205
    171  NE       102.8720  -23.0900   89.2690 N.pl3 237  ARG237     -0.0865
    172  CZ       103.1530  -24.0220   90.1750 C.cat 237  ARG237      0.5346
    173  NH1      102.7910  -25.3030   90.0580 N.pl3 237  ARG237      0.1354
    174  NH2      103.8360  -23.6570   91.2550 N.pl3 237  ARG237      0.1354
    175  N        104.1340  -22.3520   76.7340 N.3   261  ASP261     -0.1225
    176  CA       104.1370  -23.7830   76.9980 C.3   261  ASP261      0.1805
    177  C        103.0610  -24.1610   77.9880 C.2   261  ASP261      0.2597
    178  O        102.7970  -25.3550   78.1840 O.2   261  ASP261     -0.2718
    179  CB       105.5050  -24.2230   77.5330 C.3   261  ASP261      0.1424
    180  CG       105.6220  -25.7350   77.6810 C.2   261  ASP261      0.3668
    181  OD1      105.1940  -26.4690   76.7440 O.co2 261  ASP261     -0.2456
    182  OD2      106.1350  -26.1780   78.7450 O.co2 261  ASP261     -0.2456
    183  N        102.3790  -23.1570   78.5310 N.am  262  VAL262     -0.1980
    184  CA       101.6990  -23.2530   79.8080 C.3   262  VAL262      0.1595
    185  C        100.5010  -22.3120   79.7870 C.2   262  VAL262      0.2287
    186  O        100.5200  -21.2790   79.1170 O.2   262  VAL262     -0.2864
    187  CB       102.7120  -22.9040   80.9160 C.3   262  VAL262      0.0276
    188  CG1      102.8040  -21.3870   81.1360 C.3   262  VAL262      0.0022
    189  CG2      102.4120  -23.6850   82.1160 C.3   262  VAL262      0.0022
    190  N        102.3630  -28.3300   77.4960 N.3   293  HIS293     -0.1241
    191  CA       103.1900  -28.5600   78.6850 C.3   293  HIS293      0.1621
    192  C        104.2980  -29.5780   78.4020 C.2   293  HIS293      0.2264
    193  O        104.4370  -30.6080   79.0860 O.2   293  HIS293     -0.2867
    194  CB       102.3280  -29.0090   79.8680 C.3   293  HIS293      0.0745
    195  CG       102.9170  -28.6850   81.2070 C.ar  293  HIS293      0.0817
    196  ND1      102.2210  -27.9940   82.1730 N.ar  293  HIS293     -0.2268
    197  CD2      104.1390  -28.9390   81.7330 C.ar  293  HIS293      0.1154
    198  CE1      102.9840  -27.8490   83.2420 C.ar  293  HIS293      0.1986
    199  NE2      104.1550  -28.4070   83.0000 N.ar  293  HIS293     -0.2212
    200  N        107.4720  -28.8340   78.4690 N.3   295  GLY295     -0.1210
    201  CA       108.6990  -28.2210   78.9440 C.3   295  GLY295      0.1956
    202  C        109.7670  -29.2110   79.3530 C.2   295  GLY295      0.2612
    203  O        110.9570  -28.9470   79.1760 O.2   295  GLY295     -0.2717
    204  N        109.3690  -30.3600   79.8920 N.am  296  SER296     -0.1952
    205  CA       110.2980  -31.4100   80.2650 C.3   296  SER296      0.1924
    206  C        110.0220  -32.6930   79.4870 C.2   296  SER296      0.2314
    207  O        110.3420  -33.7870   79.9420 O.2   296  SER296     -0.2863
    208  CB       110.2580  -31.6600   81.7720 C.3   296  SER296      0.2116
    209  OG       109.0670  -32.3330   82.1800 O.3   296  SER296     -0.2180
@<TRIPOS>BOND
     1   175   176    1
     2   181   180   ar
     3   176   179    1
     4   176   177    1
     5   190   191    1
     6   179   180    1
     7   180   182   ar
     8   177   178    2
     9   177   183   am
    10   192   191    1
    11   192   193    2
    12   200   201    1
    13   183   184    1
    14   191   194    1
    15    36    35    2
    16   201   202    1
    17   186   185    2
    18   203   202    2
    19   157   154    1
    20   202   204   am
    21   153   154    1
    22   206   207    2
    23   206   205    1
    24    35    34    1
    25   185   184    1
    26   184   187    1
    27   154   155    1
    28   194   195    1
    29   204   205    1
    30    34    33    1
    31    34    37    1
    32   205   208    1
    33   187   188    1
    34   187   189    1
    35   195   197   ar
    36   195   196   ar
    37   155   156    2
    38   155   158   am
    39    37    39    1
    40    37    38    1
    41   197   199   ar
    42   208   209    1
    43   158   159    1
    44   196   198   ar
    45    29    28    2
    46    69    68    1
    47   199   198   ar
    48    74    73    2
    49    28    27    1
    50    21    20    2
    51    78    77    2
    52    67    66    2
    53   159   162    1
    54   159   160    1
    55    40    41    1
    56    77    76    1
    57    73    72    1
    58    73    75   am
    59   162   163    1
    60    66    65    1
    61    66    71   am
    62    20    19    1
    63    20    26   am
    64   160   161    2
    65   160   164   am
    66    72    71    1
    67   167   166    2
    68    68    70    1
    69    68    65    1
    70   105   106    1
    71   166   165    1
    72   164   165    1
    73    27    26    1
    74    27    30    1
    75    44    41    1
    76    44    45    1
    77    65    64    1
    78    19    22    1
    79    19    18    1
    80   109   106    1
    81    76    75    1
    82    76    79    1
    83    41    42    1
    84    32    30    1
    85   106   107    1
    86    22    23    1
    87   165   168    1
    88    25    23    1
    89    30    31    1
    90   147   148    2
    91   147   146    1
    92    45    46    1
    93    62    61    2
    94    43    42    2
    95    42    51   am
    96    64    61   am
    97    23    24    1
    98    79    80    1
    99    54    53    2
   100    46    47    1
   101    61    60    1
   102   107   110   am
   103   107   108    2
   104   168   169    1
   105    51    52    1
   106   145   146    1
   107   110   111    1
   108   146   149    1
   109   149   150    1
   110   152   150    1
   111    53    52    1
   112   169   170    1
   113    80    81    1
   114   113   112    2
   115   116   114    1
   116    58    57    2
   117    47    48    2
   118   150   151    1
   119    16    15   ar
   120    60    63    1
   121    60    59    1
   122   170   171    1
   123   111   112    1
   124   111   114    1
   125   115   114    1
   126    57    59   am
   127    57    56    1
   128   112   117   am
   129    81    82    1
   130    13    12    2
   131    49    48    1
   132    55    56    1
   133    12    11    1
   134    48    50    1
   135    86    87    1
   136    15    17   ar
   137    15    14    1
   138   120   119    2
   139   171   172    2
   140     8     7    1
   141     8     9    1
   142    84    83    1
   143    82    83    2
   144   117   118    1
   145   117   123    1
   146    11    14    1
   147    11    10    1
   148     7     6    1
   149   119   118    1
   150   173   172    1
   151   141   140    2
   152   172   174    1
   153   118   121    1
   154    83    85    1
   155    87    90    1
   156    87    88    1
   157    90    91    1
   158   123   122    1
   159   140   139    1
   160     6     5    1
   161    89    88    2
   162     1     2    1
   163     5     2    1
   164    93    91   ar
   165    88    94   am
   166    91    92   ar
   167   121   122    1
   168   139   142    1
   169   139   138    1
   170   142   143    1
   171   142   144    1
   172     2     3    1
   173    94    95    1
   174   124   125    1
   175   127   126    2
   176   138   131   am
   177     3     4    2
   178   132   131    2
   179   104   102    1
   180   131   130    1
   181    95    96    1
   182    95    98    1
   183   126   125    1
   184   125   128    1
   185    96    97    2
   186    99    98    1
   187    99   100    1
   188   102   103    1
   189   102   101    2
   190   130   129    1
   191   130   133    1
   192   100   101    1
   193   134   133    1
   194   134   135    1
   195   137   135   ar
   196   135   136   ar
