@<TRIPOS>MOLECULE
tmp/6iheA03.pdb
 91 86 0 0 0
SMALL
GASTEIGER

@<TRIPOS>ATOM
      1  N        -16.9930   67.7240    1.5690 N.3   164  ASP164     -0.1225
      2  CA       -17.8470   67.3830    0.4600 C.3   164  ASP164      0.1805
      3  C        -17.0100   66.6500   -0.6000 C.2   164  ASP164      0.2598
      4  O        -15.8240   66.7650   -0.6070 O.2   164  ASP164     -0.2718
      5  CB       -18.5010   68.6280   -0.1020 C.3   164  ASP164      0.1424
      6  CG       -19.9090   68.3850   -0.6070 C.2   164  ASP164      0.3668
      7  OD1      -20.2650   67.2480   -0.7470 O.co2 164  ASP164     -0.2456
      8  OD2      -20.6480   69.3200   -0.8490 O.co2 164  ASP164     -0.2456
      9  N        -17.6410   65.8780   -1.4720 N.am  165  GLY165     -0.1942
     10  CA       -16.9250   65.1590   -2.4970 C.3   165  GLY165      0.2014
     11  C        -17.2910   63.7120   -2.6960 C.2   165  GLY165      0.2638
     12  O        -17.9950   63.1550   -1.9170 O.2   165  GLY165     -0.2714
     13  N        -16.7660   63.1380   -3.7580 N.am  166  PHE166     -0.1973
     14  CA       -17.0640   61.7920   -4.1630 C.3   166  PHE166      0.1639
     15  C        -15.9200   60.9250   -4.6820 C.2   166  PHE166      0.2290
     16  O        -14.9540   61.4180   -5.1880 O.2   166  PHE166     -0.2864
     17  CB       -18.1320   61.8800   -5.2670 C.3   166  PHE166      0.0560
     18  CG       -19.4070   62.5280   -4.8240 C.ar  166  PHE166     -0.0200
     19  CD1      -20.3550   61.7960   -4.1710 C.ar  166  PHE166     -0.0042
     20  CD2      -19.6390   63.8740   -5.0080 C.ar  166  PHE166     -0.0042
     21  CE1      -21.5170   62.3600   -3.7190 C.ar  166  PHE166     -0.0003
     22  CE2      -20.8010   64.4490   -4.5600 C.ar  166  PHE166     -0.0003
     23  CZ       -21.7430   63.6850   -3.9170 C.ar  166  PHE166     -0.0000
     24  N        -11.6850   66.7160   -8.2030 N.3   180  SER180     -0.1202
     25  CA       -12.3830   67.9790   -8.4980 C.3   180  SER180      0.2020
     26  C        -13.7250   68.2070   -7.7550 C.2   180  SER180      0.2619
     27  O        -14.2640   69.3110   -7.7790 O.2   180  SER180     -0.2717
     28  CB       -12.6230   68.1750   -9.9820 C.3   180  SER180      0.2103
     29  OG       -13.5210   67.2350  -10.5040 O.3   180  SER180     -0.2182
     30  N        -14.2720   67.1730   -7.1150 N.am  181  THR181     -0.1952
     31  CA       -15.4860   67.3130   -6.3010 C.3   181  THR181      0.1897
     32  C        -15.1530   67.5810   -4.8570 C.2   181  THR181      0.2313
     33  O        -16.0530   67.9110   -4.0680 O.2   181  THR181     -0.2863
     34  CB       -16.3390   66.0200   -6.3780 C.3   181  THR181      0.1794
     35  OG1      -15.6950   64.9210   -5.7160 O.3   181  THR181     -0.2208
     36  CG2      -16.5560   65.6060   -7.8330 C.3   181  THR181      0.0378
     37  N        -14.0900   69.1490   -1.5360 N.3   183  LYS183     -0.1245
     38  CA       -14.0090   70.4840   -1.0370 C.3   183  LYS183      0.1561
     39  C        -14.1280   70.4150    0.4470 C.2   183  LYS183      0.2260
     40  O        -14.8690   69.5590    0.9860 O.2   183  LYS183     -0.2867
     41  CB       -15.1190   71.3440   -1.5050 C.3   183  LYS183      0.0271
     42  CG       -15.4650   71.2810   -2.9840 C.3   183  LYS183      0.0035
     43  CD       -14.6650   72.2410   -3.8140 C.3   183  LYS183      0.0206
     44  CE       -15.1800   72.2010   -5.2410 C.3   183  LYS183      0.1093
     45  NZ       -14.0920   72.7070   -6.0930 N.3   183  LYS183     -0.1314
     46  N        -27.3180   63.6740   -4.3730 N.3   239  VAL239     -0.1245
     47  CA       -26.2530   63.2240   -5.2820 C.3   239  VAL239      0.1561
     48  C        -25.3880   62.1980   -4.5560 C.2   239  VAL239      0.2260
     49  O        -24.9160   62.4410   -3.4610 O.2   239  VAL239     -0.2867
     50  CB       -25.4280   64.4280   -5.7740 C.3   239  VAL239      0.0252
     51  CG1      -24.2180   63.9610   -6.5630 C.3   239  VAL239      0.0019
     52  CG2      -26.3280   65.3380   -6.5670 C.3   239  VAL239      0.0019
     53  N        -21.2070   60.5590   -9.3710 N.3   258  PRO258     -0.2116
     54  CA       -22.2440   61.3500   -8.6770 C.3   258  PRO258      0.1372
     55  C        -23.4810   61.3980   -9.5210 C.2   258  PRO258      0.2244
     56  O        -23.4140   61.7810  -10.7250 O.2   258  PRO258     -0.2868
     57  CB       -21.6350   62.7570   -8.5460 C.3   258  PRO258      0.0268
     58  CG       -20.1670   62.5400   -8.6970 C.3   258  PRO258      0.0207
     59  CD       -19.9740   61.3470   -9.5660 C.3   258  PRO258      0.0892
     60  N        -23.6890   62.8550  -13.1600 N.3   269  LEU269     -0.1245
     61  CA       -23.0890   64.1950  -13.3240 C.3   269  LEU269      0.1561
     62  C        -21.6450   64.1610  -13.8720 C.2   269  LEU269      0.2260
     63  O        -20.8770   65.1180  -13.6390 O.2   269  LEU269     -0.2867
     64  CB       -23.1430   64.9700  -11.9790 C.3   269  LEU269      0.0270
     65  CG       -24.5450   65.1120  -11.3630 C.3   269  LEU269      0.0019
     66  CD1      -24.4290   65.9550  -10.1080 C.3   269  LEU269      0.0001
     67  CD2      -25.5650   65.7240  -12.3180 C.3   269  LEU269      0.0001
     68  N        -19.9990   67.1170  -15.7580 N.3   272  LEU272     -0.1231
     69  CA       -19.5950   68.2920  -14.9980 C.3   272  LEU272      0.1693
     70  C        -18.3230   68.1270  -14.2120 C.2   272  LEU272      0.2592
     71  O        -17.9340   69.0390  -13.5350 O.2   272  LEU272     -0.2718
     72  CB       -20.7130   68.6600  -14.0250 C.3   272  LEU272      0.0284
     73  CG       -22.0260   69.0810  -14.6920 C.3   272  LEU272      0.0019
     74  CD1      -23.1730   69.2100  -13.6850 C.3   272  LEU272      0.0001
     75  CD2      -21.7910   70.4010  -15.3980 C.3   272  LEU272      0.0001
     76  N        -17.6710   66.9750  -14.2810 N.am  273  LEU273     -0.1966
     77  CA       -16.3600   66.8110  -13.6600 C.3   273  LEU273      0.1728
     78  C        -15.2750   67.6110  -14.4410 C.2   273  LEU273      0.2616
     79  O        -15.5030   67.9630  -15.5920 O.2   273  LEU273     -0.2715
     80  CB       -16.0020   65.3250  -13.5540 C.3   273  LEU273      0.0311
     81  CG       -16.7960   64.5600  -12.4620 C.3   273  LEU273      0.0022
     82  CD1      -16.6880   63.0680  -12.6840 C.3   273  LEU273      0.0001
     83  CD2      -16.3450   64.8890  -11.0270 C.3   273  LEU273      0.0001
     84  N        -14.1400   67.9160  -13.8050 N.am  274  ASP274     -0.1971
     85  CA       -12.9470   68.4650  -14.5180 C.3   274  ASP274      0.1709
     86  C        -12.4190   67.4200  -15.4750 C.2   274  ASP274      0.2293
     87  O        -12.8500   66.2770  -15.4170 O.2   274  ASP274     -0.2864
     88  CB       -11.8300   68.9490  -13.5630 C.3   274  ASP274      0.1436
     89  CG       -10.9560   67.8000  -12.9670 C.2   274  ASP274      0.3671
     90  OD1      -11.1680   66.6140  -13.2270 O.co2 274  ASP274     -0.2456
     91  OD2       -9.9840   68.0810  -12.2250 O.co2 274  ASP274     -0.2456
@<TRIPOS>BOND
     1    68    69    1
     2    79    78    2
     3    86    87    2
     4    86    85    1
     5    75    73    1
     6    69    70    1
     7    69    72    1
     8    73    72    1
     9    73    74    1
    10    85    84    1
    11    85    88    1
    12    78    84   am
    13    78    77    1
    14    76    70   am
    15    76    77    1
    16    70    71    2
    17    62    63    2
    18    62    61    1
    19    77    80    1
    20    88    89    1
    21    80    81    1
    22    61    60    1
    23    61    64    1
    24    90    89   ar
    25    89    91   ar
    26    82    81    1
    27    81    83    1
    28    67    65    1
    29    64    65    1
    30    65    66    1
    31    56    55    2
    32    29    28    1
    33    28    25    1
    34    59    53    1
    35    59    58    1
    36    55    54    1
    37    53    54    1
    38    58    57    1
    39    54    57    1
    40    25    24    1
    41    25    26    1
    42    36    34    1
    43    27    26    2
    44    26    30   am
    45    30    31    1
    46    52    50    1
    47    51    50    1
    48    34    31    1
    49    34    35    1
    50    31    32    1
    51    45    44    1
    52    50    47    1
    53    47    48    1
    54    47    46    1
    55    17    18    1
    56    17    14    1
    57    44    43    1
    58    16    15    2
    59    20    18   ar
    60    20    22   ar
    61    32    33    2
    62    18    19   ar
    63    15    14    1
    64    22    23   ar
    65    48    49    2
    66    19    21   ar
    67    14    13    1
    68    23    21   ar
    69    43    42    1
    70    13    11   am
    71    42    41    1
    72    11    10    1
    73    11    12    2
    74    10     9    1
    75    37    38    1
    76    41    38    1
    77     9     3   am
    78    38    39    1
    79     8     6   ar
    80     7     6   ar
    81     6     5    1
    82     4     3    2
    83     3     2    1
    84     5     2    1
    85    39    40    2
    86     2     1    1
