@<TRIPOS>MOLECULE
tmp/6iheA01.pdb
 96 89 0 0 0
SMALL
GASTEIGER

@<TRIPOS>ATOM
      1  N        -16.3660   38.3430    1.3080 N.3    81  ARG81      -0.1245
      2  CA       -14.9310   38.1900    1.2810 C.3    81  ARG81       0.1563
      3  C        -14.3320   37.6200    2.5480 C.2    81  ARG81       0.2260
      4  O        -14.8330   37.8030    3.6240 O.2    81  ARG81      -0.2867
      5  CB       -14.2960   39.5480    1.0890 C.3    81  ARG81       0.0307
      6  CG       -14.2250   40.0290   -0.3230 C.3    81  ARG81       0.0489
      7  CD       -12.9890   40.8670   -0.5160 C.3    81  ARG81       0.2205
      8  NE       -13.1170   42.1750    0.0960 N.pl3  81  ARG81      -0.0865
      9  CZ       -12.1470   43.0710    0.1540 C.cat  81  ARG81       0.5346
     10  NH1      -10.9750   42.7990   -0.3510 N.pl3  81  ARG81       0.1354
     11  NH2      -12.3540   44.2380    0.7130 N.pl3  81  ARG81       0.1354
     12  N        -12.5320   41.4740   -4.2220 N.3    87  ARG87      -0.1245
     13  CA       -13.9700   41.3870   -4.3560 C.3    87  ARG87       0.1563
     14  C        -14.3350   40.6460   -5.6250 C.2    87  ARG87       0.2260
     15  O        -15.2940   39.9110   -5.6570 O.2    87  ARG87      -0.2867
     16  CB       -14.6380   42.7590   -4.3640 C.3    87  ARG87       0.0307
     17  CG       -14.5380   43.5530   -3.0810 C.3    87  ARG87       0.0489
     18  CD       -15.1470   44.9180   -3.2790 C.3    87  ARG87       0.2205
     19  NE       -15.1300   45.7610   -2.1070 N.pl3  87  ARG87      -0.0865
     20  CZ       -14.0680   46.4010   -1.6510 C.cat  87  ARG87       0.5346
     21  NH1      -12.9120   46.3030   -2.2590 N.pl3  87  ARG87       0.1354
     22  NH2      -14.1630   47.1630   -0.5900 N.pl3  87  ARG87       0.1354
     23  N        -21.2540   41.4760   -3.6780 N.3   119  ASN119     -0.1240
     24  CA       -20.0220   41.6660   -4.4700 C.3   119  ASN119      0.1653
     25  C        -19.7190   40.5610   -5.5090 C.2   119  ASN119      0.2266
     26  O        -20.1830   39.4680   -5.3680 O.2   119  ASN119     -0.2867
     27  CB       -18.8240   41.8160   -3.5240 C.3   119  ASN119      0.1155
     28  CG       -18.6650   43.2230   -2.9790 C.2   119  ASN119      0.2627
     29  OD1      -18.6310   44.1540   -3.7260 O.2   119  ASN119     -0.2716
     30  ND2      -18.5540   43.3590   -1.6930 N.am  119  ASN119     -0.0877
     31  N        -20.1430   54.0780   -0.7290 N.3   143  VAL143     -0.1231
     32  CA       -19.5280   53.6780    0.5540 C.3   143  VAL143      0.1692
     33  C        -18.1100   54.3030    0.6460 C.2   143  VAL143      0.2591
     34  O        -17.7580   54.9210    1.6500 O.2   143  VAL143     -0.2718
     35  CB       -19.4620   52.1570    0.7230 C.3   143  VAL143      0.0266
     36  CG1      -18.7790   51.7570    2.0850 C.3   143  VAL143      0.0020
     37  CG2      -20.8770   51.5600    0.6740 C.3   143  VAL143      0.0020
     38  N        -17.3660   54.1910   -0.4470 N.am  144  GLU144     -0.1979
     39  CA       -15.9960   54.7280   -0.6170 C.3   144  GLU144      0.1602
     40  C        -16.0350   56.2190   -0.4120 C.2   144  GLU144      0.2287
     41  O        -15.2070   56.7600    0.3750 O.2   144  GLU144     -0.2864
     42  CB       -15.4170   54.4100   -2.0300 C.3   144  GLU144      0.0415
     43  CG       -14.9020   53.0070   -2.2120 C.3   144  GLU144      0.1163
     44  CD       -15.9260   51.8810   -2.1740 C.2   144  GLU144      0.3649
     45  OE1      -17.2010   52.1310   -2.0910 O.co2 144  GLU144     -0.2457
     46  OE2      -15.4220   50.7120   -2.2270 O.co2 144  GLU144     -0.2457
     47  N        -16.3510   56.9800    3.2430 N.3   147  ARG147     -0.1245
     48  CA       -15.1250   56.6670    3.8860 C.3   147  ARG147      0.1563
     49  C        -14.0440   57.7940    3.7060 C.2   147  ARG147      0.2260
     50  O        -13.3620   58.1790    4.6590 O.2   147  ARG147     -0.2867
     51  CB       -14.6080   55.3520    3.4110 C.3   147  ARG147      0.0307
     52  CG       -15.4260   54.1960    3.9440 C.3   147  ARG147      0.0489
     53  CD       -15.0940   52.8830    3.2940 C.3   147  ARG147      0.2205
     54  NE       -15.7360   51.7840    4.0180 N.pl3 147  ARG147     -0.0865
     55  CZ       -15.9910   50.5960    3.5040 C.cat 147  ARG147      0.5346
     56  NH1      -15.6720   50.3050    2.2420 N.pl3 147  ARG147      0.1354
     57  NH2      -16.6260   49.7130    4.2550 N.pl3 147  ARG147      0.1354
     58  N        -15.3520   49.7910   -8.8880 N.3   171  HIS171     -0.1241
     59  CA       -15.6220   49.5940   -7.4760 C.3   171  HIS171      0.1621
     60  C        -14.4050   49.3110   -6.6160 C.2   171  HIS171      0.2264
     61  O        -13.3880   48.8890   -7.0800 O.2   171  HIS171     -0.2867
     62  CB       -16.6910   48.4880   -7.3100 C.3   171  HIS171      0.0745
     63  CG       -17.0460   48.1700   -5.8920 C.ar  171  HIS171      0.0817
     64  ND1      -17.7210   49.0430   -5.0840 N.ar  171  HIS171     -0.2268
     65  CD2      -16.8180   47.0770   -5.1440 C.ar  171  HIS171      0.1154
     66  CE1      -17.8890   48.5060   -3.8950 C.ar  171  HIS171      0.1986
     67  NE2      -17.3520   47.3110   -3.9080 N.ar  171  HIS171     -0.2212
     68  N        -11.8570   48.6330    4.4120 N.3   207  PRO207     -0.2116
     69  CA       -12.7830   47.4460    4.5130 C.3   207  PRO207      0.1372
     70  C        -12.0920   46.1070    4.7360 C.2   207  PRO207      0.2244
     71  O        -12.5530   45.3170    5.6170 O.2   207  PRO207     -0.2868
     72  CB       -13.5510   47.4600    3.1960 C.3   207  PRO207      0.0268
     73  CG       -12.8320   48.3850    2.2890 C.3   207  PRO207      0.0207
     74  CD       -12.0760   49.3780    3.1380 C.3   207  PRO207      0.0892
     75  N        -12.7310   43.5810    7.7730 N.3   211  ILE211     -0.1245
     76  CA       -12.9570   42.1780    7.5570 C.3   211  ILE211      0.1561
     77  C        -12.0040   41.3080    8.3840 C.2   211  ILE211      0.2260
     78  O        -12.4590   40.3910    9.0640 O.2   211  ILE211     -0.2867
     79  CB       -12.8760   41.8050    6.0720 C.3   211  ILE211      0.0252
     80  CG1      -14.1080   42.3640    5.3350 C.3   211  ILE211      0.0019
     81  CG2      -12.8060   40.2790    5.9760 C.3   211  ILE211      0.0019
     82  CD1      -13.9600   42.5690    3.8530 C.3   211  ILE211      0.0001
     83  N        -17.7990   43.9260    6.9660 N.3   217  THR217     -0.1218
     84  CA       -18.2700   45.2840    7.1690 C.3   217  THR217      0.1862
     85  C        -19.8010   45.2940    7.3790 C.2   217  THR217      0.2287
     86  O        -20.5390   44.5210    6.7450 O.2   217  THR217     -0.2866
     87  CB       -17.8960   46.1470    5.9860 C.3   217  THR217      0.1770
     88  OG1      -18.3650   45.5280    4.7960 O.3   217  THR217     -0.2211
     89  CG2      -16.3370   46.3190    5.9100 C.3   217  THR217      0.0375
     90  N        -21.3540   50.5010    5.7180 N.3   221  PRO221     -0.2116
     91  CA       -22.0790   50.3360    4.4450 C.3   221  PRO221      0.1372
     92  C        -23.5990   50.1180    4.6300 C.2   221  PRO221      0.2244
     93  O        -24.3970   50.5720    3.8340 O.2   221  PRO221     -0.2868
     94  CB       -21.4020   49.1560    3.7890 C.3   221  PRO221      0.0268
     95  CG       -20.6230   48.4910    4.8590 C.3   221  PRO221      0.0207
     96  CD       -20.3690   49.4460    5.9480 C.3   221  PRO221      0.0892
@<TRIPOS>BOND
     1    58    59    1
     2    59    62    1
     3    59    60    1
     4    62    63    1
     5    61    60    2
     6    63    65   ar
     7    63    64   ar
     8    15    14    2
     9    14    13    1
    10    25    26    2
    11    25    24    1
    12    65    67   ar
    13    64    66   ar
    14    24    23    1
    15    24    27    1
    16    16    13    1
    17    16    17    1
    18    13    12    1
    19    67    66   ar
    20    29    28    2
    21    27    28    1
    22    18    17    1
    23    18    19    1
    24    28    30   am
    25    21    20    1
    26    46    44   ar
    27    43    44    1
    28    43    42    1
    29    44    45   ar
    30    19    20    2
    31    42    39    1
    32    20    22    1
    33    31    32    1
    34    39    38    1
    35    39    40    1
    36     7     6    1
    37     7     8    1
    38    38    33   am
    39    40    41    2
    40    10     9    1
    41     6     5    1
    42     8     9    2
    43     9    11    1
    44    32    33    1
    45    32    35    1
    46    33    34    2
    47    37    35    1
    48    35    36    1
    49     5     2    1
    50     2     1    1
    51     2     3    1
    52    56    55    1
    53    73    74    1
    54    73    72    1
    55     3     4    2
    56    74    68    1
    57    72    69    1
    58    47    48    1
    59    53    52    1
    60    53    54    1
    61    51    48    1
    62    51    52    1
    63    55    54    2
    64    55    57    1
    65    49    48    1
    66    49    50    2
    67    94    91    1
    68    94    95    1
    69    93    92    2
    70    82    80    1
    71    68    69    1
    72    91    92    1
    73    91    90    1
    74    69    70    1
    75    70    71    2
    76    88    87    1
    77    95    96    1
    78    80    79    1
    79    90    96    1
    80    89    87    1
    81    81    79    1
    82    87    84    1
    83    79    76    1
    84    86    85    2
    85    83    84    1
    86    84    85    1
    87    76    75    1
    88    76    77    1
    89    77    78    2
