@<TRIPOS>MOLECULE
tmp/6iheA04.pdb
 89 84 0 0 0
SMALL
GASTEIGER

@<TRIPOS>ATOM
      1  N        -41.8260   53.7200    1.1100 N.3     1  ALA1       -0.1231
      2  CA       -41.7210   52.6780    0.0090 C.3     1  ALA1        0.1694
      3  C        -41.8830   51.2410    0.5160 C.2     1  ALA1        0.2591
      4  O        -41.6550   50.9250    1.7280 O.2     1  ALA1       -0.2718
      5  CB       -40.4020   52.8070   -0.7150 C.3     1  ALA1        0.0304
      6  N        -42.2420   50.3660   -0.4020 N.am    2  LYS2       -0.1980
      7  CA       -42.2070   48.9400   -0.1160 C.3     2  LYS2        0.1596
      8  C        -40.9100   48.3650   -0.5990 C.2     2  LYS2        0.2287
      9  O        -40.5390   48.4450   -1.7820 O.2     2  LYS2       -0.2864
     10  CB       -43.3660   48.2380   -0.8230 C.3     2  LYS2        0.0298
     11  CG       -44.6970   48.8170   -0.5230 C.3     2  LYS2        0.0038
     12  CD       -45.7510   48.0810   -1.3300 C.3     2  LYS2        0.0206
     13  CE       -47.1120   48.7050   -1.1720 C.3     2  LYS2        0.1093
     14  NZ       -48.1370   47.6150   -1.2650 N.3     2  LYS2       -0.1314
     15  N        -42.0740   51.6810    4.4740 N.3    26  ASP26      -0.1239
     16  CA       -43.4430   51.4810    4.9840 C.3    26  ASP26       0.1674
     17  C        -43.7880   49.9820    5.1820 C.2    26  ASP26       0.2266
     18  O        -44.5240   49.6090    6.1000 O.2    26  ASP26      -0.2867
     19  CB       -44.4370   52.0660    3.9940 C.3    26  ASP26       0.1410
     20  CG       -44.2570   53.5470    3.7940 C.2    26  ASP26       0.3668
     21  OD1      -44.1090   54.2680    4.7610 O.co2  26  ASP26      -0.2456
     22  OD2      -44.3190   53.9750    2.6500 O.co2  26  ASP26      -0.2456
     23  N        -42.9830   44.9740   -4.7290 N.3    70  MET70      -0.1230
     24  CA       -42.0550   45.8960   -4.0570 C.3    70  MET70       0.1702
     25  C        -41.7230   47.0850   -4.9860 C.2    70  MET70       0.2592
     26  O        -41.6940   46.9770   -6.2010 O.2    70  MET70      -0.2718
     27  CB       -40.7710   45.1810   -3.6560 C.3    70  MET70       0.0401
     28  CG       -40.9580   44.0530   -2.6700 C.3    70  MET70       0.0596
     29  SD       -41.4830   44.6330   -1.0720 S.3    70  MET70      -0.1393
     30  CE       -43.2180   44.1620   -1.1450 C.3    70  MET70       0.0692
     31  N        -41.4400   48.2220   -4.3920 N.am   71  ASP71      -0.1960
     32  CA       -40.8850   49.3950   -5.1330 C.3    71  ASP71       0.1840
     33  C        -39.4030   49.2600   -5.4130 C.2    71  ASP71       0.2621
     34  O        -38.8950   49.5740   -6.4750 O.2    71  ASP71      -0.2715
     35  CB       -41.1290   50.6300   -4.3090 C.3    71  ASP71       0.1450
     36  CG       -42.5810   50.8770   -4.0710 C.2    71  ASP71       0.3671
     37  OD1      -43.3050   50.8980   -5.0920 O.co2  71  ASP71      -0.2456
     38  OD2      -42.9810   51.0700   -2.8960 O.co2  71  ASP71      -0.2456
     39  N        -38.7000   48.7230   -4.4330 N.am   72  ILE72      -0.1977
     40  CA       -37.2730   48.5630   -4.5060 C.3    72  ILE72       0.1596
     41  C        -36.9320   47.1730   -4.0000 C.2    72  ILE72       0.2287
     42  O        -37.4830   46.7280   -2.9700 O.2    72  ILE72      -0.2864
     43  CB       -36.5520   49.6260   -3.5930 C.3    72  ILE72       0.0276
     44  CG1      -36.9790   51.0600   -3.9660 C.3    72  ILE72       0.0022
     45  CG2      -35.0440   49.4020   -3.5750 C.3    72  ILE72       0.0022
     46  CD1      -36.8110   52.0350   -2.8370 C.3    72  ILE72       0.0001
     47  N        -42.8640   43.8120  -10.9160 N.3   110  PRO110     -0.2102
     48  CA       -42.6990   44.4810  -12.2060 C.3   110  PRO110      0.1504
     49  C        -42.4770   46.0130  -12.0410 C.2   110  PRO110      0.2576
     50  O        -43.1300   46.6620  -11.1810 O.2   110  PRO110     -0.2718
     51  CB       -44.0240   44.1970  -12.8900 C.3   110  PRO110      0.0282
     52  CG       -44.9960   44.1630  -11.7630 C.3   110  PRO110      0.0208
     53  CD       -44.2460   43.3710  -10.7210 C.3   110  PRO110      0.0893
     54  N        -41.5280   46.5430  -12.7980 N.am  111  GLY111     -0.1943
     55  CA       -41.1140   47.9370  -12.7030 C.3   111  GLY111      0.2014
     56  C        -40.3350   48.3430  -11.4310 C.2   111  GLY111      0.2639
     57  O        -40.1480   49.5220  -11.2060 O.2   111  GLY111     -0.2714
     58  N        -39.8960   47.3890  -10.6110 N.am  112  ALA112     -0.1963
     59  CA       -39.1130   47.7060   -9.4180 C.3   112  ALA112      0.1728
     60  C        -37.7380   48.2040   -9.7860 C.2   112  ALA112      0.2616
     61  O        -37.2300   47.9440  -10.8760 O.2   112  ALA112     -0.2715
     62  CB       -38.9800   46.5000   -8.5380 C.3   112  ALA112      0.0334
     63  N        -37.1530   48.9580   -8.8620 N.am  113  ILE113     -0.1977
     64  CA       -35.7660   49.3220   -8.8930 C.3   113  ILE113      0.1596
     65  C        -35.0330   48.2700   -8.1200 C.2   113  ILE113      0.2287
     66  O        -35.3320   48.0550   -6.9340 O.2   113  ILE113     -0.2864
     67  CB       -35.4960   50.7100   -8.1830 C.3   113  ILE113      0.0276
     68  CG1      -36.1150   51.8400   -8.9930 C.3   113  ILE113      0.0022
     69  CG2      -33.9730   50.9320   -7.9730 C.3   113  ILE113      0.0022
     70  CD1      -36.1100   53.2000   -8.3040 C.3   113  ILE113      0.0001
     71  N        -34.2680   57.5140   -2.4140 N.3   232  ILE232     -0.1231
     72  CA       -35.3080   57.0580   -3.3380 C.3   232  ILE232      0.1692
     73  C        -36.7050   57.1570   -2.6880 C.2   232  ILE232      0.2591
     74  O        -37.5610   57.7630   -3.2270 O.2   232  ILE232     -0.2718
     75  CB       -35.0860   55.6220   -3.8250 C.3   232  ILE232      0.0266
     76  CG1      -33.7720   55.4790   -4.5660 C.3   232  ILE232      0.0019
     77  CG2      -36.2020   55.2120   -4.7940 C.3   232  ILE232      0.0020
     78  CD1      -33.2070   54.0900   -4.6130 C.3   232  ILE232      0.0001
     79  N        -36.8650   56.6280   -1.4960 N.am  233  ALA233     -0.1980
     80  CA       -38.1680   56.4760   -0.8690 C.3   233  ALA233      0.1597
     81  C        -38.8050   57.8010   -0.5010 C.2   233  ALA233      0.2287
     82  O        -40.0190   57.9030   -0.5610 O.2   233  ALA233     -0.2864
     83  CB       -38.0330   55.6300    0.3920 C.3   233  ALA233      0.0319
     84  N        -37.0290   59.7210   -6.5570 N.3   263  SER263     -0.1217
     85  CA       -38.0170   58.7180   -6.9170 C.3   263  SER263      0.1889
     86  C        -37.6820   58.2840   -8.3490 C.2   263  SER263      0.2288
     87  O        -38.0330   57.2420   -8.7560 O.2   263  SER263     -0.2866
     88  CB       -39.4360   59.1650   -6.7390 C.3   263  SER263      0.2089
     89  OG       -39.7480   60.2320   -7.5280 O.3   263  SER263     -0.2183
@<TRIPOS>BOND
     1    51    48    1
     2    51    52    1
     3    54    55    1
     4    54    49   am
     5    55    56    1
     6    48    49    1
     7    48    47    1
     8    49    50    2
     9    52    53    1
    10    56    57    2
    11    56    58   am
    12    47    53    1
    13    61    60    2
    14    58    59    1
    15    60    59    1
    16    60    63   am
    17    59    62    1
    18    68    70    1
    19    68    67    1
    20    64    63    1
    21    64    67    1
    22    64    65    1
    23    87    86    2
    24    86    85    1
    25    67    69    1
    26    65    66    2
    27    89    88    1
    28    85    88    1
    29    85    84    1
    30    34    33    2
    31    26    25    2
    32    33    32    1
    33    33    39   am
    34    32    31    1
    35    32    35    1
    36    37    36   ar
    37    25    31   am
    38    25    24    1
    39    77    75    1
    40    23    24    1
    41    78    76    1
    42    76    75    1
    43    40    39    1
    44    40    41    1
    45    40    43    1
    46    35    36    1
    47    36    38   ar
    48    24    27    1
    49    41    42    2
    50    44    43    1
    51    44    46    1
    52    75    72    1
    53    27    28    1
    54    43    45    1
    55    72    73    1
    56    72    71    1
    57    74    73    2
    58    73    79   am
    59    28    29    1
    60     9     8    2
    61    79    80    1
    62    12    13    1
    63    12    11    1
    64    14    13    1
    65    30    29    1
    66    80    81    1
    67    80    83    1
    68    10    11    1
    69    10     7    1
    70     5     2    1
    71     8     7    1
    72    82    81    2
    73     6     7    1
    74     6     3   am
    75     2     3    1
    76     2     1    1
    77     3     4    2
    78    22    20   ar
    79    20    19    1
    80    20    21   ar
    81    19    16    1
    82    15    16    1
    83    16    17    1
    84    17    18    2
