@<TRIPOS>MOLECULE
tmp/6iieA00.pdb
 88 84 0 0 0
SMALL
GASTEIGER

@<TRIPOS>ATOM
      1  N        -31.8550   10.1980   -5.3500 N.3    36  ALA36      -0.1245
      2  CA       -31.8030   10.2650   -6.8140 C.3    36  ALA36       0.1562
      3  C        -32.9750    9.5420   -7.4720 C.2    36  ALA36       0.2260
      4  O        -33.5980   10.0510   -8.4390 O.2    36  ALA36      -0.2867
      5  CB       -30.4880    9.6590   -7.2740 C.3    36  ALA36       0.0290
      6  N        -34.2290   10.3130  -11.3910 N.3    41  TRP41      -0.1227
      7  CA       -33.0090   10.2640  -12.1750 C.3    41  TRP41       0.1737
      8  C        -32.8110    8.8450  -12.6620 C.2    41  TRP41       0.2595
      9  O        -33.4330    7.8980  -12.1740 O.2    41  TRP41      -0.2718
     10  CB       -31.7610   10.6470  -11.3690 C.3    41  TRP41       0.0564
     11  CG       -31.5550   12.1080  -11.0430 C.ar   41  TRP41       0.0003
     12  CD1      -31.3590   12.6520   -9.7950 C.ar   41  TRP41       0.0946
     13  CD2      -31.4880   13.2010  -11.9650 C.ar   41  TRP41       0.0152
     14  NE1      -31.1900   14.0150   -9.8870 N.ar   41  TRP41      -0.2442
     15  CE2      -31.2690   14.3770  -11.2050 C.ar   41  TRP41       0.0810
     16  CE3      -31.6070   13.3050  -13.3470 C.ar   41  TRP41       0.0012
     17  CZ2      -31.1720   15.6140  -11.7830 C.ar   41  TRP41       0.0191
     18  CZ3      -31.5250   14.5300  -13.9080 C.ar   41  TRP41       0.0001
     19  CH2      -31.3010   15.6760  -13.1430 C.ar   41  TRP41       0.0015
     20  N        -31.9100    8.7060  -13.6130 N.am   42  ASP42      -0.1974
     21  CA       -31.4240    7.4040  -14.0310 C.3    42  ASP42       0.1709
     22  C        -30.2420    7.0430  -13.1300 C.2    42  ASP42       0.2293
     23  O        -29.1660    7.6420  -13.2370 O.2    42  ASP42      -0.2864
     24  CB       -31.0600    7.4550  -15.5140 C.3    42  ASP42       0.1436
     25  CG       -30.3970    6.2030  -15.9870 C.2    42  ASP42       0.3671
     26  OD1      -29.3760    6.3100  -16.7040 O.co2  42  ASP42      -0.2456
     27  OD2      -30.8710    5.1180  -15.5880 O.co2  42  ASP42      -0.2456
     28  N        -24.9010    5.2950  -11.1620 N.3    46  LEU46      -0.1245
     29  CA       -24.6030    6.3300  -10.1840 C.3    46  LEU46       0.1561
     30  C        -23.8480    5.8100   -8.9640 C.2    46  LEU46       0.2260
     31  O        -23.0370    6.5510   -8.3900 O.2    46  LEU46      -0.2867
     32  CB       -25.8940    6.9720   -9.7060 C.3    46  LEU46       0.0270
     33  CG       -25.7410    8.0060   -8.6070 C.3    46  LEU46       0.0019
     34  CD1      -24.8700    9.1230   -9.1040 C.3    46  LEU46       0.0001
     35  CD2      -27.0780    8.4950   -8.2350 C.3    46  LEU46       0.0001
     36  N        -20.1020    5.8860   -8.7600 N.3    49  ILE49      -0.1231
     37  CA       -19.6850    7.2730   -8.6790 C.3    49  ILE49       0.1692
     38  C        -19.7420    7.7400   -7.2350 C.2    49  ILE49       0.2591
     39  O        -18.8260    8.4080   -6.7400 O.2    49  ILE49      -0.2718
     40  CB       -20.5740    8.1110   -9.6100 C.3    49  ILE49       0.0266
     41  CG1      -20.2980    7.6830  -11.0480 C.3    49  ILE49       0.0019
     42  CG2      -20.3770    9.5710   -9.4190 C.3    49  ILE49       0.0020
     43  CD1      -21.3020    8.1360  -12.0630 C.3    49  ILE49       0.0001
     44  N        -20.7890    7.3550   -6.5210 N.am   50  LEU50      -0.1980
     45  CA       -20.8770    7.7900   -5.1350 C.3    50  LEU50       0.1596
     46  C        -19.8020    7.1240   -4.2900 C.2    50  LEU50       0.2287
     47  O        -19.1940    7.7680   -3.4290 O.2    50  LEU50      -0.2864
     48  CB       -22.2710    7.5100   -4.6000 C.3    50  LEU50       0.0297
     49  CG       -23.3500    8.3820   -5.2590 C.3    50  LEU50       0.0022
     50  CD1      -24.7150    8.0970   -4.6670 C.3    50  LEU50       0.0001
     51  CD2      -23.0240    9.8430   -5.1400 C.3    50  LEU50       0.0001
     52  N        -16.4760    8.9860   -4.8430 N.3    53  MET53      -0.1245
     53  CA       -16.5680   10.2680   -4.1380 C.3    53  MET53       0.1570
     54  C        -16.2490   10.1080   -2.6450 C.2    53  MET53       0.2261
     55  O        -15.4180   10.8340   -2.1060 O.2    53  MET53      -0.2867
     56  CB       -17.9740   10.8290   -4.3050 C.3    53  MET53       0.0387
     57  CG       -18.2480   12.0890   -3.5260 C.3    53  MET53       0.0595
     58  SD       -19.9830   12.5000   -3.5750 S.3    53  MET53      -0.1393
     59  CE       -20.5060   11.3910   -2.2170 C.3    53  MET53       0.0692
     60  N        -15.7680   21.0840   -1.4760 N.3    77  THR77      -0.1203
     61  CA       -15.8500   20.6030   -2.8440 C.3    77  THR77       0.1994
     62  C        -17.1320   19.8170   -3.1680 C.2    77  THR77       0.2618
     63  O        -17.5270   19.7580   -4.3320 O.2    77  THR77      -0.2717
     64  CB       -14.5930   19.7730   -3.1560 C.3    77  THR77       0.1784
     65  OG1      -14.6580   18.5020   -2.5130 O.3    77  THR77      -0.2211
     66  CG2      -13.3300   20.4820   -2.6650 C.3    77  THR77       0.0376
     67  N        -17.8170   19.2270   -2.2000 N.am   78  VAL78      -0.1966
     68  CA       -18.9020   18.2930   -2.5140 C.3    78  VAL78       0.1712
     69  C        -20.1920   18.6590   -1.7910 C.2    78  VAL78       0.2458
     70  O        -20.2150   18.8190   -0.5520 O.2    78  VAL78      -0.2730
     71  CB       -18.4770   16.8520   -2.1870 C.3    78  VAL78       0.0289
     72  CG1      -17.9070   16.7910   -0.8240 C.3    78  VAL78       0.0023
     73  CG2      -19.6150   15.8960   -2.3060 C.3    78  VAL78       0.0023
     74  N        -21.2800   18.7780   -2.5140 N.am   79  PRO79      -0.2727
     75  CA       -22.5760   19.1760   -1.9160 C.3    79  PRO79       0.1402
     76  C        -23.2760   17.9960   -1.2650 C.2    79  PRO79       0.2269
     77  O        -24.3390   17.4890   -1.7070 O.2    79  PRO79      -0.2865
     78  CB       -23.3260   19.7400   -3.1220 C.3    79  PRO79       0.0296
     79  CG       -22.7890   18.9080   -4.2860 C.3    79  PRO79       0.0237
     80  CD       -21.3610   18.5740   -3.9640 C.3    79  PRO79       0.0939
     81  N        -27.0920   16.1280   -2.0460 N.3    83  LEU83      -0.1245
     82  CA       -27.1570   14.7420   -2.4920 C.3    83  LEU83       0.1561
     83  C        -28.0100   13.8940   -1.5690 C.2    83  LEU83       0.2260
     84  O        -28.7060   12.9930   -2.0310 O.2    83  LEU83      -0.2867
     85  CB       -25.7310   14.1610   -2.5630 C.3    83  LEU83       0.0270
     86  CG       -24.7720   14.8060   -3.5910 C.3    83  LEU83       0.0019
     87  CD1      -23.4300   14.0710   -3.5920 C.3    83  LEU83       0.0001
     88  CD2      -25.3490   14.9110   -5.0650 C.3    83  LEU83       0.0001
@<TRIPOS>BOND
     1    26    25   ar
     2    25    27   ar
     3    25    24    1
     4    24    21    1
     5    21    20    1
     6    21    22    1
     7    18    16   ar
     8    18    19   ar
     9    20     8   am
    10    16    13   ar
    11    23    22    2
    12    19    17   ar
    13     8     7    1
    14     8     9    2
    15     7     6    1
    16     7    10    1
    17    43    41    1
    18    13    15   ar
    19    13    11   ar
    20    17    15   ar
    21    10    11    1
    22    15    14   ar
    23    28    29    1
    24    41    40    1
    25    11    12   ar
    26    29    32    1
    27    29    30    1
    28    14    12   ar
    29    32    33    1
    30    40    42    1
    31    40    37    1
    32    34    33    1
    33    30    31    2
    34    36    37    1
    35    37    38    1
    36    33    35    1
    37     4     3    2
    38     3     2    1
    39     5     2    1
    40    38    39    2
    41    38    44   am
    42     2     1    1
    43    44    45    1
    44    49    51    1
    45    49    50    1
    46    49    48    1
    47    45    48    1
    48    45    46    1
    49    88    86    1
    50    52    53    1
    51    63    62    2
    52    56    53    1
    53    56    57    1
    54    46    47    2
    55    79    80    1
    56    79    78    1
    57    53    54    1
    58    80    74    1
    59    87    86    1
    60    86    85    1
    61    58    57    1
    62    58    59    1
    63    62    61    1
    64    62    67   am
    65    64    61    1
    66    64    66    1
    67    64    65    1
    68    78    75    1
    69    61    60    1
    70    54    55    2
    71    85    82    1
    72    68    67    1
    73    68    71    1
    74    68    69    1
    75    74    75    1
    76    74    69   am
    77    82    81    1
    78    82    83    1
    79    73    71    1
    80    71    72    1
    81    84    83    2
    82    75    76    1
    83    69    70    2
    84    77    76    2
