@<TRIPOS>MOLECULE
tmp/6iiuA00.pdb
 215 208 0 0 0
SMALL
GASTEIGER

@<TRIPOS>ATOM
      1  N         36.6500  167.1050  154.9440 N.3   127  PHE127     -0.1227
      2  CA        35.6010  166.3280  155.6050 C.3   127  PHE127      0.1736
      3  C         34.7970  165.5800  154.5410 C.2   127  PHE127      0.2595
      4  O         34.5600  164.3720  154.6750 O.2   127  PHE127     -0.2718
      5  CB        34.6780  167.2480  156.4400 C.3   127  PHE127      0.0547
      6  CG        33.4960  166.5510  157.0810 C.ar  127  PHE127     -0.0202
      7  CD1       33.6090  165.9690  158.3420 C.ar  127  PHE127     -0.0042
      8  CD2       32.2740  166.4560  156.4140 C.ar  127  PHE127     -0.0042
      9  CE1       32.5250  165.3000  158.9230 C.ar  127  PHE127     -0.0003
     10  CE2       31.1930  165.7740  156.9880 C.ar  127  PHE127     -0.0003
     11  CZ        31.3250  165.2050  158.2400 C.ar  127  PHE127     -0.0000
     12  N         34.3920  166.3100  153.4880 N.am  128  ALA128     -0.1980
     13  CA        33.6100  165.8120  152.3620 C.3   128  ALA128      0.1597
     14  C         34.3520  164.7200  151.5920 C.2   128  ALA128      0.2287
     15  O         33.7760  163.6470  151.3810 O.2   128  ALA128     -0.2864
     16  CB        33.2200  166.9620  151.4400 C.3   128  ALA128      0.0319
     17  N         34.7440  161.4770  153.5980 N.3   131  PHE131     -0.1227
     18  CA        33.4220  160.8960  153.6240 C.3   131  PHE131      0.1736
     19  C         33.0340  160.1780  152.2920 C.2   131  PHE131      0.2595
     20  O         32.3230  159.1750  152.3470 O.2   131  PHE131     -0.2718
     21  CB        32.4090  161.9670  154.0360 C.3   131  PHE131      0.0547
     22  CG        31.1030  161.3540  154.4300 C.ar  131  PHE131     -0.0202
     23  CD1       30.9670  160.6930  155.6420 C.ar  131  PHE131     -0.0042
     24  CD2       30.0270  161.3620  153.5540 C.ar  131  PHE131     -0.0042
     25  CE1       29.7720  160.0600  155.9740 C.ar  131  PHE131     -0.0003
     26  CE2       28.8270  160.7360  153.8910 C.ar  131  PHE131     -0.0003
     27  CZ        28.7090  160.0870  155.0950 C.ar  131  PHE131     -0.0000
     28  N         33.5300  160.6650  151.1240 N.am  132  CYS132     -0.1970
     29  CA        33.3170  160.0580  149.8070 C.3   132  CYS132      0.1712
     30  C         34.1710  158.8300  149.6920 C.2   132  CYS132      0.2296
     31  O         33.7070  157.7990  149.1960 O.2   132  CYS132     -0.2864
     32  CB        33.6410  161.0390  148.6890 C.3   132  CYS132      0.0983
     33  SG        32.5470  162.4710  148.6310 S.3   132  CYS132     -0.0798
     34  N         27.7040  157.1230  141.7450 N.3   168  GLY168     -0.1210
     35  CA        26.9880  158.2800  142.2620 C.3   168  GLY168      0.1956
     36  C         27.8900  159.1090  143.1380 C.2   168  GLY168      0.2611
     37  O         28.1300  160.2840  142.8470 O.2   168  GLY168     -0.2717
     38  N         28.4690  158.4540  144.1650 N.am  169  LEU169     -0.1979
     39  CA        29.3990  159.0830  145.1070 C.3   169  LEU169      0.1596
     40  C         30.6100  159.7080  144.4140 C.2   169  LEU169      0.2287
     41  O         30.9950  160.8060  144.7690 O.2   169  LEU169     -0.2864
     42  CB        29.8390  158.0980  146.2230 C.3   169  LEU169      0.0297
     43  CG        28.7880  157.7710  147.2750 C.3   169  LEU169      0.0022
     44  CD1       29.0390  156.4280  147.8870 C.3   169  LEU169      0.0001
     45  CD2       28.6710  158.8800  148.3120 C.3   169  LEU169      0.0001
     46  N         29.0560  162.9780  141.7530 N.3   172  THR172     -0.1203
     47  CA        28.5010  164.0320  142.6020 C.3   172  THR172      0.1994
     48  C         29.4520  164.4260  143.7480 C.2   172  THR172      0.2618
     49  O         29.5010  165.5920  144.1170 O.2   172  THR172     -0.2717
     50  CB        27.1200  163.6390  143.1570 C.3   172  THR172      0.1784
     51  OG1       27.2380  162.4710  143.9610 O.3   172  THR172     -0.2211
     52  CG2       26.0900  163.3940  142.0830 C.3   172  THR172      0.0376
     53  N         30.1740  163.4590  144.3100 N.am  173  GLY173     -0.1956
     54  CA        31.1160  163.6910  145.3990 C.3   173  GLY173      0.1869
     55  C         32.2510  164.6060  144.9970 C.2   173  GLY173      0.2309
     56  O         32.6040  165.5090  145.7600 O.2   173  GLY173     -0.2863
     57  N         30.9070  168.1960  144.7230 N.3   176  VAL176     -0.1245
     58  CA        30.7080  168.6730  146.0830 C.3   176  VAL176      0.1561
     59  C         32.0600  169.1010  146.7100 C.2   176  VAL176      0.2260
     60  O         32.1820  170.2300  147.1730 O.2   176  VAL176     -0.2867
     61  CB        29.9470  167.6070  146.9100 C.3   176  VAL176      0.0252
     62  CG1       30.1160  167.8280  148.4050 C.3   176  VAL176      0.0019
     63  CG2       28.4690  167.5940  146.5320 C.3   176  VAL176      0.0019
     64  N         33.4910  172.9340  147.7890 N.3   180  HIS180     -0.1241
     65  CA        33.9010  173.2520  149.1630 C.3   180  HIS180      0.1621
     66  C         35.3100  173.8400  149.1140 C.2   180  HIS180      0.2264
     67  O         35.5500  174.8880  149.7150 O.2   180  HIS180     -0.2867
     68  CB        33.8560  172.0130  150.0650 C.3   180  HIS180      0.0745
     69  CG        32.4890  171.6800  150.5760 C.ar  180  HIS180      0.0817
     70  ND1       32.0840  172.0540  151.8430 N.ar  180  HIS180     -0.2268
     71  CD2       31.4910  170.9780  149.9920 C.ar  180  HIS180      0.1154
     72  CE1       30.8560  171.5750  151.9820 C.ar  180  HIS180      0.1986
     73  NE2       30.4520  170.9380  150.8880 N.ar  180  HIS180     -0.2212
     74  N         22.2920  164.1420  139.7660 N.3   203  MET203     -0.1245
     75  CA        21.7200  164.0580  141.1110 C.3   203  MET203      0.1570
     76  C         20.4000  163.2590  141.0680 C.2   203  MET203      0.2261
     77  O         20.1330  162.4520  141.9710 O.2   203  MET203     -0.2867
     78  CB        21.4390  165.4680  141.6750 C.3   203  MET203      0.0387
     79  CG        22.6590  166.1620  142.2230 C.3   203  MET203      0.0595
     80  SD        23.4320  165.2730  143.5840 S.3   203  MET203     -0.1393
     81  CE        22.4600  165.8540  144.9330 C.3   203  MET203      0.0692
     82  N         21.2370  159.4160  139.9900 N.3   206  PHE206     -0.1227
     83  CA        21.7750  158.6730  141.1430 C.3   206  PHE206      0.1736
     84  C         20.8900  158.7610  142.4130 C.2   206  PHE206      0.2596
     85  O         21.2300  158.2050  143.4590 O.2   206  PHE206     -0.2718
     86  CB        23.2230  159.1040  141.4280 C.3   206  PHE206      0.0547
     87  CG        24.2160  158.7870  140.3250 C.ar  206  PHE206     -0.0202
     88  CD1       24.5110  157.4670  139.9860 C.ar  206  PHE206     -0.0042
     89  CD2       24.8910  159.8090  139.6560 C.ar  206  PHE206     -0.0042
     90  CE1       25.4450  157.1740  138.9870 C.ar  206  PHE206     -0.0003
     91  CE2       25.8370  159.5160  138.6630 C.ar  206  PHE206     -0.0003
     92  CZ        26.0970  158.1980  138.3260 C.ar  206  PHE206     -0.0000
     93  N         19.7660  159.4440  142.3030 N.am  207  GLY207     -0.1957
     94  CA        18.8060  159.5670  143.3860 C.3   207  GLY207      0.1869
     95  C         17.6790  158.5820  143.1590 C.2   207  GLY207      0.2309
     96  O         17.2990  157.8150  144.0500 O.2   207  GLY207     -0.2863
     97  N         24.6080  174.7920  150.6010 N.3   270  PRO270     -0.2116
     98  CA        25.5260  175.9530  150.7510 C.3   270  PRO270      0.1372
     99  C         26.1380  176.5170  149.4560 C.2   270  PRO270      0.2244
    100  O         26.7990  177.5560  149.4910 O.2   270  PRO270     -0.2868
    101  CB        26.5970  175.4140  151.7030 C.3   270  PRO270      0.0268
    102  CG        26.6760  173.9330  151.3320 C.3   270  PRO270      0.0207
    103  CD        25.2560  173.5320  151.0280 C.3   270  PRO270      0.0892
    104  N         27.2340  173.9810  147.0310 N.3   272  SER272     -0.1202
    105  CA        28.0310  172.8150  146.6780 C.3   272  SER272      0.2020
    106  C         27.2910  171.8580  145.7510 C.2   272  SER272      0.2618
    107  O         27.8860  170.8780  145.2990 O.2   272  SER272     -0.2717
    108  CB        28.4140  172.0550  147.9430 C.3   272  SER272      0.2103
    109  OG        27.2320  171.7460  148.6650 O.3   272  SER272     -0.2182
    110  N         25.9930  172.0960  145.5080 N.am  273  TRP273     -0.1975
    111  CA        25.1880  171.1820  144.7120 C.3   273  TRP273      0.1640
    112  C         24.0410  171.8370  144.0000 C.2   273  TRP273      0.2290
    113  O         23.5010  172.8490  144.4590 O.2   273  TRP273     -0.2864
    114  CB        24.6680  170.0140  145.6000 C.3   273  TRP273      0.0576
    115  CG        23.7460  170.4350  146.7080 C.ar  273  TRP273      0.0006
    116  CD1       24.0380  171.2650  147.7530 C.ar  273  TRP273      0.0946
    117  CD2       22.3700  170.0830  146.8460 C.ar  273  TRP273      0.0152
    118  NE1       22.9260  171.4540  148.5310 N.ar  273  TRP273     -0.2442
    119  CE2       21.8840  170.7390  148.0020 C.ar  273  TRP273      0.0810
    120  CE3       21.5000  169.2480  146.1240 C.ar  273  TRP273      0.0012
    121  CZ2       20.5650  170.5800  148.4590 C.ar  273  TRP273      0.0191
    122  CZ3       20.2040  169.0800  146.5860 C.ar  273  TRP273      0.0001
    123  CH2       19.7440  169.7500  147.7370 C.ar  273  TRP273      0.0015
    124  N         20.1880  170.9450  142.0150 N.3   275  PHE275     -0.1241
    125  CA        19.0530  170.0400  142.1140 C.3   275  PHE275      0.1605
    126  C         17.8210  170.7190  141.5160 C.2   275  PHE275      0.2264
    127  O         17.9050  171.8890  141.1160 O.2   275  PHE275     -0.2867
    128  CB        18.8070  169.7100  143.6030 C.3   275  PHE275      0.0534
    129  CG        18.0260  168.4610  143.9260 C.ar  275  PHE275     -0.0203
    130  CD1       18.3860  167.2280  143.3730 C.ar  275  PHE275     -0.0042
    131  CD2       16.9790  168.4960  144.8490 C.ar  275  PHE275     -0.0042
    132  CE1       17.6750  166.0630  143.6950 C.ar  275  PHE275     -0.0003
    133  CE2       16.2740  167.3290  145.1750 C.ar  275  PHE275     -0.0003
    134  CZ        16.6290  166.1240  144.5970 C.ar  275  PHE275     -0.0000
    135  N          9.5330  163.3460  140.9070 N.3   291  PHE291     -0.1241
    136  CA        10.6740  162.7790  141.6030 C.3   291  PHE291      0.1605
    137  C         10.2880  162.1110  142.9400 C.2   291  PHE291      0.2264
    138  O         10.6880  160.9700  143.1840 O.2   291  PHE291     -0.2867
    139  CB        11.7580  163.8460  141.7920 C.3   291  PHE291      0.0534
    140  CG        13.0080  163.3530  142.4820 C.ar  291  PHE291     -0.0203
    141  CD1       13.9640  162.6220  141.7860 C.ar  291  PHE291     -0.0042
    142  CD2       13.2410  163.6430  143.8260 C.ar  291  PHE291     -0.0042
    143  CE1       15.1260  162.1880  142.4210 C.ar  291  PHE291     -0.0003
    144  CE2       14.4140  163.2170  144.4570 C.ar  291  PHE291     -0.0003
    145  CZ        15.3480  162.4970  143.7480 C.ar  291  PHE291     -0.0000
    146  N         15.9430  157.8650  152.4200 N.3   395  TRP395     -0.1241
    147  CA        15.3350  158.5990  151.3080 C.3   395  TRP395      0.1605
    148  C         13.9600  159.2380  151.6060 C.2   395  TRP395      0.2264
    149  O         13.6810  160.3100  151.0650 O.2   395  TRP395     -0.2867
    150  CB        15.2700  157.7290  150.0390 C.3   395  TRP395      0.0550
    151  CG        16.5490  157.7790  149.2490 C.ar  395  TRP395      0.0003
    152  CD1       17.5490  156.8490  149.2420 C.ar  395  TRP395      0.0946
    153  CD2       16.9990  158.8610  148.4110 C.ar  395  TRP395      0.0152
    154  NE1       18.5990  157.2870  148.4620 N.ar  395  TRP395     -0.2442
    155  CE2       18.2790  158.5110  147.9250 C.ar  395  TRP395      0.0810
    156  CE3       16.4430  160.0980  148.0290 C.ar  395  TRP395      0.0012
    157  CZ2       19.0160  159.3510  147.0880 C.ar  395  TRP395      0.0191
    158  CZ3       17.1660  160.9240  147.1760 C.ar  395  TRP395      0.0001
    159  CH2       18.4460  160.5590  146.7360 C.ar  395  TRP395      0.0015
    160  N         13.5780  163.0980  152.8530 N.3   398  LEU398     -0.1245
    161  CA        13.8720  163.9950  151.7200 C.3   398  LEU398      0.1561
    162  C         12.7340  164.0470  150.6930 C.2   398  LEU398      0.2260
    163  O         12.3560  165.1310  150.2430 O.2   398  LEU398     -0.2867
    164  CB        15.1880  163.5960  151.0140 C.3   398  LEU398      0.0270
    165  CG        15.5730  164.3940  149.7330 C.3   398  LEU398      0.0019
    166  CD1       15.7740  165.8870  150.0360 C.3   398  LEU398      0.0001
    167  CD2       16.8180  163.8440  149.1020 C.3   398  LEU398      0.0001
    168  N         19.3620  170.7160  153.1910 N.3   428  LEU428     -0.1245
    169  CA        20.7250  170.2430  153.3200 C.3   428  LEU428      0.1561
    170  C         20.7740  169.0250  154.2530 C.2   428  LEU428      0.2260
    171  O         21.5110  168.0840  153.9750 O.2   428  LEU428     -0.2867
    172  CB        21.6440  171.3650  153.8570 C.3   428  LEU428      0.0270
    173  CG        23.1470  171.0120  153.9280 C.3   428  LEU428      0.0019
    174  CD1       23.6760  170.4780  152.5580 C.3   428  LEU428      0.0001
    175  CD2       23.9680  172.1660  154.4040 C.3   428  LEU428      0.0001
    176  N         19.2260  166.0210  152.5060 N.3   431  LEU431     -0.1231
    177  CA        20.1120  165.5860  151.4290 C.3   431  LEU431      0.1693
    178  C         21.3180  164.7920  151.9980 C.2   431  LEU431      0.2591
    179  O         21.6880  163.7400  151.4590 O.2   431  LEU431     -0.2718
    180  CB        20.5450  166.7580  150.5600 C.3   431  LEU431      0.0284
    181  CG        21.6180  166.4220  149.5540 C.3   431  LEU431      0.0019
    182  CD1       21.0550  165.6870  148.3350 C.3   431  LEU431      0.0001
    183  CD2       22.4390  167.6240  149.2470 C.3   431  LEU431      0.0001
    184  N         21.8540  165.2610  153.1350 N.am  432  ARG432     -0.1980
    185  CA        22.9300  164.5900  153.8550 C.3   432  ARG432      0.1597
    186  C         22.4790  163.2070  154.3900 C.2   432  ARG432      0.2287
    187  O         23.2650  162.2610  154.3340 O.2   432  ARG432     -0.2864
    188  CB        23.4920  165.4850  154.9660 C.3   432  ARG432      0.0334
    189  CG        24.4460  166.5310  154.3990 C.3   432  ARG432      0.0492
    190  CD        25.0280  167.3940  155.4740 C.3   432  ARG432      0.2205
    191  NE        26.0510  168.2930  154.9660 N.pl3 432  ARG432     -0.0865
    192  CZ        26.3090  169.4900  155.4820 C.cat 432  ARG432      0.5346
    193  NH1       25.6100  169.9380  156.5200 N.pl3 432  ARG432      0.1354
    194  NH2       27.2510  170.2590  154.9520 N.pl3 432  ARG432      0.1354
    195  N         20.0540  161.3090  153.0150 N.3   434  ALA434     -0.1231
    196  CA        19.9000  160.5250  151.7830 C.3   434  ALA434      0.1694
    197  C         21.2210  160.0040  151.2400 C.2   434  ALA434      0.2592
    198  O         21.2370  158.9220  150.6670 O.2   434  ALA434     -0.2718
    199  CB        19.1770  161.3350  150.7150 C.3   434  ALA434      0.0304
    200  N         22.3260  160.7440  151.4340 N.am  435  THR435     -0.1953
    201  CA        23.6710  160.3400  151.0030 C.3   435  THR435      0.1897
    202  C         24.0440  159.0030  151.6320 C.2   435  THR435      0.2313
    203  O         24.5910  158.1510  150.9420 O.2   435  THR435     -0.2863
    204  CB        24.6900  161.4480  151.3040 C.3   435  THR435      0.1794
    205  OG1       24.2840  162.6280  150.6230 O.3   435  THR435     -0.2208
    206  CG2       26.0940  161.1000  150.8600 C.3   435  THR435      0.0378
    207  N         23.6500  155.5210  149.9400 N.3   438  GLN438     -0.1245
    208  CA        24.7260  155.1520  149.0100 C.3   438  GLN438      0.1566
    209  C         25.9300  154.5630  149.7450 C.2   438  GLN438      0.2260
    210  O         26.7100  153.8130  149.1470 O.2   438  GLN438     -0.2867
    211  CB        25.1420  156.3580  148.1210 C.3   438  GLN438      0.0367
    212  CG        24.1250  156.7170  147.0270 C.3   438  GLN438      0.0905
    213  CD        22.7900  157.1610  147.6000 C.2   438  GLN438      0.2608
    214  OE1       21.8170  156.3990  147.6490 O.2   438  GLN438     -0.2717
    215  NE2       22.7480  158.3630  148.1590 N.am  438  GLN438     -0.0878
@<TRIPOS>BOND
     1    92    91   ar
     2    92    90   ar
     3    91    89   ar
     4    90    88   ar
     5    89    87   ar
     6    74    75    1
     7    88    87   ar
     8    82    83    1
     9    87    86    1
    10   135   136    1
    11    76    75    1
    12    76    77    2
    13    75    78    1
    14   127   126    2
    15    83    86    1
    16    83    84    1
    17   126   125    1
    18   136   139    1
    19   136   137    1
    20    78    79    1
    21    34    35    1
    22    46    47    1
    23   141   143   ar
    24   141   140   ar
    25   139   140    1
    26   124   125    1
    27    52    50    1
    28   125   128    1
    29    79    80    1
    30    35    36    1
    31    93    84   am
    32    93    94    1
    33    84    85    2
    34   143   145   ar
    35   140   142   ar
    36    47    50    1
    37    47    48    1
    38    37    36    2
    39   137   138    2
    40    36    38   am
    41    50    51    1
    42    95    94    1
    43    95    96    2
    44   130   132   ar
    45   130   129   ar
    46    80    81    1
    47   128   129    1
    48   132   134   ar
    49   145   144   ar
    50    48    49    2
    51    48    53   am
    52   142   144   ar
    53   129   131   ar
    54   112   113    2
    55   112   111    1
    56    38    39    1
    57    53    54    1
    58    40    41    2
    59    40    39    1
    60   134   133   ar
    61   111   110    1
    62   111   114    1
    63    57    58    1
    64   131   133   ar
    65    55    54    1
    66    55    56    2
    67    39    42    1
    68   107   106    2
    69   110   106   am
    70   114   115    1
    71   106   105    1
    72    58    59    1
    73    58    61    1
    74   120   122   ar
    75   120   117   ar
    76    42    43    1
    77    63    61    1
    78   122   123   ar
    79   105   104    1
    80   105   108    1
    81   115   117   ar
    82   115   116   ar
    83    59    60    2
    84   159   157   ar
    85   159   158   ar
    86   117   119   ar
    87    61    62    1
    88   212   213    1
    89   212   211    1
    90   157   155   ar
    91   158   156   ar
    92    43    44    1
    93    43    45    1
    94   213   214    2
    95   213   215   am
    96   123   121   ar
    97   116   118   ar
    98    64    65    1
    99   155   153   ar
   100   155   154   ar
   101   108   109    1
   102   119   121   ar
   103   119   118   ar
   104   156   153   ar
   105   211   208    1
   106   182   181    1
   107   153   151   ar
   108   154   152   ar
   109    33    32    1
   110    32    29    1
   111   208   209    1
   112   208   207    1
   113   167   165    1
   114    66    65    1
   115    66    67    2
   116   210   209    2
   117    65    68    1
   118    31    30    2
   119   152   151   ar
   120   183   181    1
   121   151   150    1
   122    99   100    2
   123    99    98    1
   124   181   180    1
   125    30    29    1
   126   165   166    1
   127   165   164    1
   128    29    28    1
   129    71    69   ar
   130    71    73   ar
   131   150   147    1
   132    68    69    1
   133   163   162    2
   134   180   177    1
   135    69    70   ar
   136    97    98    1
   137    97   103    1
   138   205   204    1
   139   198   197    2
   140   162   161    1
   141   199   196    1
   142    98   101    1
   143   206   204    1
   144    73    72   ar
   145   203   202    2
   146   201   204    1
   147   201   200    1
   148   201   202    1
   149   164   161    1
   150   103   102    1
   151   149   148    2
   152    28    19   am
   153   197   200   am
   154   197   196    1
   155   147   148    1
   156   147   146    1
   157   102   101    1
   158    15    14    2
   159   177   178    1
   160   177   176    1
   161    16    13    1
   162   179   178    2
   163    14    13    1
   164   161   160    1
   165   196   195    1
   166    70    72   ar
   167   178   184   am
   168    19    20    2
   169    19    18    1
   170    13    12    1
   171   174   173    1
   172   184   185    1
   173   168   169    1
   174   169   172    1
   175   169   170    1
   176    12     3   am
   177    24    26   ar
   178    24    22   ar
   179    17    18    1
   180    18    21    1
   181   185   186    1
   182   185   188    1
   183   172   173    1
   184    26    27   ar
   185   173   175    1
   186   171   170    2
   187    21    22    1
   188   187   186    2
   189   189   188    1
   190   189   190    1
   191    22    23   ar
   192     3     4    2
   193     3     2    1
   194     1     2    1
   195   194   192    1
   196   191   190    1
   197   191   192    2
   198    27    25   ar
   199   192   193    1
   200     2     5    1
   201    23    25   ar
   202     8    10   ar
   203     8     6   ar
   204     5     6    1
   205    10    11   ar
   206     6     7   ar
   207    11     9   ar
   208     7     9   ar
