@<TRIPOS>MOLECULE
tmp/6iiuA02.pdb
 93 89 0 0 0
SMALL
GASTEIGER

@<TRIPOS>ATOM
      1  N         26.7560  175.1810  132.7560 N.3   194  ARG194     -0.1245
      2  CA        26.8970  173.8040  132.2820 C.3   194  ARG194      0.1563
      3  C         27.1110  172.7830  133.3980 C.2   194  ARG194      0.2260
      4  O         26.3960  171.7800  133.4300 O.2   194  ARG194     -0.2867
      5  CB        27.9950  173.6830  131.2060 C.3   194  ARG194      0.0307
      6  CG        27.6700  174.4090  129.8890 C.3   194  ARG194      0.0489
      7  CD        28.7250  174.2160  128.7990 C.3   194  ARG194      0.2205
      8  NE        28.9030  172.8050  128.4300 N.pl3 194  ARG194     -0.0865
      9  CZ        29.3970  172.3790  127.2690 C.cat 194  ARG194      0.5346
     10  NH1       29.7560  173.2490  126.3320 N.pl3 194  ARG194      0.1354
     11  NH2       29.5230  171.0780  127.0320 N.pl3 194  ARG194      0.1354
     12  N         23.9640  172.2120  135.5900 N.3   197  ARG197     -0.1231
     13  CA        22.9510  171.3880  134.9220 C.3   197  ARG197      0.1694
     14  C         23.3690  169.9610  134.8290 C.2   197  ARG197      0.2592
     15  O         22.5260  169.0860  135.0020 O.2   197  ARG197     -0.2718
     16  CB        22.5430  171.9480  133.5660 C.3   197  ARG197      0.0321
     17  CG        21.5360  173.0710  133.6930 C.3   197  ARG197      0.0489
     18  CD        21.0460  173.5570  132.3520 C.3   197  ARG197      0.2205
     19  NE        22.1560  174.1450  131.6160 N.pl3 197  ARG197     -0.0865
     20  CZ        22.3800  175.4480  131.5080 C.cat 197  ARG197      0.5346
     21  NH1       21.5110  176.3240  132.0070 N.pl3 197  ARG197      0.1354
     22  NH2       23.4540  175.8880  130.8670 N.pl3 197  ARG197      0.1354
     23  N         24.6750  169.7040  134.6300 N.am  198  PHE198     -0.1976
     24  CA        25.1970  168.3370  134.5950 C.3   198  PHE198      0.1639
     25  C         24.9650  167.7160  136.0040 C.2   198  PHE198      0.2290
     26  O         24.4010  166.6290  136.1060 O.2   198  PHE198     -0.2864
     27  CB        26.6860  168.3200  134.1690 C.3   198  PHE198      0.0560
     28  CG        27.4050  167.0200  134.4680 C.ar  198  PHE198     -0.0200
     29  CD1       27.2540  165.9130  133.6320 C.ar  198  PHE198     -0.0042
     30  CD2       28.1740  166.8820  135.6160 C.ar  198  PHE198     -0.0042
     31  CE1       27.8840  164.7010  133.9270 C.ar  198  PHE198     -0.0003
     32  CE2       28.7890  165.6650  135.9250 C.ar  198  PHE198     -0.0003
     33  CZ        28.6470  164.5810  135.0750 C.ar  198  PHE198     -0.0000
     34  N         21.1450  166.7690  136.6210 N.3   201  VAL201     -0.1231
     35  CA        20.7950  165.5440  135.8660 C.3   201  VAL201      0.1692
     36  C         21.2860  164.2970  136.6140 C.2   201  VAL201      0.2591
     37  O         20.5210  163.3520  136.8920 O.2   201  VAL201     -0.2718
     38  CB        21.3660  165.6110  134.4150 C.3   201  VAL201      0.0266
     39  CG1       21.2130  164.2850  133.6820 C.3   201  VAL201      0.0020
     40  CG2       20.7080  166.7390  133.6210 C.3   201  VAL201      0.0020
     41  N         22.5590  164.3540  136.9970 N.am  202  VAL202     -0.1980
     42  CA        23.3140  163.2920  137.6650 C.3   202  VAL202      0.1595
     43  C         22.8390  163.0990  139.1250 C.2   202  VAL202      0.2287
     44  O         22.8680  161.9750  139.6100 O.2   202  VAL202     -0.2864
     45  CB        24.8180  163.6030  137.4590 C.3   202  VAL202      0.0276
     46  CG1       25.5650  163.9840  138.7150 C.3   202  VAL202      0.0022
     47  CG2       25.5090  162.5250  136.6700 C.3   202  VAL202      0.0022
     48  N         19.4320  161.1890  138.4630 N.3   205  PHE205     -0.1227
     49  CA        19.8320  159.8710  137.9990 C.3   205  PHE205      0.1736
     50  C         20.2540  158.9630  139.1730 C.2   205  PHE205      0.2595
     51  O         19.6670  157.8940  139.3510 O.2   205  PHE205     -0.2718
     52  CB        20.9470  159.9980  136.9600 C.3   205  PHE205      0.0547
     53  CG        21.4600  158.6630  136.5060 C.ar  205  PHE205     -0.0202
     54  CD1       20.7950  157.9430  135.5180 C.ar  205  PHE205     -0.0042
     55  CD2       22.5730  158.0880  137.1060 C.ar  205  PHE205     -0.0042
     56  CE1       21.2380  156.6860  135.1370 C.ar  205  PHE205     -0.0003
     57  CE2       23.0040  156.8140  136.7300 C.ar  205  PHE205     -0.0003
     58  CZ        22.3320  156.1250  135.7510 C.ar  205  PHE205     -0.0000
     59  N         21.2370  159.4160  139.9900 N.am  206  PHE206     -0.1976
     60  CA        21.7750  158.6730  141.1430 C.3   206  PHE206      0.1639
     61  C         20.8900  158.7610  142.4130 C.2   206  PHE206      0.2290
     62  O         21.2300  158.2050  143.4590 O.2   206  PHE206     -0.2864
     63  CB        23.2230  159.1040  141.4280 C.3   206  PHE206      0.0560
     64  CG        24.2160  158.7870  140.3250 C.ar  206  PHE206     -0.0200
     65  CD1       24.5110  157.4670  139.9860 C.ar  206  PHE206     -0.0042
     66  CD2       24.8910  159.8090  139.6560 C.ar  206  PHE206     -0.0042
     67  CE1       25.4450  157.1740  138.9870 C.ar  206  PHE206     -0.0003
     68  CE2       25.8370  159.5160  138.6630 C.ar  206  PHE206     -0.0003
     69  CZ        26.0970  158.1980  138.3260 C.ar  206  PHE206     -0.0000
     70  N         17.7380  158.3210  133.7370 N.3   252  LEU252     -0.1245
     71  CA        18.3870  159.3080  132.8810 C.3   252  LEU252      0.1561
     72  C         17.3220  160.2010  132.1850 C.2   252  LEU252      0.2260
     73  O         17.3980  161.4190  132.3260 O.2   252  LEU252     -0.2867
     74  CB        19.3130  158.6200  131.8550 C.3   252  LEU252      0.0270
     75  CG        20.0200  159.5610  130.8340 C.3   252  LEU252      0.0019
     76  CD1       21.0240  160.5230  131.5190 C.3   252  LEU252      0.0001
     77  CD2       20.7070  158.7610  129.7660 C.3   252  LEU252      0.0001
     78  N         16.6360  164.4670  132.4450 N.3   256  LEU256     -0.1245
     79  CA        16.7080  165.3050  131.2620 C.3   256  LEU256      0.1561
     80  C         15.4670  166.1730  131.1310 C.2   256  LEU256      0.2260
     81  O         15.4870  167.0990  130.3230 O.2   256  LEU256     -0.2867
     82  CB        16.8660  164.4310  129.9950 C.3   256  LEU256      0.0270
     83  CG        18.1760  163.6120  129.8080 C.3   256  LEU256      0.0019
     84  CD1       18.1340  162.8420  128.4900 C.3   256  LEU256      0.0001
     85  CD2       19.4440  164.5130  129.8290 C.3   256  LEU256      0.0001
     86  N         15.8970  169.9790  130.8790 N.3   259  LEU259     -0.1245
     87  CA        16.5410  170.3470  129.6150 C.3   259  LEU259      0.1561
     88  C         15.5100  170.4290  128.5200 C.2   259  LEU259      0.2260
     89  O         15.6990  171.1310  127.5460 O.2   259  LEU259     -0.2867
     90  CB        17.6300  169.3320  129.2640 C.3   259  LEU259      0.0270
     91  CG        18.9830  169.5010  129.9370 C.3   259  LEU259      0.0019
     92  CD1       18.8960  169.2780  131.4390 C.3   259  LEU259      0.0001
     93  CD2       19.9700  168.5190  129.3540 C.3   259  LEU259      0.0001
@<TRIPOS>BOND
     1    10     9    1
     2    11     9    1
     3     9     8    2
     4    89    88    2
     5     8     7    1
     6    84    83    1
     7    88    87    1
     8     7     6    1
     9    90    87    1
    10    90    91    1
    11    93    91    1
    12    87    86    1
    13    77    75    1
    14    83    85    1
    15    83    82    1
    16     6     5    1
    17    91    92    1
    18    82    79    1
    19    81    80    2
    20    75    76    1
    21    75    74    1
    22    22    20    1
    23    80    79    1
    24     5     2    1
    25    79    78    1
    26    20    19    2
    27    20    21    1
    28    19    18    1
    29    74    71    1
    30    72    73    2
    31    72    71    1
    32     2     1    1
    33     2     3    1
    34    18    17    1
    35    71    70    1
    36     3     4    2
    37    16    17    1
    38    16    13    1
    39    40    38    1
    40    29    31   ar
    41    29    28   ar
    42    39    38    1
    43    31    33   ar
    44    27    28    1
    45    27    24    1
    46    38    35    1
    47    28    30   ar
    48    24    23    1
    49    24    25    1
    50    23    14   am
    51    14    13    1
    52    14    15    2
    53    13    12    1
    54    33    32   ar
    55    56    54   ar
    56    56    58   ar
    57    54    53   ar
    58    30    32   ar
    59    58    57   ar
    60    35    36    1
    61    35    34    1
    62    25    26    2
    63    53    52    1
    64    53    55   ar
    65    36    37    2
    66    36    41   am
    67    47    45    1
    68    57    55   ar
    69    52    49    1
    70    41    42    1
    71    45    42    1
    72    45    46    1
    73    42    43    1
    74    49    48    1
    75    49    50    1
    76    69    68   ar
    77    69    67   ar
    78    68    66   ar
    79    67    65   ar
    80    43    44    2
    81    50    51    2
    82    50    59   am
    83    66    64   ar
    84    65    64   ar
    85    59    60    1
    86    64    63    1
    87    60    63    1
    88    60    61    1
    89    61    62    2
