@<TRIPOS>MOLECULE
tmp/6iiuA03.pdb
 128 116 0 0 0
SMALL
GASTEIGER

@<TRIPOS>ATOM
      1  N         19.3760  136.4280  139.7650 N.3   153  SER153     -0.1217
      2  CA        18.7230  137.6740  139.4100 C.3   153  SER153      0.1889
      3  C         18.8760  138.6950  140.5370 C.2   153  SER153      0.2288
      4  O         19.0810  139.8740  140.2660 O.2   153  SER153     -0.2866
      5  CB        17.2440  137.4330  139.1520 C.3   153  SER153      0.2089
      6  OG        17.0680  136.5150  138.0870 O.3   153  SER153     -0.2183
      7  N         20.6790  142.5220  140.3950 N.3   157  PHE157     -0.1241
      8  CA        20.1050  143.7850  140.8640 C.3   157  PHE157      0.1605
      9  C         20.9910  144.4350  141.9310 C.2   157  PHE157      0.2264
     10  O         21.2810  145.6360  141.8450 O.2   157  PHE157     -0.2867
     11  CB        18.6640  143.5900  141.3530 C.3   157  PHE157      0.0534
     12  CG        17.7190  143.2720  140.2230 C.ar  157  PHE157     -0.0203
     13  CD1       17.5520  144.1560  139.1610 C.ar  157  PHE157     -0.0042
     14  CD2       16.9790  142.1010  140.2260 C.ar  157  PHE157     -0.0042
     15  CE1       16.6940  143.8470  138.1100 C.ar  157  PHE157     -0.0003
     16  CE2       16.1220  141.7980  139.1800 C.ar  157  PHE157     -0.0003
     17  CZ        15.9890  142.6640  138.1280 C.ar  157  PHE157     -0.0000
     18  N         14.7480  152.7950  142.5370 N.3   212  LEU212     -0.1245
     19  CA        14.1250  151.9290  141.5480 C.3   212  LEU212      0.1561
     20  C         14.7390  150.5220  141.5810 C.2   212  LEU212      0.2260
     21  O         13.9910  149.5510  141.4730 O.2   212  LEU212     -0.2867
     22  CB        14.2160  152.5580  140.1600 C.3   212  LEU212      0.0270
     23  CG        13.3190  153.7660  139.9600 C.3   212  LEU212      0.0019
     24  CD1       13.7010  154.5290  138.7200 C.3   212  LEU212      0.0001
     25  CD2       11.8570  153.3580  139.9020 C.3   212  LEU212      0.0001
     26  N         13.3420  148.5220  144.5060 N.3   215  ALA215     -0.1231
     27  CA        12.0070  148.0350  144.1590 C.3   215  ALA215      0.1694
     28  C         12.1420  146.8200  143.2300 C.2   215  ALA215      0.2591
     29  O         11.3460  145.8770  143.3390 O.2   215  ALA215     -0.2718
     30  CB        11.2040  149.1340  143.4720 C.3   215  ALA215      0.0304
     31  N         13.1550  146.8350  142.3260 N.am  216  ALA216     -0.1980
     32  CA        13.4080  145.7170  141.4200 C.3   216  ALA216      0.1597
     33  C         13.7710  144.4490  142.2500 C.2   216  ALA216      0.2287
     34  O         13.2710  143.3600  141.9450 O.2   216  ALA216     -0.2864
     35  CB        14.5290  146.0670  140.4490 C.3   216  ALA216      0.0319
     36  N         10.7300  142.9670  144.0010 N.3   219  SER219     -0.1202
     37  CA         9.9600  142.3120  142.9270 C.3   219  SER219      0.2020
     38  C         10.5140  140.9300  142.5970 C.2   219  SER219      0.2618
     39  O          9.7360  139.9850  142.4540 O.2   219  SER219     -0.2717
     40  CB         9.9090  143.1850  141.6730 C.3   219  SER219      0.2103
     41  OG         9.3580  144.4600  141.9680 O.3   219  SER219     -0.2182
     42  N         11.8540  140.8070  142.4960 N.am  220  GLU220     -0.1979
     43  CA        12.5390  139.5360  142.2370 C.3   220  GLU220      0.1602
     44  C         12.2370  138.5570  143.3860 C.2   220  GLU220      0.2287
     45  O         11.8940  137.4120  143.1100 O.2   220  GLU220     -0.2864
     46  CB        14.0520  139.7470  142.0460 C.3   220  GLU220      0.0415
     47  CG        14.8490  138.4750  141.7640 C.3   220  GLU220      0.1163
     48  CD        15.2360  137.6020  142.9500 C.2   220  GLU220      0.3649
     49  OE1       15.2650  138.1320  144.0840 O.co2 220  GLU220     -0.2457
     50  OE2       15.5250  136.3970  142.7490 O.co2 220  GLU220     -0.2457
     51  N          8.3240  137.5060  143.2700 N.3   223  LEU223     -0.1231
     52  CA         8.0780  136.5180  142.2110 C.3   223  LEU223      0.1693
     53  C          8.7950  135.2200  142.4920 C.2   223  LEU223      0.2592
     54  O          8.2000  134.1640  142.3190 O.2   223  LEU223     -0.2718
     55  CB         8.4380  137.0460  140.8120 C.3   223  LEU223      0.0284
     56  CG         7.6940  138.3070  140.3450 C.3   223  LEU223      0.0019
     57  CD1        8.4660  139.0370  139.2600 C.3   223  LEU223      0.0001
     58  CD2        6.2830  138.0050  139.9250 C.3   223  LEU223      0.0001
     59  N         10.0320  135.3090  142.9810 N.am  224  GLY224     -0.1957
     60  CA        10.8720  134.1610  143.3140 C.3   224  GLY224      0.1869
     61  C         10.3540  133.2790  144.4300 C.2   224  GLY224      0.2309
     62  O         10.4640  132.0570  144.3390 O.2   224  GLY224     -0.2863
     63  N         17.6610  134.2750  133.0780 N.3   236  SER236     -0.1217
     64  CA        17.1490  135.0780  134.1780 C.3   236  SER236      0.1889
     65  C         18.1420  136.2080  134.5430 C.2   236  SER236      0.2288
     66  O         17.7030  137.3210  134.8550 O.2   236  SER236     -0.2866
     67  CB        16.7810  134.1930  135.3740 C.3   236  SER236      0.2089
     68  OG        17.9020  133.6920  136.0890 O.3   236  SER236     -0.2183
     69  N         17.8800  138.7030  131.6510 N.3   239  ARG239     -0.1231
     70  CA        16.6470  139.4600  131.9040 C.3   239  ARG239      0.1694
     71  C         16.8280  140.5040  133.0130 C.2   239  ARG239      0.2591
     72  O         16.3630  141.6270  132.8620 O.2   239  ARG239     -0.2718
     73  CB        15.4850  138.4990  132.2240 C.3   239  ARG239      0.0321
     74  CG        14.1110  139.1570  132.3910 C.3   239  ARG239      0.0489
     75  CD        13.0220  138.1040  132.4360 C.3   239  ARG239      0.2205
     76  NE        11.8790  138.5600  133.2270 N.pl3 239  ARG239     -0.0865
     77  CZ        11.2520  137.8220  134.1400 C.cat 239  ARG239      0.5346
     78  NH1       11.6430  136.5740  134.3790 N.pl3 239  ARG239      0.1354
     79  NH2       10.2220  138.3230  134.8140 N.pl3 239  ARG239      0.1354
     80  N         17.5280  140.1490  134.1010 N.am  240  ALA240     -0.1980
     81  CA        17.7950  141.0520  135.2290 C.3   240  ALA240      0.1597
     82  C         18.7260  142.1980  134.8220 C.2   240  ALA240      0.2287
     83  O         18.4540  143.3430  135.1760 O.2   240  ALA240     -0.2864
     84  CB        18.3630  140.2760  136.4060 C.3   240  ALA240      0.0319
     85  N         16.7850  144.6580  132.6360 N.3   243  THR243     -0.1218
     86  CA        15.9460  145.4430  133.5530 C.3   243  THR243      0.1862
     87  C         16.7350  146.5810  134.2300 C.2   243  THR243      0.2287
     88  O         16.1880  147.6650  134.3750 O.2   243  THR243     -0.2866
     89  CB        15.2570  144.5240  134.5960 C.3   243  THR243      0.1770
     90  OG1       14.6290  143.4350  133.9150 O.3   243  THR243     -0.2211
     91  CG2       14.2160  145.2620  135.4470 C.3   243  THR243      0.0375
     92  N         15.9740  150.5190  133.9290 N.3   247  VAL247     -0.1245
     93  CA        15.9170  151.3850  135.1100 C.3   247  VAL247      0.1561
     94  C         16.8580  152.6010  134.9350 C.2   247  VAL247      0.2260
     95  O         16.4110  153.7360  135.1220 O.2   247  VAL247     -0.2867
     96  CB        16.1940  150.6200  136.4000 C.3   247  VAL247      0.0252
     97  CG1       16.6430  151.5590  137.5210 C.3   247  VAL247      0.0019
     98  CG2       14.9800  149.8110  136.8090 C.3   247  VAL247      0.0019
     99  N          7.7760  159.0380  142.4200 N.3   294  LEU294     -0.1245
    100  CA         8.5390  157.8860  141.9210 C.3   294  LEU294      0.1561
    101  C          9.3410  157.1860  143.0120 C.2   294  LEU294      0.2260
    102  O          9.2620  155.9630  143.1090 O.2   294  LEU294     -0.2867
    103  CB         9.4270  158.2210  140.7160 C.3   294  LEU294      0.0270
    104  CG         8.7670  158.0740  139.3520 C.3   294  LEU294      0.0019
    105  CD1        9.5720  158.7950  138.2790 C.3   294  LEU294      0.0001
    106  CD2        8.5590  156.6010  138.9830 C.3   294  LEU294      0.0001
    107  N          6.7290  155.7400  145.8150 N.3   297  LEU297     -0.1231
    108  CA         6.1190  154.5170  145.2800 C.3   297  LEU297      0.1693
    109  C          7.0920  153.3490  145.2450 C.2   297  LEU297      0.2592
    110  O          6.6650  152.2200  145.4670 O.2   297  LEU297     -0.2718
    111  CB         5.5380  154.7530  143.8780 C.3   297  LEU297      0.0284
    112  CG         4.0280  155.0210  143.7410 C.3   297  LEU297      0.0019
    113  CD1        3.5230  156.0880  144.7150 C.3   297  LEU297      0.0001
    114  CD2        3.6960  155.4620  142.3260 C.3   297  LEU297      0.0001
    115  N          8.3950  153.6100  144.9840 N.am  298  SER298     -0.1952
    116  CA         9.4300  152.5690  144.9560 C.3   298  SER298      0.1924
    117  C          9.6000  151.9460  146.3380 C.2   298  SER298      0.2314
    118  O          9.6830  150.7220  146.4490 O.2   298  SER298     -0.2863
    119  CB        10.7590  153.1360  144.4670 C.3   298  SER298      0.2116
    120  OG        10.7420  153.2550  143.0550 O.3   298  SER298     -0.2180
    121  N          6.1200  150.1600  147.3100 N.3   301  LEU301     -0.1245
    122  CA         6.0410  148.8920  146.5990 C.3   301  LEU301      0.1561
    123  C          6.9620  147.8870  147.2770 C.2   301  LEU301      0.2260
    124  O          6.5580  146.7480  147.4630 O.2   301  LEU301     -0.2867
    125  CB         6.4380  149.0760  145.1170 C.3   301  LEU301      0.0270
    126  CG         6.3700  147.8540  144.1860 C.3   301  LEU301      0.0019
    127  CD1        4.9140  147.4350  143.8930 C.3   301  LEU301      0.0001
    128  CD2        7.1270  148.1180  142.9030 C.3   301  LEU301      0.0001
@<TRIPOS>BOND
     1    69    70    1
     2    70    73    1
     3    70    71    1
     4    73    74    1
     5    74    75    1
     6    75    76    1
     7    85    86    1
     8    72    71    2
     9    71    80   am
    10    63    64    1
    11    76    77    2
    12    86    87    1
    13    86    89    1
    14    90    89    1
    15    92    93    1
    16    80    81    1
    17    77    78    1
    18    77    79    1
    19    64    65    1
    20    64    67    1
    21    87    88    2
    22    65    66    2
    23    89    91    1
    24    82    83    2
    25    82    81    1
    26    94    93    1
    27    94    95    2
    28    93    96    1
    29    81    84    1
    30    67    68    1
    31    96    98    1
    32    96    97    1
    33     6     5    1
    34    15    17   ar
    35    15    13   ar
    36    17    16   ar
    37   105   104    1
    38    24    23    1
    39   106   104    1
    40     5     2    1
    41    13    12   ar
    42    16    14   ar
    43    57    56    1
    44   104   103    1
    45     2     1    1
    46     2     3    1
    47    25    23    1
    48    58    56    1
    49    23    22    1
    50    22    19    1
    51    12    14   ar
    52    12    11    1
    53     4     3    2
    54    56    55    1
    55     7     8    1
    56    35    32    1
    57   103   100    1
    58    55    52    1
    59     8    11    1
    60     8     9    1
    61    32    33    1
    62    32    31    1
    63    21    20    2
    64    19    20    1
    65    19    18    1
    66    40    41    1
    67    40    37    1
    68    47    46    1
    69    47    48    1
    70    10     9    2
    71   100    99    1
    72   100   101    1
    73    34    33    2
    74    46    43    1
    75    52    53    1
    76    52    51    1
    77    43    42    1
    78    43    44    1
    79    54    53    2
    80    31    28   am
    81   114   112    1
    82    39    38    2
    83    53    59   am
    84    42    38   am
    85    38    37    1
    86    50    48   ar
    87   128   126    1
    88    37    36    1
    89    48    49   ar
    90    59    60    1
    91   101   102    2
    92   120   119    1
    93    45    44    2
    94    28    29    2
    95    28    27    1
    96    60    61    1
    97    30    27    1
    98   112   111    1
    99   112   113    1
   100   111   108    1
   101   127   126    1
   102    27    26    1
   103   126   125    1
   104    62    61    2
   105   119   116    1
   106   116   115    1
   107   116   117    1
   108   115   109   am
   109   125   122    1
   110   109   108    1
   111   109   110    2
   112   108   107    1
   113   117   118    2
   114   122   123    1
   115   122   121    1
   116   123   124    2
