@<TRIPOS>MOLECULE
tmp/6iiuA01.pdb
 88 86 0 0 0
SMALL
GASTEIGER

@<TRIPOS>ATOM
      1  N         19.4320  161.1890  138.4630 N.3   205  PHE205     -0.1241
      2  CA        19.8320  159.8710  137.9990 C.3   205  PHE205      0.1605
      3  C         20.2540  158.9630  139.1730 C.2   205  PHE205      0.2264
      4  O         19.6670  157.8940  139.3510 O.2   205  PHE205     -0.2867
      5  CB        20.9470  159.9980  136.9600 C.3   205  PHE205      0.0534
      6  CG        21.4600  158.6630  136.5060 C.ar  205  PHE205     -0.0203
      7  CD1       20.7950  157.9430  135.5180 C.ar  205  PHE205     -0.0042
      8  CD2       22.5730  158.0880  137.1060 C.ar  205  PHE205     -0.0042
      9  CE1       21.2380  156.6860  135.1370 C.ar  205  PHE205     -0.0003
     10  CE2       23.0040  156.8140  136.7300 C.ar  205  PHE205     -0.0003
     11  CZ        22.3320  156.1250  135.7510 C.ar  205  PHE205     -0.0000
     12  N         20.9350  131.4540  133.0230 N.3   234  VAL234     -0.1245
     13  CA        21.6780  132.4570  132.2610 C.3   234  VAL234      0.1561
     14  C         20.6930  133.4920  131.6810 C.2   234  VAL234      0.2260
     15  O         21.0220  134.6760  131.5950 O.2   234  VAL234     -0.2867
     16  CB        22.5850  131.7710  131.1910 C.3   234  VAL234      0.0252
     17  CG1       21.7800  130.9780  130.1610 C.3   234  VAL234      0.0019
     18  CG2       23.5170  132.7650  130.5160 C.3   234  VAL234      0.0019
     19  N         19.4700  135.9240  134.4540 N.3   237  GLN237     -0.1231
     20  CA        20.5440  136.8700  134.7350 C.3   237  GLN237      0.1698
     21  C         20.5630  137.9430  133.6170 C.2   237  GLN237      0.2592
     22  O         20.6960  139.1460  133.8940 O.2   237  GLN237     -0.2718
     23  CB        21.8760  136.1240  134.8390 C.3   237  GLN237      0.0381
     24  CG        23.0930  137.0100  135.1040 C.3   237  GLN237      0.0905
     25  CD        24.4010  136.2550  134.9650 C.2   237  GLN237      0.2608
     26  OE1       25.3080  136.3900  135.7920 O.2   237  GLN237     -0.2717
     27  NE2       24.5460  135.4570  133.9060 N.am  237  GLN237     -0.0878
     28  N         20.3620  137.4900  132.3720 N.am  238  ARG238     -0.1980
     29  CA        20.2670  138.2940  131.1590 C.3   238  ARG238      0.1597
     30  C         19.0720  139.2480  131.3100 C.2   238  ARG238      0.2287
     31  O         19.2530  140.4630  131.2140 O.2   238  ARG238     -0.2864
     32  CB        20.0820  137.3400  129.9720 C.3   238  ARG238      0.0334
     33  CG        20.3790  137.9020  128.6100 C.3   238  ARG238      0.0492
     34  CD        20.0190  136.8750  127.5500 C.3   238  ARG238      0.2205
     35  NE        20.8930  135.7310  127.7000 N.pl3 238  ARG238     -0.0865
     36  CZ        20.5000  134.4710  127.7020 C.cat 238  ARG238      0.5346
     37  NH1       19.2260  134.1610  127.4730 N.pl3 238  ARG238      0.1354
     38  NH2       21.3770  133.5040  127.9000 N.pl3 238  ARG238      0.1354
     39  N         19.7590  141.9200  134.0070 N.3   241  TRP241     -0.1227
     40  CA        20.6550  142.9680  133.5140 C.3   241  TRP241      0.1737
     41  C         19.9470  143.9210  132.5270 C.2   241  TRP241      0.2595
     42  O         20.1920  145.1230  132.5590 O.2   241  TRP241     -0.2718
     43  CB        21.9270  142.3750  132.8960 C.3   241  TRP241      0.0564
     44  CG        23.0860  142.2270  133.8410 C.ar  241  TRP241      0.0003
     45  CD1       23.7070  141.0650  134.1930 C.ar  241  TRP241      0.0946
     46  CD2       23.7390  143.2740  134.5850 C.ar  241  TRP241      0.0152
     47  NE1       24.7020  141.3170  135.1100 N.ar  241  TRP241     -0.2442
     48  CE2       24.7140  142.6570  135.4040 C.ar  241  TRP241      0.0810
     49  CE3       23.5500  144.6650  134.6890 C.ar  241  TRP241      0.0012
     50  CZ2       25.5290  143.3880  136.2830 C.ar  241  TRP241      0.0191
     51  CZ3       24.3490  145.3930  135.5690 C.ar  241  TRP241      0.0001
     52  CH2       25.3380  144.7590  136.3400 C.ar  241  TRP241      0.0015
     53  N         19.0640  143.3900  131.6700 N.am  242  ALA242     -0.1980
     54  CA        18.2750  144.1820  130.7280 C.3   242  ALA242      0.1597
     55  C         17.3870  145.1540  131.5390 C.2   242  ALA242      0.2287
     56  O         17.3450  146.3560  131.2330 O.2   242  ALA242     -0.2864
     57  CB        17.4340  143.2610  129.8530 C.3   242  ALA242      0.0319
     58  N         19.3070  148.1000  132.9960 N.3   245  GLY245     -0.1225
     59  CA        19.5230  149.0260  131.8930 C.3   245  GLY245      0.1811
     60  C         18.2970  149.8870  131.6350 C.2   245  GLY245      0.2280
     61  O         18.4370  151.0830  131.3800 O.2   245  GLY245     -0.2866
     62  N         18.1210  152.3700  134.5260 N.3   248  TRP248     -0.1227
     63  CA        19.0870  153.4440  134.2850 C.3   248  TRP248      0.1737
     64  C         18.6000  154.4370  133.2050 C.2   248  TRP248      0.2595
     65  O         18.7300  155.6340  133.3980 O.2   248  TRP248     -0.2718
     66  CB        20.4720  152.8790  133.9240 C.3   248  TRP248      0.0564
     67  CG        21.2560  152.3430  135.0870 C.ar  248  TRP248      0.0003
     68  CD1       21.1500  152.7130  136.3960 C.ar  248  TRP248      0.0946
     69  CD2       22.2960  151.3550  135.0300 C.ar  248  TRP248      0.0152
     70  NE1       22.0620  152.0210  137.1600 N.ar  248  TRP248     -0.2442
     71  CE2       22.8010  151.2020  136.3440 C.ar  248  TRP248      0.0810
     72  CE3       22.8410  150.5660  133.9940 C.ar  248  TRP248      0.0012
     73  CZ2       23.8150  150.2780  136.6560 C.ar  248  TRP248      0.0191
     74  CZ3       23.8670  149.6740  134.2930 C.ar  248  TRP248      0.0001
     75  CH2       24.3420  149.5300  135.6070 C.ar  248  TRP248      0.0015
     76  N         18.0090  153.9250  132.1070 N.am  249  ALA249     -0.1980
     77  CA        17.4670  154.7020  130.9900 C.3   249  ALA249      0.1597
     78  C         16.2810  155.5490  131.4560 C.2   249  ALA249      0.2287
     79  O         16.1660  156.7020  131.0450 O.2   249  ALA249     -0.2864
     80  CB        17.0410  153.7750  129.8510 C.3   249  ALA249      0.0319
     81  N         17.7380  158.3210  133.7370 N.3   252  LEU252     -0.1245
     82  CA        18.3870  159.3080  132.8810 C.3   252  LEU252      0.1561
     83  C         17.3220  160.2010  132.1850 C.2   252  LEU252      0.2260
     84  O         17.3980  161.4190  132.3260 O.2   252  LEU252     -0.2867
     85  CB        19.3130  158.6200  131.8550 C.3   252  LEU252      0.0270
     86  CG        20.0200  159.5610  130.8340 C.3   252  LEU252      0.0019
     87  CD1       21.0240  160.5230  131.5190 C.3   252  LEU252      0.0001
     88  CD2       20.7070  158.7610  129.7660 C.3   252  LEU252      0.0001
@<TRIPOS>BOND
     1    37    36    1
     2    34    35    1
     3    34    33    1
     4    35    36    2
     5    36    38    1
     6    33    32    1
     7    88    86    1
     8    80    77    1
     9    57    54    1
    10    32    29    1
    11    17    16    1
    12    18    16    1
    13    54    55    1
    14    54    53    1
    15    86    87    1
    16    86    85    1
    17    77    78    1
    18    77    76    1
    19    79    78    2
    20    29    30    1
    21    29    28    1
    22    16    13    1
    23    31    30    2
    24    56    55    2
    25    61    60    2
    26    15    14    2
    27    60    59    1
    28    53    41   am
    29    14    13    1
    30    85    82    1
    31    59    58    1
    32    76    64   am
    33    83    84    2
    34    83    82    1
    35    13    12    1
    36    28    21   am
    37    41    42    2
    38    41    40    1
    39    82    81    1
    40    43    40    1
    41    43    44    1
    42    64    65    2
    43    64    63    1
    44    40    39    1
    45    21    22    2
    46    21    20    1
    47    44    45   ar
    48    44    46   ar
    49    27    25   am
    50    66    63    1
    51    66    67    1
    52    72    74   ar
    53    72    69   ar
    54    45    47   ar
    55    63    62    1
    56    74    75   ar
    57    19    20    1
    58    46    49   ar
    59    46    48   ar
    60    49    51   ar
    61    20    23    1
    62    23    24    1
    63    25    24    1
    64    25    26    2
    65    69    67   ar
    66    69    71   ar
    67    67    68   ar
    68    47    48   ar
    69     9     7   ar
    70     9    11   ar
    71    48    50   ar
    72     7     6   ar
    73    51    52   ar
    74    75    73   ar
    75    11    10   ar
    76    50    52   ar
    77    71    73   ar
    78    71    70   ar
    79    68    70   ar
    80     6     5    1
    81     6     8   ar
    82    10     8   ar
    83     5     2    1
    84     2     1    1
    85     2     3    1
    86     3     4    2
