@<TRIPOS>MOLECULE
tmp/6iivA00.pdb
 190 182 0 0 0
SMALL
GASTEIGER

@<TRIPOS>ATOM
      1  N         28.1530  154.0960  138.3970 N.3   169  GLY169     -0.1210
      2  CA        27.4020  155.1820  138.9980 C.3   169  GLY169      0.1956
      3  C         28.2710  155.9900  139.9310 C.2   169  GLY169      0.2611
      4  O         28.4080  157.2040  139.7640 O.2   169  GLY169     -0.2717
      5  N         28.9170  155.2990  140.8820 N.am  170  LEU170     -0.1979
      6  CA        29.8060  155.9300  141.8580 C.3   170  LEU170      0.1596
      7  C         31.0320  156.4870  141.1750 C.2   170  LEU170      0.2287
      8  O         31.4330  157.5920  141.5060 O.2   170  LEU170     -0.2864
      9  CB        30.1860  154.9700  143.0030 C.3   170  LEU170      0.0297
     10  CG        29.0350  154.4820  143.8940 C.3   170  LEU170      0.0022
     11  CD1       29.3410  153.1220  144.4960 C.3   170  LEU170      0.0001
     12  CD2       28.6610  155.5210  144.9470 C.3   170  LEU170      0.0001
     13  N         29.7040  159.7370  138.5710 N.3   173  THR173     -0.1203
     14  CA        29.2120  160.8440  139.4060 C.3   173  THR173      0.1994
     15  C         30.2730  161.2620  140.4240 C.2   173  THR173      0.2618
     16  O         30.4990  162.4510  140.5960 O.2   173  THR173     -0.2717
     17  CB        27.8500  160.5470  140.0550 C.3   173  THR173      0.1784
     18  OG1       28.0150  159.5620  141.0680 O.3   173  THR173     -0.2211
     19  CG2       26.7850  160.1210  139.0580 C.3   173  THR173      0.0376
     20  N         30.9510  160.2940  141.0310 N.am  174  GLY174     -0.1956
     21  CA        32.0190  160.5610  141.9840 C.3   174  GLY174      0.1869
     22  C         33.0750  161.4930  141.4130 C.2   174  GLY174      0.2309
     23  O         33.3890  162.5210  142.0200 O.2   174  GLY174     -0.2863
     24  N         31.6330  165.0930  141.0180 N.3   177  VAL177     -0.1245
     25  CA        31.4450  165.5510  142.3940 C.3   177  VAL177      0.1561
     26  C         32.7810  165.9040  143.0820 C.2   177  VAL177      0.2260
     27  O         32.8760  166.9670  143.6840 O.2   177  VAL177     -0.2867
     28  CB        30.5980  164.5120  143.1670 C.3   177  VAL177      0.0252
     29  CG1       30.6130  164.7630  144.6650 C.3   177  VAL177      0.0019
     30  CG2       29.1700  164.5060  142.6420 C.3   177  VAL177      0.0019
     31  N         34.1880  169.6830  144.2870 N.3   181  HIS181     -0.1241
     32  CA        34.6720  169.9430  145.6370 C.3   181  HIS181      0.1621
     33  C         36.1030  170.4880  145.5630 C.2   181  HIS181      0.2264
     34  O         36.4370  171.4620  146.2530 O.2   181  HIS181     -0.2867
     35  CB        34.5790  168.6640  146.4790 C.3   181  HIS181      0.0745
     36  CG        33.1950  168.3850  146.9740 C.ar  181  HIS181      0.0817
     37  ND1       32.7900  168.7730  148.2370 N.ar  181  HIS181     -0.2268
     38  CD2       32.1500  167.8050  146.3420 C.ar  181  HIS181      0.1154
     39  CE1       31.5190  168.4270  148.3290 C.ar  181  HIS181      0.1986
     40  NE2       31.0930  167.8350  147.2140 N.ar  181  HIS181     -0.2212
     41  N         25.7640  165.3080  133.7090 N.3   200  MET200     -0.1245
     42  CA        25.6190  164.8200  135.0650 C.3   200  MET200      0.1570
     43  C         24.1750  164.5310  135.4460 C.2   200  MET200      0.2261
     44  O         23.9340  163.5460  136.1260 O.2   200  MET200     -0.2867
     45  CB        26.3060  165.6990  136.0910 C.3   200  MET200      0.0387
     46  CG        26.9760  164.8660  137.1230 C.3   200  MET200      0.0595
     47  SD        26.6570  165.4670  138.7570 S.3   200  MET200     -0.1393
     48  CE        27.0410  164.0590  139.6740 C.3   200  MET200      0.0692
     49  N         22.7210  160.9540  136.5130 N.3   204  MET204     -0.1245
     50  CA        22.0480  160.8540  137.8170 C.3   204  MET204      0.1570
     51  C         20.7620  160.0500  137.7140 C.2   204  MET204      0.2261
     52  O         20.4990  159.2220  138.5780 O.2   204  MET204     -0.2867
     53  CB        21.7290  162.2460  138.4050 C.3   204  MET204      0.0387
     54  CG        22.9110  162.9660  138.9920 C.3   204  MET204      0.0595
     55  SD        23.8140  162.0330  140.2410 S.3   204  MET204     -0.1393
     56  CE        22.8340  162.3980  141.6940 C.3   204  MET204      0.0692
     57  N         21.7330  156.2910  136.7130 N.3   207  PHE207     -0.1227
     58  CA        22.2100  155.5780  137.8960 C.3   207  PHE207      0.1736
     59  C         21.2680  155.7050  139.1020 C.2   207  PHE207      0.2596
     60  O         21.5100  155.0900  140.1440 O.2   207  PHE207     -0.2718
     61  CB        23.6390  155.9880  138.2270 C.3   207  PHE207      0.0547
     62  CG        24.5940  155.5860  137.1290 C.ar  207  PHE207     -0.0202
     63  CD1       24.8430  154.2450  136.8560 C.ar  207  PHE207     -0.0042
     64  CD2       25.2460  156.5480  136.3610 C.ar  207  PHE207     -0.0042
     65  CE1       25.7330  153.8720  135.8400 C.ar  207  PHE207     -0.0003
     66  CE2       26.1240  156.1700  135.3330 C.ar  207  PHE207     -0.0003
     67  CZ        26.3590  154.8350  135.0790 C.ar  207  PHE207     -0.0000
     68  N         20.1780  156.4490  138.9320 N.am  208  GLY208     -0.1957
     69  CA        19.1470  156.5820  139.9480 C.3   208  GLY208      0.1869
     70  C         18.1550  155.4520  139.7860 C.2   208  GLY208      0.2309
     71  O         18.1110  154.5190  140.5960 O.2   208  GLY208     -0.2863
     72  N         25.1950  171.5610  147.1890 N.3   271  PRO271     -0.2116
     73  CA        26.0660  172.7450  147.3630 C.3   271  PRO271      0.1372
     74  C         26.6780  173.3270  146.0950 C.2   271  PRO271      0.2244
     75  O         27.3050  174.4050  146.1530 O.2   271  PRO271     -0.2868
     76  CB        27.1330  172.2440  148.3300 C.3   271  PRO271      0.0268
     77  CG        27.2560  170.7710  148.0010 C.3   271  PRO271      0.0207
     78  CD        25.8730  170.3180  147.6160 C.3   271  PRO271      0.0892
     79  N         27.9550  170.8600  143.7750 N.3   273  SER273     -0.1202
     80  CA        28.7820  169.6980  143.4570 C.3   273  SER273      0.2020
     81  C         28.1000  168.7450  142.4760 C.2   273  SER273      0.2618
     82  O         28.7310  167.7690  142.0500 O.2   273  SER273     -0.2717
     83  CB        29.0910  168.9400  144.7380 C.3   273  SER273      0.2103
     84  OG        27.8690  168.5620  145.3470 O.3   273  SER273     -0.2182
     85  N         26.8200  169.0290  142.1040 N.am  274  TRP274     -0.1975
     86  CA        26.0310  168.1420  141.2400 C.3   274  TRP274      0.1640
     87  C         24.7690  168.7530  140.5940 C.2   274  TRP274      0.2290
     88  O         24.2140  169.7010  141.1280 O.2   274  TRP274     -0.2864
     89  CB        25.5980  166.9290  142.0880 C.3   274  TRP274      0.0576
     90  CG        24.6300  167.2750  143.1940 C.ar  274  TRP274      0.0006
     91  CD1       24.8600  168.0770  144.2720 C.ar  274  TRP274      0.0946
     92  CD2       23.2890  166.7960  143.3260 C.ar  274  TRP274      0.0152
     93  NE1       23.7340  168.1510  145.0490 N.ar  274  TRP274     -0.2442
     94  CE2       22.7560  167.3670  144.4960 C.ar  274  TRP274      0.0810
     95  CE3       22.4730  165.9610  142.5480 C.ar  274  TRP274      0.0012
     96  CZ2       21.4490  167.1100  144.9220 C.ar  274  TRP274      0.0191
     97  CZ3       21.1880  165.6980  142.9770 C.ar  274  TRP274      0.0001
     98  CH2       20.6830  166.2750  144.1460 C.ar  274  TRP274      0.0015
     99  N         20.7180  167.8330  138.8500 N.3   276  PHE276     -0.1241
    100  CA        19.5970  166.9040  138.9330 C.3   276  PHE276      0.1605
    101  C         18.3590  167.5200  138.2800 C.2   276  PHE276      0.2264
    102  O         18.4160  168.6770  137.8280 O.2   276  PHE276     -0.2867
    103  CB        19.3230  166.5430  140.4130 C.3   276  PHE276      0.0534
    104  CG        18.6380  165.2190  140.6610 C.ar  276  PHE276     -0.0203
    105  CD1       19.1220  164.0460  140.0880 C.ar  276  PHE276     -0.0042
    106  CD2       17.5170  165.1410  141.4820 C.ar  276  PHE276     -0.0042
    107  CE1       18.4740  162.8320  140.2970 C.ar  276  PHE276     -0.0003
    108  CE2       16.8790  163.9210  141.6980 C.ar  276  PHE276     -0.0003
    109  CZ        17.3560  162.7780  141.0960 C.ar  276  PHE276     -0.0000
    110  N          9.9010  160.2160  137.7160 N.3   292  PHE292     -0.1241
    111  CA        11.0600  159.6650  138.4130 C.3   292  PHE292      0.1605
    112  C         10.6900  159.0330  139.7520 C.2   292  PHE292      0.2264
    113  O         11.0450  157.8780  139.9780 O.2   292  PHE292     -0.2867
    114  CB        12.1720  160.7230  138.5830 C.3   292  PHE292      0.0534
    115  CG        13.4420  160.2180  139.2380 C.ar  292  PHE292     -0.0203
    116  CD1       14.4170  159.5640  138.4930 C.ar  292  PHE292     -0.0042
    117  CD2       13.6710  160.4140  140.5950 C.ar  292  PHE292     -0.0042
    118  CE1       15.5880  159.0840  139.0990 C.ar  292  PHE292     -0.0003
    119  CE2       14.8460  159.9460  141.1980 C.ar  292  PHE292     -0.0003
    120  CZ        15.8010  159.2870  140.4450 C.ar  292  PHE292     -0.0000
    121  N         16.3920  154.9670  149.0600 N.3   396  TRP396     -0.1241
    122  CA        15.7260  155.6070  147.9450 C.3   396  TRP396      0.1605
    123  C         14.3990  156.2380  148.2420 C.2   396  TRP396      0.2264
    124  O         14.2200  157.3830  147.8380 O.2   396  TRP396     -0.2867
    125  CB        15.5960  154.6420  146.7790 C.3   396  TRP396      0.0550
    126  CG        16.8880  154.5000  146.0280 C.ar  396  TRP396      0.0003
    127  CD1       17.7390  153.4300  146.0360 C.ar  396  TRP396      0.0946
    128  CD2       17.4890  155.4870  145.1840 C.ar  396  TRP396      0.0152
    129  NE1       18.8260  153.6880  145.2390 N.ar  396  TRP396     -0.2442
    130  CE2       18.7110  154.9530  144.7230 C.ar  396  TRP396      0.0810
    131  CE3       17.1220  156.7820  144.7900 C.ar  396  TRP396      0.0012
    132  CZ2       19.5510  155.6590  143.8730 C.ar  396  TRP396      0.0191
    133  CZ3       17.9660  157.4840  143.9680 C.ar  396  TRP396      0.0001
    134  CH2       19.1660  156.9250  143.5240 C.ar  396  TRP396      0.0015
    135  N         14.1020  160.0600  149.3930 N.3   399  LEU399     -0.1245
    136  CA        14.3520  160.9920  148.2870 C.3   399  LEU399      0.1561
    137  C         13.1590  161.0130  147.3040 C.2   399  LEU399      0.2260
    138  O         12.6850  162.0920  146.9400 O.2   399  LEU399     -0.2867
    139  CB        15.6650  160.6240  147.5540 C.3   399  LEU399      0.0270
    140  CG        15.9870  161.3760  146.2530 C.3   399  LEU399      0.0019
    141  CD1       16.5170  162.7550  146.5320 C.3   399  LEU399      0.0001
    142  CD2       16.9610  160.6070  145.4040 C.3   399  LEU399      0.0001
    143  N         19.9320  167.4200  149.5330 N.3   429  LEU429     -0.1245
    144  CA        21.3130  166.9630  149.6130 C.3   429  LEU429      0.1561
    145  C         21.4260  165.7880  150.5980 C.2   429  LEU429      0.2260
    146  O         22.0290  164.7670  150.2620 O.2   429  LEU429     -0.2867
    147  CB        22.2180  168.1290  150.0230 C.3   429  LEU429      0.0270
    148  CG        23.5820  167.7800  150.5990 C.3   429  LEU429      0.0019
    149  CD1       24.5440  167.3640  149.5130 C.3   429  LEU429      0.0001
    150  CD2       24.1410  168.9450  151.3730 C.3   429  LEU429      0.0001
    151  N         19.6960  162.7940  149.1050 N.3   432  LEU432     -0.1231
    152  CA        20.5120  162.2480  148.0220 C.3   432  LEU432      0.1693
    153  C         21.6920  161.4820  148.6080 C.2   432  LEU432      0.2591
    154  O         21.9880  160.3770  148.1530 O.2   432  LEU432     -0.2718
    155  CB        21.0050  163.3290  147.0480 C.3   432  LEU432      0.0284
    156  CG        21.6660  162.7470  145.7950 C.3   432  LEU432      0.0019
    157  CD1       20.6720  162.6000  144.6470 C.3   432  LEU432      0.0001
    158  CD2       22.8870  163.5180  145.4180 C.3   432  LEU432      0.0001
    159  N         22.3500  162.0650  149.6350 N.am  433  ARG433     -0.1980
    160  CA        23.4680  161.4450  150.3490 C.3   433  ARG433      0.1597
    161  C         23.0430  160.0720  150.9120 C.2   433  ARG433      0.2287
    162  O         23.8470  159.1390  150.9230 O.2   433  ARG433     -0.2864
    163  CB        23.9890  162.3770  151.4520 C.3   433  ARG433      0.0334
    164  CG        25.0070  163.3900  150.9800 C.3   433  ARG433      0.0492
    165  CD        25.6320  164.0490  152.1930 C.3   433  ARG433      0.2205
    166  NE        26.1470  165.3930  151.9200 N.pl3 433  ARG433     -0.0865
    167  CZ        27.4120  165.6700  151.6200 C.cat 433  ARG433      0.5346
    168  NH1       28.3080  164.6920  151.5190 N.pl3 433  ARG433      0.1354
    169  NH2       27.7850  166.9180  151.3800 N.pl3 433  ARG433      0.1354
    170  N         20.4900  158.1510  149.5070 N.3   435  ALA435     -0.1231
    171  CA        20.3250  157.3450  148.2910 C.3   435  ALA435      0.1694
    172  C         21.6560  156.8170  147.8040 C.2   435  ALA435      0.2592
    173  O         21.7240  155.6710  147.3710 O.2   435  ALA435     -0.2718
    174  CB        19.6630  158.1630  147.2000 C.3   435  ALA435      0.0304
    175  N         22.7250  157.6230  147.9340 N.am  436  THR436     -0.1953
    176  CA        24.0960  157.2430  147.5890 C.3   436  THR436      0.1897
    177  C         24.4640  155.9150  148.2780 C.2   436  THR436      0.2313
    178  O         25.1030  155.0490  147.6760 O.2   436  THR436     -0.2863
    179  CB        25.0640  158.3780  147.9690 C.3   436  THR436      0.1794
    180  OG1       24.8010  159.5140  147.1440 O.3   436  THR436     -0.2208
    181  CG2       26.5290  157.9780  147.8550 C.3   436  THR436      0.0378
    182  N         23.9760  152.3680  146.5640 N.3   439  GLN439     -0.1245
    183  CA        25.0540  151.9440  145.6610 C.3   439  GLN439      0.1566
    184  C         26.2920  151.3890  146.3820 C.2   439  GLN439      0.2260
    185  O         27.0880  150.6660  145.7680 O.2   439  GLN439     -0.2867
    186  CB        25.4390  153.0680  144.6980 C.3   439  GLN439      0.0367
    187  CG        24.3720  153.3870  143.6570 C.3   439  GLN439      0.0905
    188  CD        23.1240  154.0200  144.2330 C.2   439  GLN439      0.2608
    189  OE1       22.0040  153.5800  143.9810 O.2   439  GLN439     -0.2717
    190  NE2       23.2850  155.0290  145.0610 N.am  439  GLN439     -0.0878
@<TRIPOS>BOND
     1    41    42    1
     2    42    43    1
     3    42    45    1
     4    67    66   ar
     5    67    65   ar
     6    66    64   ar
     7    43    44    2
     8    65    63   ar
     9    45    46    1
    10    64    62   ar
    11    49    50    1
    12    57    58    1
    13    63    62   ar
    14    46    47    1
    15    62    61    1
    16    51    50    1
    17    51    52    2
    18   110   111    1
    19    50    53    1
    20   102   101    2
    21    58    61    1
    22    58    59    1
    23   101   100    1
    24     1     2    1
    25    53    54    1
    26   111   114    1
    27   111   112    1
    28   116   118   ar
    29   116   115   ar
    30    13    14    1
    31   114   115    1
    32    47    48    1
    33    99   100    1
    34    68    59   am
    35    68    69    1
    36   100   103    1
    37    54    55    1
    38     2     3    1
    39    19    17    1
    40   118   120   ar
    41    59    60    2
    42   115   117   ar
    43    14    17    1
    44    14    15    1
    45   112   113    2
    46     4     3    2
    47    70    69    1
    48    70    71    2
    49     3     5   am
    50    17    18    1
    51   105   107   ar
    52   105   104   ar
    53    55    56    1
    54   107   109   ar
    55   103   104    1
    56    15    16    2
    57    15    20   am
    58   120   119   ar
    59    87    88    2
    60    87    86    1
    61   117   119   ar
    62   104   106   ar
    63     5     6    1
    64    24    25    1
    65    20    21    1
    66   109   108   ar
    67     7     8    2
    68     7     6    1
    69    86    89    1
    70    86    85    1
    71    22    21    1
    72    22    23    2
    73   106   108   ar
    74     6     9    1
    75    82    81    2
    76    89    90    1
    77    85    81   am
    78    25    26    1
    79    25    28    1
    80    81    80    1
    81    95    97   ar
    82    95    92   ar
    83    30    28    1
    84    97    98   ar
    85     9    10    1
    86    26    27    2
    87    28    29    1
    88    90    92   ar
    89    90    91   ar
    90    92    94   ar
    91    80    79    1
    92    80    83    1
    93   134   132   ar
    94   134   133   ar
    95   187   188    1
    96   187   186    1
    97   132   130   ar
    98    10    11    1
    99    10    12    1
   100   133   131   ar
   101   189   188    2
   102    98    96   ar
   103   188   190   am
   104    91    93   ar
   105    31    32    1
   106    94    96   ar
   107    94    93   ar
   108   157   156    1
   109   186   183    1
   110   130   128   ar
   111   130   129   ar
   112    83    84    1
   113   131   128   ar
   114   128   126   ar
   115   129   127   ar
   116   142   140    1
   117   158   156    1
   118    33    32    1
   119    33    34    2
   120    32    35    1
   121   183   184    1
   122   183   182    1
   123   185   184    2
   124   156   155    1
   125   126   127   ar
   126   126   125    1
   127    74    75    2
   128    74    73    1
   129   140   141    1
   130   140   139    1
   131    38    36   ar
   132    38    40   ar
   133    35    36    1
   134   125   122    1
   135   138   137    2
   136    36    37   ar
   137   155   152    1
   138   180   179    1
   139    72    73    1
   140    72    78    1
   141   174   171    1
   142    40    39   ar
   143   137   136    1
   144    73    76    1
   145   173   172    2
   146   139   136    1
   147   176   175    1
   148   176   179    1
   149   176   177    1
   150    78    77    1
   151   178   177    2
   152   172   175   am
   153   172   171    1
   154   124   123    2
   155   181   179    1
   156   122   123    1
   157   122   121    1
   158    77    76    1
   159   152   153    1
   160   152   151    1
   161   154   153    2
   162    37    39   ar
   163   136   135    1
   164   171   170    1
   165   153   159   am
   166   149   148    1
   167   143   144    1
   168   144   147    1
   169   144   145    1
   170   159   160    1
   171   147   148    1
   172   146   145    2
   173   160   161    1
   174   160   163    1
   175   148   150    1
   176   161   162    2
   177   164   163    1
   178   164   165    1
   179   169   167    1
   180   168   167    1
   181   167   166    2
   182   166   165    1
