@<TRIPOS>MOLECULE
tmp/6ijnA00.pdb
 204 193 0 0 0
SMALL
GASTEIGER

@<TRIPOS>ATOM
      1  N         13.2240    0.0310   -6.1730 N.3    16  HIS16      -0.1226
      2  CA        11.9410   -0.0660   -6.8530 C.3    16  HIS16       0.1752
      3  C         11.8800    0.9930   -7.9400 C.2    16  HIS16       0.2596
      4  O         12.1520    2.1660   -7.6730 O.2    16  HIS16      -0.2718
      5  CB        10.7780    0.1700   -5.8810 C.3    16  HIS16       0.0759
      6  CG        10.7040   -0.8090   -4.7440 C.ar   16  HIS16       0.0818
      7  ND1        9.9100   -1.9380   -4.7930 N.ar   16  HIS16      -0.2268
      8  CD2       11.3060   -0.8210   -3.5210 C.ar   16  HIS16       0.1154
      9  CE1       10.0250   -2.6070   -3.6520 C.ar   16  HIS16       0.1986
     10  NE2       10.8480   -1.9410   -2.8570 N.ar   16  HIS16      -0.2212
     11  N         11.5110    0.5770   -9.1490 N.am   17  LEU17      -0.1966
     12  CA        11.5390    1.4860  -10.2960 C.3    17  LEU17       0.1728
     13  C         10.7780    2.7850  -10.0110 C.2    17  LEU17       0.2616
     14  O         11.3310    3.8840  -10.1550 O.2    17  LEU17      -0.2715
     15  CB        10.9570    0.7650  -11.5250 C.3    17  LEU17       0.0311
     16  CG        10.7860    1.6510  -12.7540 C.3    17  LEU17       0.0022
     17  CD1       12.1830    2.1870  -13.1910 C.3    17  LEU17       0.0001
     18  CD2       10.1750    0.8160  -13.8430 C.3    17  LEU17       0.0001
     19  N          9.5120    2.6860   -9.6060 N.am   18  ASN18      -0.1958
     20  CA         8.7460    3.9230   -9.4510 C.3    18  ASN18       0.1819
     21  C          9.0370    4.6520   -8.1430 C.2    18  ASN18       0.2621
     22  O          8.4610    5.7250   -7.9060 O.2    18  ASN18      -0.2715
     23  CB         7.2490    3.6510   -9.5990 C.3    18  ASN18       0.1195
     24  CG         6.8360    3.4410  -11.0530 C.2    18  ASN18       0.2630
     25  OD1        6.4320    4.3860  -11.7350 O.2    18  ASN18      -0.2716
     26  ND2        6.9510    2.2090  -11.5430 N.am   18  ASN18      -0.0877
     27  N          9.9120    4.1130   -7.3010 N.am   19  GLY19      -0.1954
     28  CA        10.4560    4.8490   -6.1700 C.3    19  GLY19       0.1869
     29  C         11.7890    5.5150   -6.4500 C.2    19  GLY19       0.2309
     30  O         12.3740    6.1130   -5.5480 O.2    19  GLY19      -0.2863
     31  N          5.4920    5.7180    7.1630 N.3    55  LEU55      -0.1245
     32  CA         5.1370    4.5050    6.4270 C.3    55  LEU55       0.1561
     33  C          3.7520    4.6110    5.7820 C.2    55  LEU55       0.2260
     34  O          3.5840    4.2800    4.6030 O.2    55  LEU55      -0.2867
     35  CB         5.2280    3.2950    7.3540 C.3    55  LEU55       0.0270
     36  CG         5.4280    1.9620    6.6360 C.3    55  LEU55       0.0019
     37  CD1        6.6700    2.0160    5.7660 C.3    55  LEU55       0.0001
     38  CD2        5.5450    0.8180    7.6250 C.3    55  LEU55       0.0001
     39  N          3.9230    7.0650    2.8510 N.3    58  VAL58      -0.1231
     40  CA         4.6910    6.5800    1.7020 C.3    58  VAL58       0.1692
     41  C          3.7730    5.8700    0.6930 C.2    58  VAL58       0.2592
     42  O          3.9130    6.0450   -0.5270 O.2    58  VAL58      -0.2718
     43  CB         5.8570    5.6800    2.1780 C.3    58  VAL58       0.0266
     44  CG1        6.3520    4.7950    1.0580 C.3    58  VAL58       0.0020
     45  CG2        7.0210    6.5230    2.6930 C.3    58  VAL58       0.0020
     46  N          2.8200    5.0640    1.1690 N.am   59  PHE59      -0.1976
     47  CA         1.9880    4.3260    0.2180 C.3    59  PHE59       0.1639
     48  C          0.9340    5.2180   -0.4310 C.2    59  PHE59       0.2290
     49  O          0.5380    4.9790   -1.5830 O.2    59  PHE59      -0.2864
     50  CB         1.3900    3.0880    0.9080 C.3    59  PHE59       0.0560
     51  CG         2.4630    2.1240    1.3070 C.ar   59  PHE59      -0.0200
     52  CD1        3.0930    1.3380    0.3390 C.ar   59  PHE59      -0.0042
     53  CD2        2.9620    2.1260    2.5990 C.ar   59  PHE59      -0.0042
     54  CE1        4.1540    0.5210    0.6800 C.ar   59  PHE59      -0.0003
     55  CE2        4.0050    1.3010    2.9540 C.ar   59  PHE59      -0.0003
     56  CZ         4.6210    0.5060    1.9850 C.ar   59  PHE59      -0.0000
     57  N          2.8990    6.5890   -3.2650 N.3    62  PHE62      -0.1241
     58  CA         2.9910    5.6830   -4.4070 C.3    62  PHE62       0.1605
     59  C          1.7130    5.6700   -5.2240 C.2    62  PHE62       0.2264
     60  O          1.7640    5.5370   -6.4500 O.2    62  PHE62      -0.2867
     61  CB         3.3450    4.2690   -3.9490 C.3    62  PHE62       0.0534
     62  CG         4.7910    4.1110   -3.6370 C.ar   62  PHE62      -0.0203
     63  CD1        5.7490    4.4560   -4.5910 C.ar   62  PHE62      -0.0042
     64  CD2        5.1890    3.6230   -2.4130 C.ar   62  PHE62      -0.0042
     65  CE1        7.1080    4.3120   -4.2990 C.ar   62  PHE62      -0.0003
     66  CE2        6.5510    3.4910   -2.1050 C.ar   62  PHE62      -0.0003
     67  CZ         7.4850    3.8270   -3.0550 C.ar   62  PHE62      -0.0000
     68  N          1.8590    6.5120   -9.2000 N.3    66  HIS66      -0.1241
     69  CA         1.3580    5.6060  -10.2200 C.3    66  HIS66       0.1621
     70  C          0.3280    6.2780  -11.0990 C.2    66  HIS66       0.2264
     71  O          0.1800    5.8960  -12.2660 O.2    66  HIS66      -0.2867
     72  CB         0.7660    4.3550   -9.5820 C.3    66  HIS66       0.0745
     73  CG         1.8020    3.4440   -8.9880 C.ar   66  HIS66       0.0817
     74  ND1        1.5340    2.6030   -7.9320 N.ar   66  HIS66      -0.2268
     75  CD2        3.1020    3.2440   -9.3160 C.ar   66  HIS66       0.1154
     76  CE1        2.6270    1.9200   -7.6310 C.ar   66  HIS66       0.1986
     77  NE2        3.5960    2.2920   -8.4540 N.ar   66  HIS66      -0.2212
     78  N         10.2100   -4.0950  -10.1000 N.3    98  THR98      -0.1203
     79  CA         9.0440   -3.2590  -10.3750 C.3    98  THR98       0.1994
     80  C          7.8140   -4.1420  -10.3970 C.2    98  THR98       0.2618
     81  O          7.8950   -5.3130  -10.7480 O.2    98  THR98      -0.2717
     82  CB         9.1840   -2.4750  -11.7050 C.3    98  THR98       0.1784
     83  OG1        8.1110   -1.5190  -11.8380 O.3    98  THR98      -0.2211
     84  CG2        9.1900   -3.4020  -12.9100 C.3    98  THR98       0.0376
     85  N          6.6820   -3.5670   -9.9720 N.am   99  THR99      -0.1952
     86  CA         5.3830   -4.2320  -10.0070 C.3    99  THR99       0.1897
     87  C          4.7930   -4.1020  -11.4040 C.2    99  THR99       0.2313
     88  O          4.4680   -2.9800  -11.8170 O.2    99  THR99      -0.2863
     89  CB         4.4150   -3.5640   -9.0340 C.3    99  THR99       0.1794
     90  OG1        5.0490   -3.3400   -7.7720 O.3    99  THR99      -0.2208
     91  CG2        3.1630   -4.4280   -8.8490 C.3    99  THR99       0.0378
     92  N          2.0320   -3.6610  -14.0190 N.3   101  LYS101     -0.1245
     93  CA         0.7070   -3.0800  -13.8480 C.3   101  LYS101      0.1561
     94  C         -0.2060   -3.4940  -14.9870 C.2   101  LYS101      0.2260
     95  O          0.2240   -3.6830  -16.1270 O.2   101  LYS101     -0.2867
     96  CB         0.7380   -1.5470  -13.7910 C.3   101  LYS101      0.0271
     97  CG         1.8320   -0.8940  -12.9370 C.3   101  LYS101      0.0035
     98  CD         1.6630   -1.1460  -11.4760 C.3   101  LYS101      0.0206
     99  CE         2.6240   -0.2430  -10.6360 C.3   101  LYS101      0.1093
    100  NZ         4.0360   -0.2370  -11.1990 N.3   101  LYS101     -0.1314
    101  N          7.8510   -7.5590   -8.9800 N.3   144  SER144     -0.1217
    102  CA         7.2580   -7.4100   -7.6540 C.3   144  SER144      0.1889
    103  C          5.7930   -7.8220   -7.6730 C.2   144  SER144      0.2288
    104  O          5.0410   -7.4400   -8.5730 O.2   144  SER144     -0.2866
    105  CB         7.3320   -5.9480   -7.1950 C.3   144  SER144      0.2089
    106  OG         8.6830   -5.5180   -7.1180 O.3   144  SER144     -0.2183
    107  N          2.5840   -7.0690   -5.4240 N.3   146  ASP146     -0.1239
    108  CA         2.0910   -6.0900   -4.4700 C.3   146  ASP146      0.1674
    109  C          1.1240   -6.7940   -3.5160 C.2   146  ASP146      0.2266
    110  O          0.3040   -7.5970   -3.9540 O.2   146  ASP146     -0.2867
    111  CB         1.4090   -4.9780   -5.2830 C.3   146  ASP146      0.1410
    112  CG         0.9160   -3.8060   -4.4450 C.2   146  ASP146      0.3668
    113  OD1        1.2240   -2.6520   -4.8100 O.co2 146  ASP146     -0.2456
    114  OD2        0.1960   -4.0130   -3.4640 O.co2 146  ASP146     -0.2456
    115  N         -1.4500   -5.9670   -2.1890 N.3   148  ARG148     -0.1245
    116  CA        -2.8670   -5.7760   -2.4990 C.3   148  ARG148      0.1563
    117  C         -3.4340   -6.7900   -3.4910 C.2   148  ARG148      0.2260
    118  O         -4.6500   -6.7880   -3.7320 O.2   148  ARG148     -0.2867
    119  CB        -3.0750   -4.3670   -3.0640 C.3   148  ARG148      0.0307
    120  CG        -2.7870   -3.2830   -2.0470 C.3   148  ARG148      0.0489
    121  CD        -2.9340   -1.9270   -2.7250 C.3   148  ARG148      0.2205
    122  NE        -1.7920   -1.6480   -3.5940 N.pl3 148  ARG148     -0.0865
    123  CZ        -1.6140   -0.4990   -4.2290 C.cat 148  ARG148      0.5346
    124  NH1       -0.4980   -0.2900   -4.9320 N.pl3 148  ARG148      0.1354
    125  NH2       -2.5580    0.4400   -4.1510 N.pl3 148  ARG148      0.1354
    126  N          6.2410   -7.1900   -2.0270 N.3   175  SER175     -0.1202
    127  CA         6.3880   -5.8460   -1.4690 C.3   175  SER175      0.2020
    128  C          5.0090   -5.2010   -1.4560 C.2   175  SER175      0.2619
    129  O          3.9920   -5.8850   -1.5970 O.2   175  SER175     -0.2717
    130  CB         7.4330   -5.0310   -2.2600 C.3   175  SER175      0.2103
    131  OG         7.1290   -5.0520   -3.6540 O.3   175  SER175     -0.2182
    132  N          4.9650   -3.8870   -1.2890 N.am  176  GLY176     -0.1956
    133  CA         3.7100   -3.1900   -1.1100 C.3   176  GLY176      0.1869
    134  C          3.4150   -2.9910    0.3590 C.2   176  GLY176      0.2309
    135  O          4.2080   -3.3240    1.2440 O.2   176  GLY176     -0.2863
    136  N         10.0440   -8.5960    1.2440 N.3   203  HIS203     -0.1241
    137  CA         9.9970   -7.5630    2.2810 C.3   203  HIS203      0.1621
    138  C          9.4740   -8.1890    3.5650 C.2   203  HIS203      0.2264
    139  O          8.3830   -8.7690    3.5680 O.2   203  HIS203     -0.2867
    140  CB         9.0740   -6.4100    1.8670 C.3   203  HIS203      0.0745
    141  CG         9.6440   -5.4810    0.8350 C.ar  203  HIS203      0.0817
    142  ND1       10.4170   -5.9110   -0.2240 N.ar  203  HIS203     -0.2268
    143  CD2        9.4910   -4.1430    0.6700 C.ar  203  HIS203      0.1154
    144  CE1       10.7400   -4.8760   -0.9800 C.ar  203  HIS203      0.1986
    145  NE2       10.1810   -3.7970   -0.4700 N.ar  203  HIS203     -0.2212
    146  N          8.6190   -5.1690    8.0730 N.3   206  GLU206     -0.1245
    147  CA         8.5360   -3.7130    8.0030 C.3   206  GLU206      0.1567
    148  C          7.6880   -3.1270    9.1290 C.2   206  GLU206      0.2260
    149  O          7.8870   -1.9630    9.5120 O.2   206  GLU206     -0.2867
    150  CB         7.9400   -3.2820    6.6710 C.3   206  GLU206      0.0388
    151  CG         8.9160   -3.3200    5.5390 C.3   206  GLU206      0.1160
    152  CD         8.2560   -2.8740    4.2610 C.2   206  GLU206      0.3649
    153  OE1        8.2630   -1.6550    3.9820 O.co2 206  GLU206     -0.2457
    154  OE2        7.7080   -3.7400    3.5690 O.co2 206  GLU206     -0.2457
    155  N         14.6130   -5.2110    4.5840 N.3   226  HIS226     -0.1241
    156  CA        14.1940   -4.3940    5.7320 C.3   226  HIS226      0.1621
    157  C         14.4990   -5.0620    7.0680 C.2   226  HIS226      0.2264
    158  O         15.5320   -4.7410    7.6670 O.2   226  HIS226     -0.2867
    159  CB        12.7200   -3.9860    5.6330 C.3   226  HIS226      0.0745
    160  CG        12.4600   -2.9670    4.5620 C.ar  226  HIS226      0.0817
    161  ND1       13.0250   -1.7050    4.5840 N.ar  226  HIS226     -0.2268
    162  CD2       11.7500   -3.0420    3.4100 C.ar  226  HIS226      0.1154
    163  CE1       12.6480   -1.0380    3.5050 C.ar  226  HIS226      0.1986
    164  NE2       11.8640   -1.8220    2.7810 N.ar  226  HIS226     -0.2212
    165  N         15.6630    4.9940    4.1790 N.3   251  SER251     -0.1217
    166  CA        14.2560    4.6050    4.2330 C.3   251  SER251      0.1889
    167  C         13.8020    4.3030    5.6640 C.2   251  SER251      0.2288
    168  O         12.7920    4.8360    6.1320 O.2   251  SER251     -0.2866
    169  CB        14.0550    3.3760    3.3410 C.3   251  SER251      0.2089
    170  OG        12.7210    2.9500    3.3610 O.3   251  SER251     -0.2183
    171  N         10.9440    6.6140    7.5760 N.3   255  THR255     -0.1218
    172  CA         9.6220    6.0820    7.8850 C.3   255  THR255      0.1862
    173  C          9.4190    5.8470    9.3760 C.2   255  THR255      0.2287
    174  O          8.3390    5.3920    9.7550 O.2   255  THR255     -0.2866
    175  CB         9.3460    4.7740    7.1280 C.3   255  THR255      0.1770
    176  OG1       10.2740    3.7510    7.5270 O.3   255  THR255     -0.2211
    177  CG2        9.4430    5.0020    5.5980 C.3   255  THR255      0.0375
    178  N         16.4430    1.2860   -1.6690 N.3   281  ASN281     -0.1225
    179  CA        14.9890    1.0770   -1.5780 C.3   281  ASN281      0.1785
    180  C         14.2290    1.9600   -2.5680 C.2   281  ASN281      0.2597
    181  O         13.6930    1.4470   -3.5530 O.2   281  ASN281     -0.2718
    182  CB        14.4830    1.2900   -0.1470 C.3   281  ASN281      0.1169
    183  CG        13.0180    0.9620   -0.0010 C.2   281  ASN281      0.2627
    184  OD1       12.4580    0.1900   -0.7870 O.2   281  ASN281     -0.2716
    185  ND2       12.3860    1.5550    0.9950 N.am  281  ASN281     -0.0877
    186  N         14.1690    3.2800   -2.3200 N.am  282  ASP282     -0.1974
    187  CA        13.4580    4.2210   -3.2020 C.3   282  ASP282      0.1709
    188  C         14.2560    5.5270   -3.1900 C.2   282  ASP282      0.2293
    189  O         13.9500    6.4220   -2.3960 O.2   282  ASP282     -0.2864
    190  CB        12.0270    4.4910   -2.7370 C.3   282  ASP282      0.1436
    191  CG        11.1630    3.2520   -2.6440 C.2   282  ASP282      0.3671
    192  OD1       10.6980    2.7580   -3.6850 O.co2 282  ASP282     -0.2456
    193  OD2       10.8760    2.8100   -1.5000 O.co2 282  ASP282     -0.2456
    194  N         13.0220    8.9090   -1.1440 N.3   286  PHE286     -0.1241
    195  CA        13.7470    9.2340    0.0730 C.3   286  PHE286      0.1605
    196  C         14.9430   10.1400   -0.1700 C.2   286  PHE286      0.2264
    197  O         15.7240   10.3690    0.7620 O.2   286  PHE286     -0.2867
    198  CB        14.1780    7.9570    0.8040 C.3   286  PHE286      0.0534
    199  CG        13.0180    7.1700    1.2970 C.ar  286  PHE286     -0.0203
    200  CD1       12.2410    7.6530    2.3390 C.ar  286  PHE286     -0.0042
    201  CD2       12.6580    5.9750    0.6840 C.ar  286  PHE286     -0.0042
    202  CE1       11.1490    6.9400    2.7830 C.ar  286  PHE286     -0.0003
    203  CE2       11.5750    5.2720    1.1200 C.ar  286  PHE286     -0.0003
    204  CZ        10.8090    5.7560    2.1750 C.ar  286  PHE286     -0.0000
@<TRIPOS>BOND
     1    95    94    2
     2    94    93    1
     3    92    93    1
     4    93    96    1
     5    18    16    1
     6    96    97    1
     7    17    16    1
     8    97    98    1
     9    84    82    1
    10    16    15    1
    11    71    70    2
    12    83    82    1
    13    88    87    2
    14    25    24    2
    15    82    79    1
    16    26    24   am
    17    15    12    1
    18    98    99    1
    19    87    86    1
    20   100    99    1
    21    70    69    1
    22    24    23    1
    23    81    80    2
    24    80    79    1
    25    80    85   am
    26    79    78    1
    27    12    13    1
    28    12    11    1
    29    69    72    1
    30    69    68    1
    31    14    13    2
    32    13    19   am
    33    86    85    1
    34    86    89    1
    35    19    20    1
    36    23    20    1
    37    72    73    1
    38    20    21    1
    39    75    73   ar
    40    75    77   ar
    41    11     3   am
    42    89    91    1
    43    89    90    1
    44    73    74   ar
    45   101   102    1
    46   104   103    2
    47    77    76   ar
    48    21    22    2
    49    21    27   am
    50     3     4    2
    51     3     2    1
    52    74    76   ar
    53   103   102    1
    54   102   105    1
    55    27    28    1
    56   105   106    1
    57     2     1    1
    58     2     5    1
    59    29    28    1
    60    29    30    2
    61    60    59    2
    62     5     6    1
    63   107   108    1
    64   111   108    1
    65   111   112    1
    66    59    58    1
    67   124   123    1
    68   113   112   ar
    69     7     6   ar
    70     7     9   ar
    71     6     8   ar
    72    63    65   ar
    73    63    62   ar
    74   108   109    1
    75   112   114   ar
    76    58    61    1
    77    58    57    1
    78    65    67   ar
    79   123   125    1
    80   123   122    2
    81   110   109    2
    82    61    62    1
    83   118   117    2
    84   192   191   ar
    85   131   130    1
    86     9    10   ar
    87    62    64   ar
    88   122   121    1
    89   181   180    2
    90     8    10   ar
    91   117   116    1
    92   187   188    1
    93   187   190    1
    94   187   186    1
    95   188   189    2
    96   119   116    1
    97   119   120    1
    98    67    66   ar
    99   190   191    1
   100   121   120    1
   101   191   193   ar
   102   180   186   am
   103   180   179    1
   104   116   115    1
   105    64    66   ar
   106   130   127    1
   107   126   127    1
   108   178   179    1
   109   129   128    2
   110    49    48    2
   111   179   182    1
   112   127   128    1
   113   128   132   am
   114   132   133    1
   115   194   195    1
   116   133   134    1
   117   144   145   ar
   118   144   142   ar
   119   184   183    2
   120    42    41    2
   121   145   143   ar
   122    48    47    1
   123   142   141   ar
   124   196   195    1
   125   196   197    2
   126   182   183    1
   127   183   185   am
   128   195   198    1
   129    47    50    1
   130    47    46    1
   131    52    54   ar
   132    52    51   ar
   133   134   135    2
   134   143   141   ar
   135    54    56   ar
   136   201   203   ar
   137   201   199   ar
   138    41    46   am
   139    41    40    1
   140   198   199    1
   141   141   140    1
   142    50    51    1
   143    44    43    1
   144   203   204   ar
   145   136   137    1
   146   199   200   ar
   147    51    53   ar
   148    40    43    1
   149    40    39    1
   150   140   137    1
   151    56    55   ar
   152   204   202   ar
   153    43    45    1
   154   137   138    1
   155   200   202   ar
   156    53    55   ar
   157   164   162   ar
   158   164   163   ar
   159   169   170    1
   160   169   166    1
   161   162   160   ar
   162   163   161   ar
   163   138   139    2
   164   154   152   ar
   165   153   152   ar
   166   165   166    1
   167   166   167    1
   168   152   151    1
   169   160   161   ar
   170   160   159    1
   171   155   156    1
   172    34    33    2
   173   151   150    1
   174   177   175    1
   175   159   156    1
   176   167   168    2
   177   156   157    1
   178    37    36    1
   179    33    32    1
   180    32    31    1
   181    32    35    1
   182    36    35    1
   183    36    38    1
   184   150   147    1
   185   157   158    2
   186   175   176    1
   187   175   172    1
   188   171   172    1
   189   172   173    1
   190   147   146    1
   191   147   148    1
   192   148   149    2
   193   173   174    2
