@<TRIPOS>MOLECULE
tmp/6ijpA00.pdb
 215 204 0 0 0
SMALL
GASTEIGER

@<TRIPOS>ATOM
      1  N        -13.5960   -0.1290    5.6600 N.3    16  HIS16      -0.1226
      2  CA       -12.3170   -0.1210    6.3670 C.3    16  HIS16       0.1752
      3  C        -12.3180    0.9430    7.4610 C.2    16  HIS16       0.2596
      4  O        -12.7170    2.0970    7.2230 O.2    16  HIS16      -0.2718
      5  CB       -11.1470    0.1600    5.3920 C.3    16  HIS16       0.0759
      6  CG       -11.0680   -0.7530    4.2060 C.ar   16  HIS16       0.0818
      7  ND1      -10.2770   -1.8840    4.1780 N.ar   16  HIS16      -0.2268
      8  CD2      -11.6280   -0.6580    2.9640 C.ar   16  HIS16       0.1154
      9  CE1      -10.3710   -2.4620    2.9850 C.ar   16  HIS16       0.1986
     10  NE2      -11.1870   -1.7410    2.2350 N.ar   16  HIS16      -0.2212
     11  N        -11.8790    0.5480    8.6710 N.am   17  LEU17      -0.1966
     12  CA       -11.8720    1.4490    9.8230 C.3    17  LEU17       0.1728
     13  C        -11.1570    2.7680    9.5130 C.2    17  LEU17       0.2616
     14  O        -11.7350    3.8610    9.6530 O.2    17  LEU17      -0.2715
     15  CB       -11.2340    0.7160   11.0290 C.3    17  LEU17       0.0311
     16  CG       -11.0410    1.5820   12.2900 C.3    17  LEU17       0.0022
     17  CD1      -12.3770    2.1980   12.7860 C.3    17  LEU17       0.0001
     18  CD2      -10.3160    0.7730   13.3650 C.3    17  LEU17       0.0001
     19  N         -9.9030    2.6940    9.0700 N.am   18  ASN18      -0.1958
     20  CA        -9.1450    3.9380    8.8910 C.3    18  ASN18       0.1819
     21  C         -9.4870    4.6640    7.5900 C.2    18  ASN18       0.2621
     22  O         -8.9430    5.7430    7.3360 O.2    18  ASN18      -0.2715
     23  CB        -7.6420    3.6710    8.9770 C.3    18  ASN18       0.1195
     24  CG        -7.1700    3.4610   10.4320 C.2    18  ASN18       0.2630
     25  OD1       -6.8450    4.4240   11.1240 O.2    18  ASN18      -0.2716
     26  ND2       -7.1710    2.2130   10.9020 N.am   18  ASN18      -0.0877
     27  N        -10.3810    4.1130    6.7720 N.am   19  GLY19      -0.1954
     28  CA       -10.9660    4.7890    5.6280 C.3    19  GLY19       0.1869
     29  C        -12.2880    5.4350    5.9520 C.2    19  GLY19       0.2309
     30  O        -12.8880    6.0870    5.0870 O.2    19  GLY19      -0.2863
     31  N         -6.3380    5.4080   -7.8110 N.3    55  LEU55      -0.1245
     32  CA        -5.9150    4.1820   -7.1370 C.3    55  LEU55       0.1561
     33  C         -4.5150    4.3040   -6.5360 C.2    55  LEU55       0.2260
     34  O         -4.3290    4.0820   -5.3280 O.2    55  LEU55      -0.2867
     35  CB        -5.9680    3.0050   -8.1100 C.3    55  LEU55       0.0270
     36  CG        -5.9660    1.6580   -7.3850 C.3    55  LEU55       0.0019
     37  CD1       -7.1610    1.5210   -6.4420 C.3    55  LEU55       0.0001
     38  CD2       -5.9930    0.5730   -8.4050 C.3    55  LEU55       0.0001
     39  N         -4.6160    7.0160   -3.6300 N.3    58  VAL58      -0.1231
     40  CA        -5.2960    6.5680   -2.4080 C.3    58  VAL58       0.1692
     41  C         -4.3140    5.9110   -1.4380 C.2    58  VAL58       0.2592
     42  O         -4.4260    6.0890   -0.2200 O.2    58  VAL58      -0.2718
     43  CB        -6.4500    5.6250   -2.7810 C.3    58  VAL58       0.0266
     44  CG1       -6.9190    4.8780   -1.5610 C.3    58  VAL58       0.0020
     45  CG2       -7.5990    6.4020   -3.3250 C.3    58  VAL58       0.0020
     46  N         -3.3530    5.1230   -1.9400 N.am   59  PHE59      -0.1976
     47  CA        -2.4870    4.4130   -0.9940 C.3    59  PHE59       0.1639
     48  C         -1.4320    5.3270   -0.3720 C.2    59  PHE59       0.2290
     49  O         -0.9930    5.0900    0.7740 O.2    59  PHE59      -0.2864
     50  CB        -1.8940    3.1740   -1.6790 C.3    59  PHE59       0.0560
     51  CG        -2.9540    2.1530   -2.0090 C.ar   59  PHE59      -0.0200
     52  CD1       -3.5450    1.3820   -0.9900 C.ar   59  PHE59      -0.0042
     53  CD2       -3.4490    2.0500   -3.2910 C.ar   59  PHE59      -0.0042
     54  CE1       -4.5580    0.4770   -1.2750 C.ar   59  PHE59      -0.0003
     55  CE2       -4.4660    1.1510   -3.5910 C.ar   59  PHE59      -0.0003
     56  CZ        -5.0260    0.3690   -2.5770 C.ar   59  PHE59      -0.0000
     57  N         -3.4160    6.6660    2.4750 N.3    62  PHE62      -0.1241
     58  CA        -3.4900    5.7840    3.6470 C.3    62  PHE62       0.1605
     59  C         -2.1890    5.8010    4.4410 C.2    62  PHE62       0.2264
     60  O         -2.2210    5.7370    5.6780 O.2    62  PHE62      -0.2867
     61  CB        -3.8460    4.3490    3.2500 C.3    62  PHE62       0.0534
     62  CG        -5.2930    4.1690    2.9180 C.ar   62  PHE62      -0.0203
     63  CD1       -6.2620    4.5540    3.8300 C.ar   62  PHE62      -0.0042
     64  CD2       -5.6950    3.6540    1.6940 C.ar   62  PHE62      -0.0042
     65  CE1       -7.6060    4.4050    3.5380 C.ar   62  PHE62      -0.0003
     66  CE2       -7.0550    3.5160    1.4060 C.ar   62  PHE62      -0.0003
     67  CZ        -7.9990    3.9070    2.3480 C.ar   62  PHE62      -0.0000
     68  N         -2.3100    6.6500    8.4140 N.3    66  HIS66      -0.1241
     69  CA        -1.7650    5.7620    9.4300 C.3    66  HIS66       0.1621
     70  C         -0.7240    6.4590   10.2850 C.2    66  HIS66       0.2264
     71  O         -0.5330    6.0880   11.4520 O.2    66  HIS66      -0.2867
     72  CB        -1.1520    4.5280    8.7790 C.3    66  HIS66       0.0745
     73  CG        -2.1770    3.5720    8.2640 C.ar   66  HIS66       0.0817
     74  ND1       -1.9280    2.6980    7.2280 N.ar   66  HIS66      -0.2268
     75  CD2       -3.4620    3.3590    8.6420 C.ar   66  HIS66       0.1154
     76  CE1       -3.0120    1.9780    6.9940 C.ar   66  HIS66       0.1986
     77  NE2       -3.9560    2.3510    7.8430 N.ar   66  HIS66      -0.2212
     78  N        -13.8840   -3.8680    8.9240 N.3    97  ARG97      -0.1231
     79  CA       -12.5980   -4.5290    8.7120 C.3    97  ARG97       0.1694
     80  C        -11.4650   -3.5700    9.0300 C.2    97  ARG97       0.2593
     81  O        -11.5760   -2.3520    8.8160 O.2    97  ARG97      -0.2718
     82  CB       -12.4400   -5.0550    7.2750 C.3    97  ARG97       0.0321
     83  CG       -12.4990   -4.0270    6.1910 C.3    97  ARG97       0.0489
     84  CD       -12.5050   -4.7460    4.7620 C.3    97  ARG97       0.2205
     85  NE       -13.7960   -5.3970    4.5010 N.pl3  97  ARG97      -0.0865
     86  CZ       -14.0350   -6.1780    3.4600 C.cat  97  ARG97       0.5346
     87  NH1      -13.0410   -6.4680    2.5870 N.pl3  97  ARG97       0.1354
     88  NH2      -15.2750   -6.6600    3.2640 N.pl3  97  ARG97       0.1354
     89  N        -10.3970   -4.1230    9.5900 N.am   98  THR98      -0.1939
     90  CA        -9.2360   -3.2770    9.8270 C.3    98  THR98       0.2028
     91  C         -7.9830   -4.1370    9.8250 C.2    98  THR98       0.2642
     92  O         -8.0260   -5.3280   10.1490 O.2    98  THR98      -0.2714
     93  CB        -9.3370   -2.4800   11.1380 C.3    98  THR98       0.1808
     94  OG1       -8.2550   -1.5380   11.2050 O.3    98  THR98      -0.2208
     95  CG2       -9.3290   -3.4240   12.3990 C.3    98  THR98       0.0379
     96  N         -6.8770   -3.5060    9.4050 N.am   99  THR99      -0.1950
     97  CA        -5.5640   -4.1230    9.4020 C.3    99  THR99       0.1897
     98  C         -4.9370   -3.9690   10.7920 C.2    99  THR99       0.2313
     99  O         -4.6850   -2.8280   11.2250 O.2    99  THR99      -0.2863
    100  CB        -4.6750   -3.4490    8.3730 C.3    99  THR99       0.1794
    101  OG1       -5.3670   -3.3140    7.1010 O.3    99  THR99      -0.2208
    102  CG2       -3.4090   -4.2950    8.1560 C.3    99  THR99       0.0378
    103  N         -2.1140   -3.4760   13.3910 N.3   101  LYS101     -0.1245
    104  CA        -0.8370   -2.7960   13.1740 C.3   101  LYS101      0.1561
    105  C          0.1540   -3.1550   14.2620 C.2   101  LYS101      0.2260
    106  O         -0.2150   -3.3140   15.4310 O.2   101  LYS101     -0.2867
    107  CB        -0.9670   -1.2620   13.1810 C.3   101  LYS101      0.0271
    108  CG        -2.0400   -0.6450   12.2560 C.3   101  LYS101      0.0035
    109  CD        -1.7920   -0.9560   10.8330 C.3   101  LYS101      0.0206
    110  CE        -2.8080   -0.2140    9.9110 C.3   101  LYS101      0.1093
    111  NZ        -4.2230   -0.0410   10.4640 N.3   101  LYS101     -0.1314
    112  N         -8.0110   -7.6280    8.5040 N.3   144  SER144     -0.1217
    113  CA        -7.4210   -7.5450    7.1660 C.3   144  SER144      0.1889
    114  C         -5.9460   -7.9280    7.1740 C.2   144  SER144      0.2288
    115  O         -5.1660   -7.4580    8.0050 O.2   144  SER144     -0.2866
    116  CB        -7.5010   -6.1360    6.5820 C.3   144  SER144      0.2089
    117  OG        -8.8380   -5.6790    6.5130 O.3   144  SER144     -0.2183
    118  N         -2.7410   -7.2030    4.8550 N.3   146  ASP146     -0.1239
    119  CA        -2.3260   -6.2090    3.8720 C.3   146  ASP146      0.1674
    120  C         -1.3740   -6.8800    2.8890 C.2   146  ASP146      0.2266
    121  O         -0.5230   -7.6770    3.2910 O.2   146  ASP146     -0.2867
    122  CB        -1.6540   -5.0430    4.6030 C.3   146  ASP146      0.1410
    123  CG        -1.2460   -3.8700    3.6890 C.2   146  ASP146      0.3668
    124  OD1       -1.6820   -2.7400    3.9740 O.co2 146  ASP146     -0.2456
    125  OD2       -0.4460   -4.0310    2.7430 O.co2 146  ASP146     -0.2456
    126  N          1.1710   -6.0490    1.5040 N.3   148  ARG148     -0.1245
    127  CA         2.5950   -5.8500    1.8130 C.3   148  ARG148      0.1563
    128  C          3.1880   -6.9090    2.7470 C.2   148  ARG148      0.2260
    129  O          4.4060   -6.8940    2.9700 O.2   148  ARG148     -0.2867
    130  CB         2.7870   -4.4770    2.4660 C.3   148  ARG148      0.0307
    131  CG         2.6100   -3.3400    1.5190 C.3   148  ARG148      0.0489
    132  CD         2.6700   -2.0150    2.2710 C.3   148  ARG148      0.2205
    133  NE         1.4580   -1.7560    3.0400 N.pl3 148  ARG148     -0.0865
    134  CZ         1.2060   -0.6010    3.6450 C.cat 148  ARG148      0.5346
    135  NH1        0.0670   -0.4230    4.3100 N.pl3 148  ARG148      0.1354
    136  NH2        2.1080    0.3750    3.5800 N.pl3 148  ARG148      0.1354
    137  N         -6.5210   -7.2170    1.6140 N.3   175  SER175     -0.1202
    138  CA        -6.6750   -5.8980    1.0100 C.3   175  SER175      0.2020
    139  C         -5.3040   -5.2270    0.9770 C.2   175  SER175      0.2619
    140  O         -4.2720   -5.8940    1.1290 O.2   175  SER175     -0.2717
    141  CB        -7.7610   -5.0820    1.7610 C.3   175  SER175      0.2103
    142  OG        -7.4110   -4.7800    3.1080 O.3   175  SER175     -0.2182
    143  N         -5.2810   -3.9110    0.7670 N.am  176  GLY176     -0.1956
    144  CA        -4.0210   -3.2120    0.5200 C.3   176  GLY176      0.1869
    145  C         -3.7860   -3.0360   -0.9700 C.2   176  GLY176      0.2309
    146  O         -4.6140   -3.3860   -1.8140 O.2   176  GLY176     -0.2863
    147  N        -10.4180   -8.7340   -1.5660 N.3   203  HIS203     -0.1241
    148  CA       -10.3540   -7.7260   -2.6240 C.3   203  HIS203      0.1621
    149  C         -9.8660   -8.3950   -3.9110 C.2   203  HIS203      0.2264
    150  O         -8.7710   -8.9610   -3.9290 O.2   203  HIS203     -0.2867
    151  CB        -9.3920   -6.5880   -2.2300 C.3   203  HIS203      0.0745
    152  CG       -10.0120   -5.5960   -1.2930 C.ar  203  HIS203      0.0817
    153  ND1      -10.3730   -5.9310    0.0070 N.ar  203  HIS203     -0.2268
    154  CD2      -10.3240   -4.2810   -1.4470 C.ar  203  HIS203      0.1154
    155  CE1      -10.8770   -4.8610    0.6060 C.ar  203  HIS203      0.1986
    156  NE2      -10.8200   -3.8380   -0.2280 N.ar  203  HIS203     -0.2212
    157  N         -9.2030   -5.5980   -8.4820 N.3   206  GLU206     -0.1245
    158  CA        -9.1600   -4.1290   -8.4110 C.3   206  GLU206      0.1567
    159  C         -8.3130   -3.5300   -9.5270 C.2   206  GLU206      0.2260
    160  O         -8.5060   -2.3640   -9.8850 O.2   206  GLU206     -0.2867
    161  CB        -8.5860   -3.6470   -7.0760 C.3   206  GLU206      0.0388
    162  CG        -9.3950   -3.9880   -5.8540 C.3   206  GLU206      0.1160
    163  CD        -8.7470   -3.3190   -4.6160 C.2   206  GLU206      0.3649
    164  OE1       -9.2300   -2.2430   -4.2070 O.co2 206  GLU206     -0.2457
    165  OE2       -7.7490   -3.8490   -4.1110 O.co2 206  GLU206     -0.2457
    166  N        -15.3810   -5.9190   -5.0560 N.3   226  HIS226     -0.1241
    167  CA       -15.1810   -5.1260   -6.2980 C.3   226  HIS226      0.1621
    168  C        -15.2940   -5.8120   -7.6450 C.2   226  HIS226      0.2264
    169  O        -16.2690   -5.5140   -8.3720 O.2   226  HIS226     -0.2867
    170  CB       -13.8480   -4.4140   -6.2110 C.3   226  HIS226      0.0745
    171  CG       -13.8380   -3.5280   -5.0440 C.ar  226  HIS226      0.0817
    172  ND1      -15.0110   -2.9390   -4.6300 N.ar  226  HIS226     -0.2268
    173  CD2      -12.8990   -3.2400   -4.1110 C.ar  226  HIS226      0.1154
    174  CE1      -14.7750   -2.2750   -3.5170 C.ar  226  HIS226      0.1986
    175  NE2      -13.5110   -2.4400   -3.1760 N.ar  226  HIS226     -0.2212
    176  N        -16.3780    4.5470   -4.4780 N.3   251  SER251     -0.1217
    177  CA       -14.9670    4.1940   -4.4830 C.3   251  SER251      0.1889
    178  C        -14.4930    3.8120   -5.8970 C.2   251  SER251      0.2288
    179  O        -13.4810    4.3260   -6.3890 O.2   251  SER251     -0.2866
    180  CB       -14.7560    3.0610   -3.4850 C.3   251  SER251      0.2089
    181  OG       -13.4900    2.4990   -3.6160 O.3   251  SER251     -0.2183
    182  N        -11.8580    6.2190   -7.9630 N.3   255  THR255     -0.1218
    183  CA       -10.5140    5.7400   -8.2620 C.3   255  THR255      0.1862
    184  C        -10.3050    5.5150   -9.7620 C.2   255  THR255      0.2287
    185  O         -9.2100    5.1240  -10.1550 O.2   255  THR255     -0.2866
    186  CB       -10.2290    4.4300   -7.5240 C.3   255  THR255      0.1770
    187  OG1      -11.1980    3.4530   -7.9280 O.3   255  THR255     -0.2211
    188  CG2      -10.2810    4.6120   -5.9620 C.3   255  THR255      0.0375
    189  N        -16.9180    1.1450    1.3600 N.3   281  ASP281     -0.1225
    190  CA       -15.4770    0.9440    1.2110 C.3   281  ASP281      0.1805
    191  C        -14.7110    1.8450    2.1870 C.2   281  ASP281      0.2597
    192  O        -14.1100    1.3610    3.1460 O.2   281  ASP281     -0.2718
    193  CB       -15.0230    1.1720   -0.2480 C.3   281  ASP281      0.1424
    194  CG       -13.6980    0.4880   -0.5580 C.2   281  ASP281      0.3668
    195  OD1      -13.1800   -0.2520    0.3240 O.co2 281  ASP281     -0.2456
    196  OD2      -13.1500    0.6960   -1.6810 O.co2 281  ASP281     -0.2456
    197  N        -14.7070    3.1640    1.9380 N.am  282  ASP282     -0.1974
    198  CA       -13.9790    4.1290    2.7560 C.3   282  ASP282      0.1709
    199  C        -14.8280    5.4000    2.7670 C.2   282  ASP282      0.2293
    200  O        -14.5890    6.3110    1.9880 O.2   282  ASP282     -0.2864
    201  CB       -12.5840    4.4470    2.2110 C.3   282  ASP282      0.1436
    202  CG       -11.7060    3.2280    2.1020 C.2   282  ASP282      0.3671
    203  OD1      -11.1700    2.8250    3.1290 O.co2 282  ASP282     -0.2456
    204  OD2      -11.5280    2.6870    0.9730 O.co2 282  ASP282     -0.2456
    205  N        -13.7660    8.8270    0.7260 N.3   286  PHE286     -0.1241
    206  CA       -14.5220    9.0890   -0.4980 C.3   286  PHE286      0.1605
    207  C        -15.7390    9.9700   -0.2760 C.2   286  PHE286      0.2264
    208  O        -16.5540   10.1210   -1.1970 O.2   286  PHE286     -0.2867
    209  CB       -14.9530    7.7800   -1.1870 C.3   286  PHE286      0.0534
    210  CG       -13.7920    6.9890   -1.7140 C.ar  286  PHE286     -0.0203
    211  CD1      -13.0010    7.5050   -2.7230 C.ar  286  PHE286     -0.0042
    212  CD2      -13.4960    5.7320   -1.2000 C.ar  286  PHE286     -0.0042
    213  CE1      -11.9170    6.7860   -3.2110 C.ar  286  PHE286     -0.0003
    214  CE2      -12.3830    5.0150   -1.6580 C.ar  286  PHE286     -0.0003
    215  CZ       -11.6020    5.5440   -2.6710 C.ar  286  PHE286     -0.0000
@<TRIPOS>BOND
     1   185   184    2
     2   160   159    2
     3   184   183    1
     4   159   158    1
     5   157   158    1
     6   158   161    1
     7    38    36    1
     8   169   168    2
     9   183   182    1
    10   183   186    1
    11    35    36    1
    12    35    32    1
    13   187   186    1
    14    31    32    1
    15   168   167    1
    16   186   188    1
    17    36    37    1
    18    32    33    1
    19   161   162    1
    20    33    34    2
    21   179   178    2
    22   167   170    1
    23   167   166    1
    24   170   171    1
    25   178   177    1
    26   162   163    1
    27   171   172   ar
    28   171   173   ar
    29   172   174   ar
    30   163   164   ar
    31   163   165   ar
    32   177   176    1
    33   177   180    1
    34   173   175   ar
    35   150   149    2
    36   149   148    1
    37    39    40    1
    38   181   180    1
    39    55    53   ar
    40    55    56   ar
    41   174   175   ar
    42    45    43    1
    43    53    51   ar
    44   213   211   ar
    45   213   215   ar
    46    43    40    1
    47    43    44    1
    48   211   210   ar
    49   215   214   ar
    50   148   151    1
    51   148   147    1
    52    56    54   ar
    53    40    41    1
    54   151   152    1
    55    51    50    1
    56    51    52   ar
    57    46    41   am
    58    46    47    1
    59   146   145    2
    60   210   212   ar
    61   210   209    1
    62   196   194   ar
    63    50    47    1
    64   214   212   ar
    65   154   152   ar
    66   154   156   ar
    67    41    42    2
    68   152   153   ar
    69    54    52   ar
    70   208   207    2
    71   209   206    1
    72    47    48    1
    73   145   144    1
    74   194   193    1
    75   194   195   ar
    76   206   207    1
    77   206   205    1
    78    48    49    2
    79   193   190    1
    80   156   155   ar
    81   153   155   ar
    82   144   143    1
    83   143   139   am
    84   204   202   ar
    85   139   138    1
    86   139   140    2
    87   138   137    1
    88   138   141    1
    89   190   189    1
    90   190   191    1
    91    66    64   ar
    92    66    67   ar
    93   126   127    1
    94   131   132    1
    95   131   130    1
    96    64    62   ar
    97   141   142    1
    98   127   130    1
    99   127   128    1
   100   197   191   am
   101   197   198    1
   102   200   199    2
   103   202   201    1
   104   202   203   ar
   105   191   192    2
   106   201   198    1
   107    10     8   ar
   108    10     9   ar
   109   132   133    1
   110    67    65   ar
   111    57    58    1
   112    87    86    1
   113   125   123   ar
   114   128   129    2
   115   198   199    1
   116   120   121    2
   117   120   119    1
   118    62    61    1
   119    62    63   ar
   120     8     6   ar
   121     9     7   ar
   122   133   134    2
   123    61    58    1
   124    88    86    1
   125    86    85    2
   126    65    63   ar
   127   136   134    1
   128   134   135    1
   129    58    59    1
   130   123   124   ar
   131   123   122    1
   132   119   122    1
   133   119   118    1
   134     7     6   ar
   135     6     5    1
   136    59    60    2
   137    85    84    1
   138    84    83    1
   139    30    29    2
   140     5     2    1
   141    28    29    1
   142    28    27    1
   143     1     2    1
   144    83    82    1
   145     2     3    1
   146   117   116    1
   147   116   113    1
   148    27    21   am
   149    76    74   ar
   150    76    77   ar
   151   101   100    1
   152   113   114    1
   153   113   112    1
   154   114   115    2
   155     4     3    2
   156    74    73   ar
   157    82    79    1
   158    22    21    2
   159     3    11   am
   160    21    20    1
   161    77    75   ar
   162   102   100    1
   163    73    75   ar
   164    73    72    1
   165   100    97    1
   166    68    69    1
   167    11    12    1
   168    79    78    1
   169    79    80    1
   170    72    69    1
   171    81    80    2
   172    20    23    1
   173    20    19    1
   174    23    24    1
   175    80    89   am
   176    19    13   am
   177    97    96    1
   178    97    98    1
   179    96    91   am
   180    69    70    1
   181    13    14    2
   182    13    12    1
   183    89    90    1
   184    12    15    1
   185    91    90    1
   186    91    92    2
   187    90    93    1
   188   110   111    1
   189   110   109    1
   190    70    71    2
   191    24    26   am
   192    24    25    2
   193    98    99    2
   194   109   108    1
   195    15    16    1
   196    93    94    1
   197    93    95    1
   198   108   107    1
   199    16    17    1
   200    16    18    1
   201   104   107    1
   202   104   103    1
   203   104   105    1
   204   105   106    2
