@<TRIPOS>MOLECULE
tmp/6ik6A01.pdb
 156 153 0 0 0
SMALL
GASTEIGER

@<TRIPOS>ATOM
      1  N        -11.5190  -27.5320  -34.7330 N.3    53  TYR53      -0.1241
      2  CA       -11.1820  -28.7060  -35.5290 C.3    53  TYR53       0.1605
      3  C        -10.3380  -28.3000  -36.7380 C.2    53  TYR53       0.2264
      4  O        -10.2520  -27.1300  -37.1080 O.2    53  TYR53      -0.2867
      5  CB       -12.4500  -29.4130  -36.0270 C.3    53  TYR53       0.0534
      6  CG       -13.1490  -30.3080  -35.0300 C.ar   53  TYR53      -0.0201
      7  CD1      -12.5340  -31.4670  -34.5500 C.ar   53  TYR53      -0.0009
      8  CD2      -14.4360  -30.0180  -34.5890 C.ar   53  TYR53      -0.0009
      9  CE1      -13.1710  -32.3060  -33.6450 C.ar   53  TYR53       0.0417
     10  CE2      -15.0870  -30.8490  -33.6750 C.ar   53  TYR53       0.0417
     11  CZ       -14.4470  -31.9900  -33.2040 C.ar   53  TYR53       0.1957
     12  OH       -15.0800  -32.8160  -32.2930 O.3    53  TYR53      -0.2866
     13  N        -13.8300  -35.7510  -37.5590 N.3    96  VAL96      -0.1231
     14  CA       -14.1340  -34.6560  -36.6420 C.3    96  VAL96       0.1692
     15  C        -15.6090  -34.6350  -36.2650 C.2    96  VAL96       0.2592
     16  O        -16.0310  -33.8420  -35.4110 O.2    96  VAL96      -0.2718
     17  CB       -13.7110  -33.2960  -37.2300 C.3    96  VAL96       0.0266
     18  CG1      -12.1810  -33.2160  -37.4010 C.3    96  VAL96       0.0020
     19  CG2      -14.4370  -33.0270  -38.5270 C.3    96  VAL96       0.0020
     20  N        -16.3980  -35.5110  -36.8810 N.am   97  CYS97      -0.1956
     21  CA       -17.8350  -35.4450  -36.6930 C.3    97  CYS97       0.1843
     22  C        -18.2850  -34.0310  -37.0280 C.2    97  CYS97       0.2625
     23  O        -18.4700  -33.7070  -38.2010 O.2    97  CYS97      -0.2714
     24  CB       -18.2070  -35.8490  -35.2650 C.3    97  CYS97       0.0997
     25  SG       -19.9270  -36.2500  -35.0190 S.3    97  CYS97      -0.0797
     26  N        -18.4590  -33.1910  -36.0120 N.am   98  ALA98      -0.1963
     27  CA       -18.6430  -31.7450  -36.1260 C.3    98  ALA98       0.1728
     28  C        -19.9160  -31.3200  -36.8600 C.2    98  ALA98       0.2616
     29  O        -20.0930  -30.1250  -37.1200 O.2    98  ALA98      -0.2715
     30  CB       -17.4280  -31.0880  -36.7980 C.3    98  ALA98       0.0334
     31  N        -20.8140  -32.2440  -37.2000 N.am   99  GLU99      -0.1977
     32  CA       -21.9400  -31.9460  -38.0990 C.3    99  GLU99       0.1602
     33  C        -21.4290  -31.4070  -39.4360 C.2    99  GLU99       0.2287
     34  O        -22.0400  -30.5480  -40.0790 O.2    99  GLU99      -0.2864
     35  CB       -22.9470  -30.9830  -37.4640 C.3    99  GLU99       0.0415
     36  CG       -23.9250  -31.6590  -36.5470 C.3    99  GLU99       0.1163
     37  CD       -23.3350  -31.9560  -35.1800 C.2    99  GLU99       0.3649
     38  OE1      -22.9080  -30.9950  -34.4830 O.co2  99  GLU99      -0.2457
     39  OE2      -23.3120  -33.1560  -34.8050 O.co2  99  GLU99      -0.2457
     40  N        -11.5260  -38.5350  -33.0930 N.3   159  ASN159     -0.1225
     41  CA       -12.5370  -37.7840  -32.3390 C.3   159  ASN159      0.1785
     42  C        -13.6110  -38.7370  -31.8440 C.2   159  ASN159      0.2597
     43  O        -14.3360  -39.3210  -32.6550 O.2   159  ASN159     -0.2718
     44  CB       -13.1740  -36.6880  -33.1760 C.3   159  ASN159      0.1169
     45  CG       -14.0850  -35.7940  -32.3550 C.2   159  ASN159      0.2627
     46  OD1      -13.6180  -35.0160  -31.5300 O.2   159  ASN159     -0.2716
     47  ND2      -15.3830  -35.9070  -32.5660 N.am  159  ASN159     -0.0877
     48  N        -13.7330  -38.8660  -30.5240 N.am  160  ALA160     -0.1979
     49  CA       -14.7080  -39.7580  -29.9000 C.3   160  ALA160      0.1597
     50  C        -14.7130  -41.1440  -30.5570 C.2   160  ALA160      0.2287
     51  O        -15.7610  -41.7490  -30.8020 O.2   160  ALA160     -0.2864
     52  CB       -16.0980  -39.1280  -29.9080 C.3   160  ALA160      0.0319
     53  N        -16.6340  -45.1340  -28.5620 N.3   163  PRO163     -0.2116
     54  CA       -17.8280  -45.9220  -28.9060 C.3   163  PRO163      0.1372
     55  C        -17.7320  -46.6600  -30.2300 C.2   163  PRO163      0.2244
     56  O        -18.2840  -47.7590  -30.3340 O.2   163  PRO163     -0.2868
     57  CB       -18.9410  -44.8680  -28.9270 C.3   163  PRO163      0.0268
     58  CG       -18.5040  -43.8740  -27.9500 C.3   163  PRO163      0.0207
     59  CD       -17.0000  -43.7870  -28.0930 C.3   163  PRO163      0.0892
     60  N        -13.6260  -39.2190  -25.3950 N.3   196  LYS196     -0.1245
     61  CA       -14.3190  -40.4950  -25.3310 C.3   196  LYS196      0.1561
     62  C        -13.3810  -41.6290  -25.7490 C.2   196  LYS196      0.2260
     63  O        -13.5810  -42.3190  -26.7420 O.2   196  LYS196     -0.2867
     64  CB       -15.5910  -40.4670  -26.1830 C.3   196  LYS196      0.0271
     65  CG       -16.6840  -39.5650  -25.6410 C.3   196  LYS196      0.0035
     66  CD       -18.1020  -40.0740  -25.9980 C.3   196  LYS196      0.0206
     67  CE       -19.1630  -38.9220  -25.9730 C.3   196  LYS196      0.1093
     68  NZ       -20.0750  -38.8460  -24.7540 N.3   196  LYS196     -0.1314
     69  N        -16.8550  -35.3860  -23.5510 N.3   209  ASN209     -0.1240
     70  CA       -17.8300  -34.4610  -24.1000 C.3   209  ASN209      0.1653
     71  C        -19.1770  -34.7150  -23.4520 C.2   209  ASN209      0.2266
     72  O        -19.4810  -35.8380  -23.0540 O.2   209  ASN209     -0.2867
     73  CB       -17.9860  -34.6210  -25.6220 C.3   209  ASN209      0.1155
     74  CG       -16.6560  -34.6860  -26.3520 C.2   209  ASN209      0.2627
     75  OD1      -15.7940  -33.8320  -26.1540 O.2   209  ASN209     -0.2716
     76  ND2      -16.5140  -35.6560  -27.2550 N.am  209  ASN209     -0.0877
     77  N        -15.9530  -30.7560  -24.6160 N.3   229  GLU229     -0.1245
     78  CA       -17.1620  -30.2880  -25.3000 C.3   229  GLU229      0.1567
     79  C        -18.2720  -30.0780  -24.2610 C.2   229  GLU229      0.2260
     80  O        -19.0580  -30.9850  -23.9790 O.2   229  GLU229     -0.2867
     81  CB       -17.6130  -31.2570  -26.3850 C.3   229  GLU229      0.0388
     82  CG       -16.8080  -31.3090  -27.6930 C.3   229  GLU229      0.1160
     83  CD       -17.3030  -32.4030  -28.6720 C.2   229  GLU229      0.3649
     84  OE1      -18.5280  -32.6660  -28.7460 O.co2 229  GLU229     -0.2457
     85  OE2      -16.4640  -32.9990  -29.3700 O.co2 229  GLU229     -0.2457
     86  N        -21.5900  -28.8760  -24.2230 N.3   231  TRP231     -0.1241
     87  CA       -22.5760  -28.6730  -25.2840 C.3   231  TRP231      0.1605
     88  C        -23.4600  -27.4870  -24.9250 C.2   231  TRP231      0.2264
     89  O        -24.2970  -27.5750  -24.0180 O.2   231  TRP231     -0.2867
     90  CB       -23.3930  -29.9460  -25.4960 C.3   231  TRP231      0.0550
     91  CG       -22.5810  -31.0420  -26.1400 C.ar  231  TRP231      0.0003
     92  CD1      -21.4390  -30.8980  -26.9000 C.ar  231  TRP231      0.0946
     93  CD2      -22.8220  -32.4500  -26.0550 C.ar  231  TRP231      0.0152
     94  NE1      -20.9700  -32.1300  -27.2930 N.ar  231  TRP231     -0.2442
     95  CE2      -21.8020  -33.0970  -26.7910 C.ar  231  TRP231      0.0810
     96  CE3      -23.8130  -33.2280  -25.4430 C.ar  231  TRP231      0.0012
     97  CZ2      -21.7490  -34.4790  -26.9250 C.ar  231  TRP231      0.0191
     98  CZ3      -23.7550  -34.5880  -25.5800 C.ar  231  TRP231      0.0001
     99  CH2      -22.7280  -35.2040  -26.3110 C.ar  231  TRP231      0.0015
    100  N        -27.5610  -27.3070  -29.0770 N.3   234  TRP234     -0.1227
    101  CA       -27.5350  -28.4260  -30.0070 C.3   234  TRP234      0.1737
    102  C        -27.4900  -27.8430  -31.4010 C.2   234  TRP234      0.2595
    103  O        -27.5910  -26.6340  -31.5760 O.2   234  TRP234     -0.2718
    104  CB       -28.7510  -29.3280  -29.8110 C.3   234  TRP234      0.0564
    105  CG       -28.6040  -30.7460  -30.2670 C.ar  234  TRP234      0.0003
    106  CD1      -29.4220  -31.4050  -31.1350 C.ar  234  TRP234      0.0946
    107  CD2      -27.6260  -31.7010  -29.8360 C.ar  234  TRP234      0.0152
    108  NE1      -29.0150  -32.7110  -31.2830 N.ar  234  TRP234     -0.2442
    109  CE2      -27.9160  -32.9210  -30.4920 C.ar  234  TRP234      0.0810
    110  CE3      -26.5290  -31.6490  -28.9680 C.ar  234  TRP234      0.0012
    111  CZ2      -27.1460  -34.0650  -30.3120 C.ar  234  TRP234      0.0191
    112  CZ3      -25.7660  -32.7830  -28.8000 C.ar  234  TRP234      0.0001
    113  CH2      -26.0770  -33.9710  -29.4650 C.ar  234  TRP234      0.0015
    114  N        -27.3570  -28.7100  -32.3980 N.am  235  TYR235     -0.1976
    115  CA       -27.3760  -28.2640  -33.7840 C.3   235  TYR235      0.1639
    116  C        -28.8100  -28.1870  -34.3220 C.2   235  TYR235      0.2290
    117  O        -29.7370  -28.7840  -33.7750 O.2   235  TYR235     -0.2864
    118  CB       -26.5210  -29.1940  -34.6470 C.3   235  TYR235      0.0560
    119  CG       -26.9170  -30.6300  -34.5840 C.ar  235  TYR235     -0.0198
    120  CD1      -26.4540  -31.4610  -33.5710 C.ar  235  TYR235     -0.0009
    121  CD2      -27.7510  -31.1660  -35.5350 C.ar  235  TYR235     -0.0009
    122  CE1      -26.8070  -32.8100  -33.5150 C.ar  235  TYR235      0.0417
    123  CE2      -28.1210  -32.5090  -35.4910 C.ar  235  TYR235      0.0417
    124  CZ       -27.6520  -33.3250  -34.4770 C.ar  235  TYR235      0.1957
    125  OH       -28.0400  -34.6410  -34.4530 O.3   235  TYR235     -0.2866
    126  N        -18.8180  -26.0440  -26.4700 N.3   268  TYR268     -0.1241
    127  CA       -19.0900  -26.4180  -27.8590 C.3   268  TYR268      0.1605
    128  C        -20.5430  -26.0710  -28.1750 C.2   268  TYR268      0.2264
    129  O        -21.4590  -26.6610  -27.5870 O.2   268  TYR268     -0.2867
    130  CB       -18.8310  -27.9110  -28.0880 C.3   268  TYR268      0.0534
    131  CG       -18.8820  -28.3350  -29.5450 C.ar  268  TYR268     -0.0201
    132  CD1      -20.0800  -28.3030  -30.2550 C.ar  268  TYR268     -0.0009
    133  CD2      -17.7310  -28.7670  -30.2150 C.ar  268  TYR268     -0.0009
    134  CE1      -20.1370  -28.6730  -31.5780 C.ar  268  TYR268      0.0417
    135  CE2      -17.7840  -29.1440  -31.5540 C.ar  268  TYR268      0.0417
    136  CZ       -18.9970  -29.0910  -32.2260 C.ar  268  TYR268      0.1957
    137  OH       -19.0870  -29.4590  -33.5390 O.3   268  TYR268     -0.2866
    138  N        -26.5240  -22.9810  -32.6620 N.3   291  TYR291     -0.1241
    139  CA       -26.1670  -23.8330  -31.5520 C.3   291  TYR291      0.1605
    140  C        -26.4750  -23.2010  -30.2110 C.2   291  TYR291      0.2264
    141  O        -26.0250  -23.7280  -29.1880 O.2   291  TYR291     -0.2867
    142  CB       -24.6870  -24.2100  -31.6190 C.3   291  TYR291      0.0534
    143  CG       -24.3690  -25.6270  -31.3090 C.ar  291  TYR291     -0.0201
    144  CD1      -24.3570  -26.0910  -29.9870 C.ar  291  TYR291     -0.0009
    145  CD2      -24.0600  -26.5140  -32.3340 C.ar  291  TYR291     -0.0009
    146  CE1      -24.0520  -27.4090  -29.7030 C.ar  291  TYR291      0.0417
    147  CE2      -23.7460  -27.8260  -32.0700 C.ar  291  TYR291      0.0417
    148  CZ       -23.7410  -28.2670  -30.7540 C.ar  291  TYR291      0.1957
    149  OH       -23.4180  -29.5670  -30.5140 O.3   291  TYR291     -0.2866
    150  N        -21.4780  -39.2820  -38.7330 N.3   527  VAL527     -0.1245
    151  CA       -21.4170  -39.9540  -37.4390 C.3   527  VAL527      0.1561
    152  C        -22.1290  -41.3010  -37.5170 C.2   527  VAL527      0.2260
    153  O        -23.2100  -41.4160  -38.1120 O.2   527  VAL527     -0.2867
    154  CB       -22.0140  -39.0700  -36.3220 C.3   527  VAL527      0.0252
    155  CG1      -23.5030  -39.0070  -36.4260 C.3   527  VAL527      0.0019
    156  CG2      -21.5750  -39.5710  -34.9480 C.3   527  VAL527      0.0019
@<TRIPOS>BOND
     1    34    33    2
     2    33    32    1
     3   150   151    1
     4    19    17    1
     5    23    22    2
     6   153   152    2
     7    32    35    1
     8    32    31    1
     9    13    14    1
    10   152   151    1
    11    35    36    1
    12   151   154    1
    13    18    17    1
    14    17    14    1
    15    31    28   am
    16    29    28    2
    17     4     3    2
    18    22    21    1
    19    22    26   am
    20    20    21    1
    21    20    15   am
    22    28    27    1
    23    30    27    1
    24     3     2    1
    25    21    24    1
    26    14    15    1
    27    36    37    1
    28   155   154    1
    29   154   156    1
    30    15    16    2
    31    27    26    1
    32     5     2    1
    33     5     6    1
    34   121   123   ar
    35   121   119   ar
    36     2     1    1
    37   123   124   ar
    38    24    25    1
    39    37    39   ar
    40    37    38   ar
    41     6     8   ar
    42     6     7   ar
    43   118   119    1
    44   118   115    1
    45     8    10   ar
    46   119   120   ar
    47     7     9   ar
    48   124   125    1
    49   124   122   ar
    50   116   115    1
    51   116   117    2
    52   115   114    1
    53    10    11   ar
    54     9    11   ar
    55   120   122   ar
    56   137   136    1
    57    11    12    1
    58    44    45    1
    59    44    41    1
    60    40    41    1
    61   138   139    1
    62    43    42    2
    63    47    45   am
    64   114   102   am
    65    45    46    2
    66    41    42    1
    67   145   147   ar
    68   145   143   ar
    69   136   134   ar
    70   136   135   ar
    71   147   148   ar
    72    42    48   am
    73   142   139    1
    74   142   143    1
    75   134   132   ar
    76   103   102    2
    77   135   133   ar
    78   139   140    1
    79   102   101    1
    80   143   144   ar
    81   108   106   ar
    82   108   109   ar
    83   106   105   ar
    84    51    50    2
    85   148   149    1
    86   148   146   ar
    87    50    49    1
    88    48    49    1
    89   109   111   ar
    90   109   107   ar
    91    56    55    2
    92   111   113   ar
    93   105   107   ar
    94   105   104    1
    95   132   131   ar
    96    55    54    1
    97   133   131   ar
    98   140   141    2
    99   101   104    1
   100   101   100    1
   101   144   146   ar
   102    52    49    1
   103   107   110   ar
   104   131   130    1
   105   113   112   ar
   106    85    83   ar
   107   110   112   ar
   108    57    54    1
   109    57    58    1
   110    54    53    1
   111    84    83   ar
   112    83    82    1
   113    53    59    1
   114   128   127    1
   115   128   129    2
   116    59    58    1
   117   130   127    1
   118   127   126    1
   119    82    81    1
   120    94    92   ar
   121    94    95   ar
   122    76    74   am
   123    97    95   ar
   124    97    99   ar
   125    92    91   ar
   126    95    93   ar
   127    63    62    2
   128    81    78    1
   129    74    75    2
   130    74    73    1
   131    99    98   ar
   132    64    65    1
   133    64    61    1
   134    91    93   ar
   135    91    90    1
   136    93    96   ar
   137    66    67    1
   138    66    65    1
   139    67    68    1
   140    62    61    1
   141    73    70    1
   142    98    96   ar
   143    90    87    1
   144    60    61    1
   145    78    77    1
   146    78    79    1
   147    87    88    1
   148    87    86    1
   149    88    89    2
   150    79    80    2
   151    70    69    1
   152    70    71    1
   153    71    72    2
