@<TRIPOS>MOLECULE
tmp/6ik8A02.pdb
 133 131 0 0 0
SMALL
GASTEIGER

@<TRIPOS>ATOM
      1  N         -7.6640  -25.5620   32.4690 N.3    53  TYR53      -0.1241
      2  CA        -8.2940  -26.5720   31.6390 C.3    53  TYR53       0.1605
      3  C         -7.4800  -26.7480   30.3590 C.2    53  TYR53       0.2264
      4  O         -6.6350  -25.9230   30.0210 O.2    53  TYR53      -0.2867
      5  CB        -9.7250  -26.1600   31.2850 C.3    53  TYR53       0.0534
      6  CG       -10.7390  -26.2470   32.4030 C.ar   53  TYR53      -0.0201
      7  CD1      -10.9570  -27.4340   33.0950 C.ar   53  TYR53      -0.0009
      8  CD2      -11.5380  -25.1570   32.7140 C.ar   53  TYR53      -0.0009
      9  CE1      -11.9060  -27.5150   34.0950 C.ar   53  TYR53       0.0417
     10  CE2      -12.5020  -25.2240   33.7030 C.ar   53  TYR53       0.0417
     11  CZ       -12.6830  -26.4090   34.4010 C.ar   53  TYR53       0.1957
     12  OH       -13.6260  -26.4840   35.3890 O.3    53  TYR53      -0.2866
     13  N        -16.5550  -27.6320   30.9000 N.3    97  CYS97      -0.1221
     14  CA       -17.5280  -26.6130   31.2810 C.3    97  CYS97       0.1808
     15  C        -16.9780  -25.2230   30.9690 C.2    97  CYS97       0.2601
     16  O        -17.1030  -24.7590   29.8460 O.2    97  CYS97      -0.2717
     17  CB       -17.9340  -26.7010   32.7480 C.3    97  CYS97       0.0970
     18  SG       -19.3920  -25.6800   33.1110 S.3    97  CYS97      -0.0800
     19  N        -16.4500  -24.5360   31.9950 N.am   98  ALA98      -0.1965
     20  CA       -15.5930  -23.3680   31.8380 C.3    98  ALA98       0.1728
     21  C        -16.3050  -22.1930   31.1690 C.2    98  ALA98       0.2616
     22  O        -15.6260  -21.2630   30.7610 O.2    98  ALA98      -0.2715
     23  CB       -14.3730  -23.7700   31.0480 C.3    98  ALA98       0.0334
     24  N        -17.6400  -22.2250   31.0560 N.am   99  GLU99      -0.1977
     25  CA       -18.4030  -21.2250   30.3170 C.3    99  GLU99       0.1602
     26  C        -17.8790  -21.1160   28.8870 C.2    99  GLU99       0.2287
     27  O        -17.9060  -20.0480   28.2620 O.2    99  GLU99      -0.2864
     28  CB       -18.3560  -19.8760   31.0200 C.3    99  GLU99       0.0415
     29  CG       -19.3840  -19.7790   32.1110 C.3    99  GLU99       0.1163
     30  CD       -18.9800  -20.3540   33.4540 C.2    99  GLU99       0.3649
     31  OE1      -17.8620  -20.0360   33.9480 O.co2  99  GLU99      -0.2457
     32  OE2      -19.8210  -21.0800   34.0180 O.co2  99  GLU99      -0.2457
     33  N        -15.1410  -33.2700   34.5660 N.3   159  ASN159     -0.1225
     34  CA       -15.3570  -32.0260   35.2900 C.3   159  ASN159      0.1785
     35  C        -16.7720  -31.9980   35.8700 C.2   159  ASN159      0.2597
     36  O        -17.7350  -31.9760   35.1080 O.2   159  ASN159     -0.2718
     37  CB       -15.1140  -30.7950   34.4100 C.3   159  ASN159      0.1169
     38  CG       -15.0470  -29.5190   35.2230 C.2   159  ASN159      0.2627
     39  OD1      -14.5930  -29.5240   36.3480 O.2   159  ASN159     -0.2716
     40  ND2      -15.4980  -28.4140   34.6740 N.am  159  ASN159     -0.0877
     41  N        -16.8760  -31.9850   37.2070 N.am  160  ALA160     -0.1979
     42  CA       -18.1520  -31.8910   37.9050 C.3   160  ALA160      0.1597
     43  C        -19.1790  -32.8970   37.3580 C.2   160  ALA160      0.2287
     44  O        -20.3300  -32.5450   37.0780 O.2   160  ALA160     -0.2864
     45  CB       -18.6680  -30.4640   37.8290 C.3   160  ALA160      0.0319
     46  N        -15.8250  -27.7050   44.6970 N.3   209  ASN209     -0.1240
     47  CA       -15.9490  -26.4480   43.9770 C.3   209  ASN209      0.1653
     48  C        -17.0750  -25.6360   44.6040 C.2   209  ASN209      0.2266
     49  O        -18.0810  -26.2170   44.9910 O.2   209  ASN209     -0.2867
     50  CB       -16.3490  -26.6840   42.5150 C.3   209  ASN209      0.1155
     51  CG       -15.2460  -27.2700   41.6600 C.2   209  ASN209      0.2627
     52  OD1      -14.0610  -27.2000   41.9930 O.2   209  ASN209     -0.2716
     53  ND2      -15.6310  -27.8510   40.5410 N.am  209  ASN209     -0.0877
     54  N        -12.0660  -25.0410   42.8910 N.3   229  GLU229     -0.1245
     55  CA       -12.6320  -23.8260   42.3270 C.3   229  GLU229      0.1567
     56  C        -13.1970  -22.9450   43.4400 C.2   229  GLU229      0.2260
     57  O        -14.3400  -23.1380   43.8390 O.2   229  GLU229     -0.2867
     58  CB       -13.7350  -24.1700   41.3190 C.3   229  GLU229      0.0388
     59  CG       -13.2420  -24.7000   39.9810 C.3   229  GLU229      0.1160
     60  CD       -14.4210  -25.0660   39.0960 C.2   229  GLU229      0.3649
     61  OE1      -14.4150  -26.1410   38.4340 O.co2 229  GLU229     -0.2457
     62  OE2      -15.3790  -24.2850   39.0980 O.co2 229  GLU229     -0.2457
     63  N        -14.7240  -19.6990   43.7010 N.3   231  TRP231     -0.1241
     64  CA       -15.3070  -18.7470   42.7730 C.3   231  TRP231      0.1605
     65  C        -15.0420  -17.3220   43.2580 C.2   231  TRP231      0.2264
     66  O        -15.4430  -16.9460   44.3600 O.2   231  TRP231     -0.2867
     67  CB       -16.7980  -19.0410   42.5370 C.3   231  TRP231      0.0550
     68  CG       -17.0230  -20.4010   41.9540 C.ar  231  TRP231      0.0003
     69  CD1      -16.1730  -21.0900   41.1380 C.ar  231  TRP231      0.0946
     70  CD2      -18.1700  -21.2390   42.1400 C.ar  231  TRP231      0.0152
     71  NE1      -16.7170  -22.2970   40.8070 N.ar  231  TRP231     -0.2442
     72  CE2      -17.9420  -22.4180   41.3970 C.ar  231  TRP231      0.0810
     73  CE3      -19.3760  -21.1090   42.8410 C.ar  231  TRP231      0.0012
     74  CZ2      -18.8630  -23.4650   41.3550 C.ar  231  TRP231      0.0191
     75  CZ3      -20.2980  -22.1390   42.7930 C.ar  231  TRP231      0.0001
     76  CH2      -20.0400  -23.3000   42.0590 C.ar  231  TRP231      0.0015
     77  N        -18.3890  -14.3300   39.2970 N.3   234  TRP234     -0.1227
     78  CA       -19.2230  -15.1170   38.4120 C.3   234  TRP234      0.1737
     79  C        -18.9870  -14.5930   37.0030 C.2   234  TRP234      0.2595
     80  O        -18.5110  -13.4760   36.8320 O.2   234  TRP234     -0.2718
     81  CB       -20.6830  -14.9340   38.8110 C.3   234  TRP234      0.0564
     82  CG       -21.5780  -16.0880   38.4880 C.ar  234  TRP234      0.0003
     83  CD1      -22.6180  -16.1050   37.6110 C.ar  234  TRP234      0.0946
     84  CD2      -21.5550  -17.3930   39.0900 C.ar  234  TRP234      0.0152
     85  NE1      -23.2300  -17.3310   37.6030 N.ar  234  TRP234     -0.2442
     86  CE2      -22.6040  -18.1390   38.5050 C.ar  234  TRP234      0.0810
     87  CE3      -20.7430  -18.0030   40.0520 C.ar  234  TRP234      0.0012
     88  CZ2      -22.8610  -19.4630   38.8490 C.ar  234  TRP234      0.0191
     89  CZ3      -21.0080  -19.3120   40.3940 C.ar  234  TRP234      0.0001
     90  CH2      -22.0500  -20.0310   39.8040 C.ar  234  TRP234      0.0015
     91  N        -19.3510  -15.3810   35.9970 N.am  235  TYR235     -0.1976
     92  CA       -19.2290  -14.9390   34.6160 C.3   235  TYR235      0.1639
     93  C        -20.2060  -13.8030   34.3190 C.2   235  TYR235      0.2290
     94  O        -21.2470  -13.6610   34.9610 O.2   235  TYR235     -0.2864
     95  CB       -19.5170  -16.1010   33.6590 C.3   235  TYR235      0.0560
     96  CG       -20.7900  -16.8570   33.9500 C.ar  235  TYR235     -0.0198
     97  CD1      -22.0210  -16.4140   33.4790 C.ar  235  TYR235     -0.0009
     98  CD2      -20.7570  -18.0230   34.6960 C.ar  235  TYR235     -0.0009
     99  CE1      -23.1870  -17.1120   33.7430 C.ar  235  TYR235      0.0417
    100  CE2      -21.9160  -18.7310   34.9610 C.ar  235  TYR235      0.0417
    101  CZ       -23.1260  -18.2830   34.4650 C.ar  235  TYR235      0.1957
    102  OH       -24.2600  -18.9720   34.7320 O.3   235  TYR235     -0.2866
    103  N        -10.8550  -19.6370   41.1150 N.3   268  TYR268     -0.1241
    104  CA       -11.4680  -19.6840   39.7980 C.3   268  TYR268      0.1605
    105  C        -12.2630  -18.3960   39.6210 C.2   268  TYR268      0.2264
    106  O        -13.3440  -18.3060   40.1770 O.2   268  TYR268     -0.2867
    107  CB       -12.3880  -20.9150   39.6520 C.3   268  TYR268      0.0534
    108  CG       -12.8090  -21.1490   38.2220 C.ar  268  TYR268     -0.0201
    109  CD1      -13.7760  -20.3490   37.6310 C.ar  268  TYR268     -0.0009
    110  CD2      -12.1700  -22.0840   37.4250 C.ar  268  TYR268     -0.0009
    111  CE1      -14.1240  -20.4960   36.2970 C.ar  268  TYR268      0.0417
    112  CE2      -12.4880  -22.2260   36.0860 C.ar  268  TYR268      0.0417
    113  CZ       -13.4810  -21.4410   35.5200 C.ar  268  TYR268      0.1957
    114  OH       -13.8430  -21.5710   34.2140 O.3   268  TYR268     -0.2866
    115  N        -14.7270  -12.0980   35.6500 N.3   291  TYR291     -0.1241
    116  CA       -14.9520  -12.8760   36.8510 C.3   291  TYR291      0.1605
    117  C        -14.5720  -12.0960   38.1050 C.2   291  TYR291      0.2264
    118  O        -14.4840  -12.7080   39.1620 O.2   291  TYR291     -0.2867
    119  CB       -14.1920  -14.2110   36.8030 C.3   291  TYR291      0.0534
    120  CG       -15.0700  -15.4350   36.8280 C.ar  291  TYR291     -0.0201
    121  CD1      -15.5090  -15.9730   38.0290 C.ar  291  TYR291     -0.0009
    122  CD2      -15.4760  -16.0400   35.6550 C.ar  291  TYR291     -0.0009
    123  CE1      -16.3220  -17.0940   38.0580 C.ar  291  TYR291      0.0417
    124  CE2      -16.2970  -17.1510   35.6610 C.ar  291  TYR291      0.0417
    125  CZ       -16.7150  -17.6820   36.8670 C.ar  291  TYR291      0.1957
    126  OH       -17.4980  -18.7960   36.8760 O.3   291  TYR291     -0.2866
    127  N        -23.2320  -26.7130   29.8610 N.3   527  VAL527     -0.1245
    128  CA       -23.5140  -27.2360   31.1900 C.3   527  VAL527      0.1561
    129  C        -24.9510  -27.7450   31.2510 C.2   527  VAL527      0.2260
    130  O        -25.8780  -27.0940   30.7720 O.2   527  VAL527     -0.2867
    131  CB       -23.2570  -26.1640   32.2680 C.3   527  VAL527      0.0252
    132  CG1      -24.3260  -25.0640   32.2840 C.3   527  VAL527      0.0019
    133  CG2      -23.0420  -26.7740   33.6480 C.3   527  VAL527      0.0019
@<TRIPOS>BOND
     1    27    26    2
     2    26    25    1
     3    16    15    2
     4   127   128    1
     5     4     3    2
     6    25    28    1
     7    25    24    1
     8     3     2    1
     9    22    21    2
    10   130   129    2
    11    13    14    1
    12    15    14    1
    13    15    19   am
    14    28    29    1
    15    23    20    1
    16    24    21   am
    17    21    20    1
    18   128   129    1
    19   128   131    1
    20    14    17    1
    21     5     2    1
    22     5     6    1
    23     2     1    1
    24    20    19    1
    25    29    30    1
    26   131   132    1
    27   131   133    1
    28     6     8   ar
    29     6     7   ar
    30     8    10   ar
    31    17    18    1
    32     7     9   ar
    33    30    31   ar
    34    30    32   ar
    35    97    99   ar
    36    97    96   ar
    37    95    96    1
    38    95    92    1
    39    10    11   ar
    40    99   101   ar
    41    96    98   ar
    42     9    11   ar
    43   114   113    1
    44    93    92    1
    45    93    94    2
    46    11    12    1
    47    37    38    1
    48    37    34    1
    49   101   102    1
    50   101   100   ar
    51    33    34    1
    52    92    91    1
    53    40    38   am
    54    98   100   ar
    55    36    35    2
    56    38    39    2
    57    34    35    1
    58   113   112   ar
    59   113   111   ar
    60   115   116    1
    61   122   124   ar
    62   122   120   ar
    63   124   125   ar
    64    35    41   am
    65    91    79   am
    66   112   110   ar
    67   111   109   ar
    68   119   120    1
    69   119   116    1
    70   120   121   ar
    71    80    79    2
    72   116   117    1
    73   125   126    1
    74   125   123   ar
    75    79    78    1
    76    44    43    2
    77    41    42    1
    78    43    42    1
    79   110   108   ar
    80    85    83   ar
    81    85    86   ar
    82    83    82   ar
    83   109   108   ar
    84    45    42    1
    85   121   123   ar
    86   117   118    2
    87   108   107    1
    88    78    81    1
    89    78    77    1
    90    61    60   ar
    91    82    81    1
    92    82    84   ar
    93    86    88   ar
    94    86    84   ar
    95    88    90   ar
    96    84    87   ar
    97    60    62   ar
    98    60    59    1
    99   105   104    1
   100   105   106    2
   101   107   104    1
   102   104   103    1
   103    90    89   ar
   104    59    58    1
   105    87    89   ar
   106    53    51   am
   107    71    69   ar
   108    71    72   ar
   109    69    68   ar
   110    58    55    1
   111    74    72   ar
   112    74    76   ar
   113    72    70   ar
   114    51    52    2
   115    51    50    1
   116    68    70   ar
   117    68    67    1
   118    76    75   ar
   119    70    73   ar
   120    55    54    1
   121    55    56    1
   122    50    47    1
   123    67    64    1
   124    64    65    1
   125    64    63    1
   126    75    73   ar
   127    65    66    2
   128    56    57    2
   129    47    48    1
   130    47    46    1
   131    48    49    2
