@<TRIPOS>MOLECULE
tmp/6ik8A03.pdb
 129 125 0 0 0
SMALL
GASTEIGER

@<TRIPOS>ATOM
      1  N        -14.2330  -32.8300   28.8070 N.3    95  TYR95      -0.1241
      2  CA       -15.3370  -31.9420   29.1570 C.3    95  TYR95       0.1605
      3  C        -14.8200  -31.0140   30.2450 C.2    95  TYR95       0.2264
      4  O        -14.1830  -31.4600   31.1890 O.2    95  TYR95      -0.2867
      5  CB       -16.6220  -32.6380   29.6080 C.3    95  TYR95       0.0534
      6  CG       -17.6030  -31.6730   30.2290 C.ar   95  TYR95      -0.0201
      7  CD1      -18.4120  -30.8560   29.4480 C.ar   95  TYR95      -0.0009
      8  CD2      -17.7110  -31.5540   31.6170 C.ar   95  TYR95      -0.0009
      9  CE1      -19.3050  -29.9550   30.0200 C.ar   95  TYR95       0.0417
     10  CE2      -18.5920  -30.6480   32.1990 C.ar   95  TYR95       0.0417
     11  CZ       -19.3960  -29.8480   31.4010 C.ar   95  TYR95       0.1957
     12  OH       -20.2630  -28.9780   32.0050 O.3    95  TYR95      -0.2866
     13  N        -16.5550  -27.6320   30.9000 N.3    97  CYS97      -0.1235
     14  CA       -17.5280  -26.6130   31.2810 C.3    97  CYS97       0.1677
     15  C        -16.9780  -25.2230   30.9690 C.2    97  CYS97       0.2270
     16  O        -17.1030  -24.7590   29.8460 O.2    97  CYS97      -0.2867
     17  CB       -17.9340  -26.7010   32.7480 C.3    97  CYS97       0.0956
     18  SG       -19.3920  -25.6800   33.1110 S.3    97  CYS97      -0.0801
     19  N        -17.6400  -22.2250   31.0560 N.3    99  GLU99      -0.1245
     20  CA       -18.4030  -21.2250   30.3170 C.3    99  GLU99       0.1567
     21  C        -17.8790  -21.1160   28.8870 C.2    99  GLU99       0.2260
     22  O        -17.9060  -20.0480   28.2620 O.2    99  GLU99      -0.2867
     23  CB       -18.3560  -19.8760   31.0200 C.3    99  GLU99       0.0388
     24  CG       -19.3840  -19.7790   32.1110 C.3    99  GLU99       0.1160
     25  CD       -18.9800  -20.3540   33.4540 C.2    99  GLU99       0.3649
     26  OE1      -17.8620  -20.0360   33.9480 O.co2  99  GLU99      -0.2457
     27  OE2      -19.8210  -21.0800   34.0180 O.co2  99  GLU99      -0.2457
     28  N        -15.1410  -33.2700   34.5660 N.3   159  ASN159     -0.1225
     29  CA       -15.3570  -32.0260   35.2900 C.3   159  ASN159      0.1785
     30  C        -16.7720  -31.9980   35.8700 C.2   159  ASN159      0.2597
     31  O        -17.7350  -31.9760   35.1080 O.2   159  ASN159     -0.2718
     32  CB       -15.1140  -30.7950   34.4100 C.3   159  ASN159      0.1169
     33  CG       -15.0470  -29.5190   35.2230 C.2   159  ASN159      0.2627
     34  OD1      -14.5930  -29.5240   36.3480 O.2   159  ASN159     -0.2716
     35  ND2      -15.4980  -28.4140   34.6740 N.am  159  ASN159     -0.0877
     36  N        -16.8760  -31.9850   37.2070 N.am  160  ALA160     -0.1979
     37  CA       -18.1520  -31.8910   37.9050 C.3   160  ALA160      0.1597
     38  C        -19.1790  -32.8970   37.3580 C.2   160  ALA160      0.2287
     39  O        -20.3300  -32.5450   37.0780 O.2   160  ALA160     -0.2864
     40  CB       -18.6680  -30.4640   37.8290 C.3   160  ALA160      0.0319
     41  N        -22.9470  -34.4360   39.7560 N.3   163  PRO163     -0.2102
     42  CA       -24.3650  -34.0990   39.6010 C.3   163  PRO163      0.1504
     43  C        -25.0410  -34.7820   38.4160 C.2   163  PRO163      0.2575
     44  O        -26.2080  -35.1420   38.5030 O.2   163  PRO163     -0.2718
     45  CB       -24.3510  -32.5780   39.3960 C.3   163  PRO163      0.0282
     46  CG       -23.0720  -32.1400   40.0580 C.3   163  PRO163      0.0208
     47  CD       -22.0780  -33.2470   39.7650 C.3   163  PRO163      0.0893
     48  N        -24.2970  -34.9320   37.3130 N.am  164  VAL164     -0.1980
     49  CA       -24.7960  -35.4990   36.0700 C.3   164  VAL164      0.1595
     50  C        -25.0500  -37.0010   36.2560 C.2   164  VAL164      0.2287
     51  O        -26.0330  -37.5420   35.7470 O.2   164  VAL164     -0.2864
     52  CB       -23.7900  -35.2010   34.9380 C.3   164  VAL164      0.0276
     53  CG1      -24.0820  -35.9760   33.6590 C.3   164  VAL164      0.0022
     54  CG2      -23.7080  -33.7130   34.6590 C.3   164  VAL164      0.0022
     55  N        -26.0170  -38.5340   38.9840 N.3   166  TRP166     -0.1241
     56  CA       -27.2110  -38.7810   39.7860 C.3   166  TRP166      0.1605
     57  C        -28.4460  -38.9100   38.8960 C.2   166  TRP166      0.2264
     58  O        -29.3700  -39.6500   39.2370 O.2   166  TRP166     -0.2867
     59  CB       -27.4420  -37.7260   40.8830 C.3   166  TRP166      0.0550
     60  CG       -26.2810  -37.3830   41.7710 C.ar  166  TRP166      0.0003
     61  CD1      -25.3290  -38.2270   42.2740 C.ar  166  TRP166      0.0946
     62  CD2      -25.9740  -36.0750   42.2970 C.ar  166  TRP166      0.0152
     63  NE1      -24.4380  -37.5320   43.0480 N.ar  166  TRP166     -0.2442
     64  CE2      -24.8080  -36.2110   43.0840 C.ar  166  TRP166      0.0810
     65  CE3      -26.5600  -34.8050   42.1750 C.ar  166  TRP166      0.0012
     66  CZ2      -24.2240  -35.1240   43.7370 C.ar  166  TRP166      0.0191
     67  CZ3      -25.9830  -33.7330   42.8210 C.ar  166  TRP166      0.0001
     68  CH2      -24.8290  -33.8940   43.5910 C.ar  166  TRP166      0.0015
     69  N        -16.2250  -32.4670   42.3680 N.3   196  LYS196     -0.1245
     70  CA       -17.6290  -32.7670   42.5820 C.3   196  LYS196      0.1561
     71  C        -17.9030  -34.2010   42.1290 C.2   196  LYS196      0.2260
     72  O        -18.6900  -34.4090   41.2050 O.2   196  LYS196     -0.2867
     73  CB       -18.5170  -31.7930   41.8050 C.3   196  LYS196      0.0271
     74  CG       -18.7180  -30.4320   42.4360 C.3   196  LYS196      0.0035
     75  CD       -20.0150  -29.8070   41.9930 C.3   196  LYS196      0.0206
     76  CE       -20.5530  -28.8290   43.0140 C.3   196  LYS196      0.1093
     77  NZ       -22.0300  -28.7290   42.9260 N.3   196  LYS196     -0.1314
     78  N        -15.8250  -27.7050   44.6970 N.3   209  ASN209     -0.1240
     79  CA       -15.9490  -26.4480   43.9770 C.3   209  ASN209      0.1653
     80  C        -17.0750  -25.6360   44.6040 C.2   209  ASN209      0.2266
     81  O        -18.0810  -26.2170   44.9910 O.2   209  ASN209     -0.2867
     82  CB       -16.3490  -26.6840   42.5150 C.3   209  ASN209      0.1155
     83  CG       -15.2460  -27.2700   41.6600 C.2   209  ASN209      0.2627
     84  OD1      -14.0610  -27.2000   41.9930 O.2   209  ASN209     -0.2716
     85  ND2      -15.6310  -27.8510   40.5410 N.am  209  ASN209     -0.0877
     86  N        -12.0660  -25.0410   42.8910 N.3   229  GLU229     -0.1245
     87  CA       -12.6320  -23.8260   42.3270 C.3   229  GLU229      0.1567
     88  C        -13.1970  -22.9450   43.4400 C.2   229  GLU229      0.2260
     89  O        -14.3400  -23.1380   43.8390 O.2   229  GLU229     -0.2867
     90  CB       -13.7350  -24.1700   41.3190 C.3   229  GLU229      0.0388
     91  CG       -13.2420  -24.7000   39.9810 C.3   229  GLU229      0.1160
     92  CD       -14.4210  -25.0660   39.0960 C.2   229  GLU229      0.3649
     93  OE1      -14.4150  -26.1410   38.4340 O.co2 229  GLU229     -0.2457
     94  OE2      -15.3790  -24.2850   39.0980 O.co2 229  GLU229     -0.2457
     95  N        -14.7240  -19.6990   43.7010 N.3   231  TRP231     -0.1241
     96  CA       -15.3070  -18.7470   42.7730 C.3   231  TRP231      0.1605
     97  C        -15.0420  -17.3220   43.2580 C.2   231  TRP231      0.2264
     98  O        -15.4430  -16.9460   44.3600 O.2   231  TRP231     -0.2867
     99  CB       -16.7980  -19.0410   42.5370 C.3   231  TRP231      0.0550
    100  CG       -17.0230  -20.4010   41.9540 C.ar  231  TRP231      0.0003
    101  CD1      -16.1730  -21.0900   41.1380 C.ar  231  TRP231      0.0946
    102  CD2      -18.1700  -21.2390   42.1400 C.ar  231  TRP231      0.0152
    103  NE1      -16.7170  -22.2970   40.8070 N.ar  231  TRP231     -0.2442
    104  CE2      -17.9420  -22.4180   41.3970 C.ar  231  TRP231      0.0810
    105  CE3      -19.3760  -21.1090   42.8410 C.ar  231  TRP231      0.0012
    106  CZ2      -18.8630  -23.4650   41.3550 C.ar  231  TRP231      0.0191
    107  CZ3      -20.2980  -22.1390   42.7930 C.ar  231  TRP231      0.0001
    108  CH2      -20.0400  -23.3000   42.0590 C.ar  231  TRP231      0.0015
    109  N        -18.3890  -14.3300   39.2970 N.3   234  TRP234     -0.1241
    110  CA       -19.2230  -15.1170   38.4120 C.3   234  TRP234      0.1605
    111  C        -18.9870  -14.5930   37.0030 C.2   234  TRP234      0.2264
    112  O        -18.5110  -13.4760   36.8320 O.2   234  TRP234     -0.2867
    113  CB       -20.6830  -14.9340   38.8110 C.3   234  TRP234      0.0550
    114  CG       -21.5780  -16.0880   38.4880 C.ar  234  TRP234      0.0003
    115  CD1      -22.6180  -16.1050   37.6110 C.ar  234  TRP234      0.0946
    116  CD2      -21.5550  -17.3930   39.0900 C.ar  234  TRP234      0.0152
    117  NE1      -23.2300  -17.3310   37.6030 N.ar  234  TRP234     -0.2442
    118  CE2      -22.6040  -18.1390   38.5050 C.ar  234  TRP234      0.0810
    119  CE3      -20.7430  -18.0030   40.0520 C.ar  234  TRP234      0.0012
    120  CZ2      -22.8610  -19.4630   38.8490 C.ar  234  TRP234      0.0191
    121  CZ3      -21.0080  -19.3120   40.3940 C.ar  234  TRP234      0.0001
    122  CH2      -22.0500  -20.0310   39.8040 C.ar  234  TRP234      0.0015
    123  N        -23.2320  -26.7130   29.8610 N.3   527  VAL527     -0.1245
    124  CA       -23.5140  -27.2360   31.1900 C.3   527  VAL527      0.1561
    125  C        -24.9510  -27.7450   31.2510 C.2   527  VAL527      0.2260
    126  O        -25.8780  -27.0940   30.7720 O.2   527  VAL527     -0.2867
    127  CB       -23.2570  -26.1640   32.2680 C.3   527  VAL527      0.0252
    128  CG1      -24.3260  -25.0640   32.2840 C.3   527  VAL527      0.0019
    129  CG2      -23.0420  -26.7740   33.6480 C.3   527  VAL527      0.0019
@<TRIPOS>BOND
     1    22    21    2
     2     1     2    1
     3    21    20    1
     4     2     5    1
     5     2     3    1
     6     7     9   ar
     7     7     6   ar
     8     5     6    1
     9    16    15    2
    10   123   124    1
    11     9    11   ar
    12     6     8   ar
    13     3     4    2
    14    20    23    1
    15    20    19    1
    16   126   125    2
    17    13    14    1
    18    15    14    1
    19    23    24    1
    20   124   125    1
    21   124   127    1
    22    14    17    1
    23    11    12    1
    24    11    10   ar
    25     8    10   ar
    26    24    25    1
    27   127   128    1
    28   127   129    1
    29    17    18    1
    30    25    26   ar
    31    25    27   ar
    32    53    52    1
    33    32    33    1
    34    32    29    1
    35    28    29    1
    36    54    52    1
    37    35    33   am
    38    52    49    1
    39    31    30    2
    40    33    34    2
    41    29    30    1
    42    51    50    2
    43    30    36   am
    44    49    50    1
    45    49    48    1
    46   112   111    2
    47   111   110    1
    48    39    38    2
    49    36    37    1
    50    48    43   am
    51    38    37    1
    52   117   115   ar
    53   117   118   ar
    54   115   114   ar
    55    40    37    1
    56   110   113    1
    57   110   109    1
    58    43    44    2
    59    43    42    1
    60    93    92   ar
    61   114   113    1
    62   114   116   ar
    63   118   120   ar
    64   118   116   ar
    65   120   122   ar
    66    57    58    2
    67    57    56    1
    68    55    56    1
    69   116   119   ar
    70    92    94   ar
    71    92    91    1
    72    45    42    1
    73    45    46    1
    74    42    41    1
    75    41    47    1
    76    47    46    1
    77    56    59    1
    78   122   121   ar
    79    91    90    1
    80   119   121   ar
    81    85    83   am
    82   103   101   ar
    83   103   104   ar
    84    59    60    1
    85   101   100   ar
    86    72    71    2
    87    90    87    1
    88   106   104   ar
    89   106   108   ar
    90   104   102   ar
    91    83    84    2
    92    83    82    1
    93    60    61   ar
    94    60    62   ar
    95    73    74    1
    96    73    70    1
    97   100   102   ar
    98   100    99    1
    99    75    74    1
   100    75    76    1
   101   108   107   ar
   102    71    70    1
   103   102   105   ar
   104    65    62   ar
   105    65    67   ar
   106    61    63   ar
   107    62    64   ar
   108    87    86    1
   109    87    88    1
   110    69    70    1
   111    82    79    1
   112    99    96    1
   113    96    97    1
   114    96    95    1
   115   107   105   ar
   116    67    68   ar
   117    77    76    1
   118    63    64   ar
   119    64    66   ar
   120    97    98    2
   121    88    89    2
   122    68    66   ar
   123    79    80    1
   124    79    78    1
   125    80    81    2
