@<TRIPOS>MOLECULE
tmp/6ikaA00.pdb
 146 137 0 0 0
SMALL
GASTEIGER

@<TRIPOS>ATOM
      1  N        190.7500  269.8780 -121.9770 N.3    63  ILE63      -0.1245
      2  CA       191.5040  270.3200 -123.1470 C.3    63  ILE63       0.1561
      3  C        192.0490  271.7180 -122.8790 C.2    63  ILE63       0.2260
      4  O        191.5250  272.4690 -122.0470 O.2    63  ILE63      -0.2867
      5  CB       190.6430  270.3000 -124.4400 C.3    63  ILE63       0.0252
      6  CG1      191.4960  270.5960 -125.6710 C.3    63  ILE63       0.0019
      7  CG2      189.4780  271.2800 -124.3620 C.3    63  ILE63       0.0019
      8  CD1      191.1960  269.6870 -126.8420 C.3    63  ILE63       0.0001
      9  N        193.3210  275.6930 -123.4600 N.3    65  LYS65      -0.1245
     10  CA       192.6170  276.9110 -123.8280 C.3    65  LYS65       0.1561
     11  C        193.5960  277.8520 -124.5140 C.2    65  LYS65       0.2260
     12  O        194.7920  277.8470 -124.1920 O.2    65  LYS65      -0.2867
     13  CB       192.0180  277.5600 -122.5740 C.3    65  LYS65       0.0271
     14  CG       190.9910  278.6420 -122.7850 C.3    65  LYS65       0.0035
     15  CD       190.1460  278.7260 -121.5340 C.3    65  LYS65       0.0206
     16  CE       189.5530  280.1000 -121.3850 C.3    65  LYS65       0.1093
     17  NZ       188.9220  280.3620 -120.0620 N.3    65  LYS65      -0.1314
     18  N        194.7570  278.7310 -119.0860 N.3    70  LYS70      -0.1245
     19  CA       193.5550  278.0710 -118.5780 C.3    70  LYS70       0.1561
     20  C        193.3450  276.6900 -119.2140 C.2    70  LYS70       0.2260
     21  O        193.8370  276.3880 -120.3050 O.2    70  LYS70      -0.2867
     22  CB       192.3230  278.9460 -118.8120 C.3    70  LYS70       0.0271
     23  CG       192.4730  280.4190 -118.4350 C.3    70  LYS70       0.0035
     24  CD       192.3950  280.6250 -116.9250 C.3    70  LYS70       0.0206
     25  CE       190.9550  280.6430 -116.4200 C.3    70  LYS70       0.1093
     26  NZ       190.7530  279.8060 -115.2020 N.3    70  LYS70      -0.1314
     27  N        190.1260  273.7730 -120.0590 N.3    72  ARG72      -0.1245
     28  CA       188.6860  273.7210 -120.3170 C.3    72  ARG72       0.1563
     29  C        188.1560  272.3060 -120.0950 C.2    72  ARG72       0.2260
     30  O        188.5900  271.3670 -120.7720 O.2    72  ARG72      -0.2867
     31  CB       188.3750  274.1920 -121.7420 C.3    72  ARG72       0.0307
     32  CG       186.8990  274.4160 -122.0030 C.3    72  ARG72       0.0489
     33  CD       186.5830  274.4940 -123.4940 C.3    72  ARG72       0.2205
     34  NE       187.0530  275.7410 -124.0940 N.pl3  72  ARG72      -0.0865
     35  CZ       186.5160  276.9380 -123.8620 C.cat  72  ARG72       0.5346
     36  NH1      185.4780  277.0670 -123.0440 N.pl3  72  ARG72       0.1354
     37  NH2      187.0150  278.0130 -124.4570 N.pl3  72  ARG72       0.1354
     38  N        185.5760  269.1080 -120.1510 N.3    74  LEU74      -0.1245
     39  CA       184.5650  268.4780 -121.0050 C.3    74  LEU74       0.1561
     40  C        184.3090  267.0360 -120.5590 C.2    74  LEU74       0.2260
     41  O        185.2510  266.2810 -120.2910 O.2    74  LEU74      -0.2867
     42  CB       184.9890  268.5020 -122.4870 C.3    74  LEU74       0.0270
     43  CG       185.6550  269.7600 -123.0750 C.3    74  LEU74       0.0019
     44  CD1      186.5050  269.4360 -124.3100 C.3    74  LEU74       0.0001
     45  CD2      184.6300  270.8510 -123.3960 C.3    74  LEU74       0.0001
     46  N        183.1150  289.9330 -122.9370 N.3   110  ASP110     -0.1225
     47  CA       182.9170  288.4780 -122.9250 C.3   110  ASP110      0.1805
     48  C        182.4540  288.0710 -121.5410 C.2   110  ASP110      0.2598
     49  O        182.9700  288.5870 -120.6070 O.2   110  ASP110     -0.2718
     50  CB       184.2170  287.7580 -123.2410 C.3   110  ASP110      0.1424
     51  CG       184.1390  286.9940 -124.5370 C.2   110  ASP110      0.3668
     52  OD1      183.7660  285.8270 -124.4870 O.co2 110  ASP110     -0.2456
     53  OD2      184.4110  287.5920 -125.5720 O.co2 110  ASP110     -0.2456
     54  N        181.4670  287.2030 -121.4600 N.am  111  VAL111     -0.1966
     55  CA       181.0140  286.6240 -120.1980 C.3   111  VAL111      0.1727
     56  C        181.8930  285.4240 -119.8630 C.2   111  VAL111      0.2617
     57  O        182.0210  284.5010 -120.6700 O.2   111  VAL111     -0.2715
     58  CB       179.5310  286.2120 -120.2840 C.3   111  VAL111      0.0290
     59  CG1      179.0340  285.6540 -118.9530 C.3   111  VAL111      0.0023
     60  CG2      178.6620  287.3730 -120.7390 C.3   111  VAL111      0.0023
     61  N        182.4870  285.4220 -118.6690 N.am  112  SER112     -0.1936
     62  CA       183.3400  284.3120 -118.2450 C.3   112  SER112      0.2055
     63  C        182.5130  283.1200 -117.7710 C.2   112  SER112      0.2643
     64  O        181.4840  283.2830 -117.1060 O.2   112  SER112     -0.2714
     65  CB       184.2930  284.7490 -117.1260 C.3   112  SER112      0.2130
     66  OG       183.6560  284.8420 -115.8590 O.3   112  SER112     -0.2179
     67  N        182.9690  281.9210 -118.1300 N.am  113  ALA113     -0.1963
     68  CA       182.3620  280.6520 -117.7100 C.3   113  ALA113      0.1728
     69  C        180.8380  280.6680 -117.8700 C.2   113  ALA113      0.2616
     70  O        180.0820  280.3070 -116.9630 O.2   113  ALA113     -0.2715
     71  CB       182.7660  280.3210 -116.2710 C.3   113  ALA113      0.0334
     72  N        180.3920  281.0860 -119.0600 N.am  114  ALA114     -0.1963
     73  CA       178.9910  281.4450 -119.2580 C.3   114  ALA114      0.1728
     74  C        178.0560  280.2510 -119.0200 C.2   114  ALA114      0.2616
     75  O        177.0840  280.3630 -118.2610 O.2   114  ALA114     -0.2715
     76  CB       178.8080  282.0380 -120.6540 C.3   114  ALA114      0.0334
     77  N        178.3450  279.1020 -119.6500 N.am  115  PHE115     -0.1974
     78  CA       177.5970  277.8620 -119.4040 C.3   115  PHE115      0.1639
     79  C        177.3930  277.6030 -117.9070 C.2   115  PHE115      0.2290
     80  O        176.3220  277.1540 -117.4820 O.2   115  PHE115     -0.2864
     81  CB       178.3330  276.6500 -120.0080 C.3   115  PHE115      0.0560
     82  CG       178.0980  276.4260 -121.4710 C.ar  115  PHE115     -0.0200
     83  CD1      177.4090  277.3480 -122.2380 C.ar  115  PHE115     -0.0042
     84  CD2      178.6080  275.2800 -122.0950 C.ar  115  PHE115     -0.0042
     85  CE1      177.2270  277.1340 -123.6110 C.ar  115  PHE115     -0.0003
     86  CE2      178.4290  275.0570 -123.4590 C.ar  115  PHE115     -0.0003
     87  CZ       177.7390  275.9900 -124.2170 C.ar  115  PHE115     -0.0000
     88  N        179.5270  271.6040 -120.5160 N.3   151  MET151     -0.1230
     89  CA       180.1870  271.6040 -121.8230 C.3   151  MET151      0.1702
     90  C        180.1570  270.2040 -122.4130 C.2   151  MET151      0.2592
     91  O        180.4400  269.2200 -121.7220 O.2   151  MET151     -0.2718
     92  CB       181.6280  272.0830 -121.7170 C.3   151  MET151      0.0401
     93  CG       181.7590  273.4830 -121.1600 C.3   151  MET151      0.0596
     94  SD       183.4160  274.1410 -121.4310 S.3   151  MET151     -0.1393
     95  CE       183.2390  275.7470 -120.6430 C.3   151  MET151      0.0692
     96  N        179.7730  270.1050 -123.6810 N.am  152  GLY152     -0.1957
     97  CA       179.6650  268.8150 -124.3320 C.3   152  GLY152      0.1869
     98  C        178.2770  268.2170 -124.3710 C.2   152  GLY152      0.2309
     99  O        178.1010  267.1500 -124.9690 O.2   152  GLY152     -0.2863
    100  N        174.4550  274.8610 -125.6670 N.3   157  PRO157     -0.2116
    101  CA       174.5560  276.1160 -126.4320 C.3   157  PRO157      0.1372
    102  C        173.2270  276.8490 -126.5800 C.2   157  PRO157      0.2244
    103  O        173.1970  278.0820 -126.5100 O.2   157  PRO157     -0.2868
    104  CB       175.1280  275.6440 -127.7770 C.3   157  PRO157      0.0268
    105  CG       175.8580  274.3580 -127.4300 C.3   157  PRO157      0.0207
    106  CD       174.9990  273.7140 -126.4200 C.3   157  PRO157      0.0892
    107  N        172.0000  278.4450 -123.2740 N.3   160  LEU160     -0.1245
    108  CA       172.8320  279.6360 -123.0050 C.3   160  LEU160      0.1561
    109  C        172.3380  280.7990 -123.8570 C.2   160  LEU160      0.2260
    110  O        172.1090  281.8420 -123.3290 O.2   160  LEU160     -0.2867
    111  CB       174.2700  279.2810 -123.3620 C.3   160  LEU160      0.0270
    112  CG       175.3720  280.2460 -122.9530 C.3   160  LEU160      0.0019
    113  CD1      175.8890  281.0140 -124.1340 C.3   160  LEU160      0.0001
    114  CD2      174.9350  281.1820 -121.8600 C.3   160  LEU160      0.0001
    115  N        176.8260  283.7350 -128.7520 N.3   184  MET184     -0.1230
    116  CA       177.1860  282.9090 -127.5780 C.3   184  MET184      0.1702
    117  C        177.4020  283.8380 -126.3850 C.2   184  MET184      0.2592
    118  O        176.4620  284.4790 -126.0040 O.2   184  MET184     -0.2718
    119  CB       178.3600  281.9650 -127.8110 C.3   184  MET184      0.0401
    120  CG       178.3050  281.3090 -129.1430 C.3   184  MET184      0.0596
    121  SD       177.1630  279.9390 -129.2440 S.3   184  MET184     -0.1393
    122  CE       177.4020  279.1830 -127.6460 C.3   184  MET184      0.0692
    123  N        178.5870  283.8630 -125.7940 N.am  185  ASP185     -0.1974
    124  CA       178.8590  284.7720 -124.6540 C.3   185  ASP185      0.1709
    125  C        179.6190  286.0210 -125.1030 C.2   185  ASP185      0.2293
    126  O        180.0850  286.7280 -124.2610 O.2   185  ASP185     -0.2864
    127  CB       179.5640  284.0500 -123.5120 C.3   185  ASP185      0.1436
    128  CG       180.7830  283.2920 -123.9580 C.2   185  ASP185      0.3671
    129  OD1      180.8010  282.8710 -125.0950 O.co2 185  ASP185     -0.2456
    130  OD2      181.6930  283.1480 -123.1610 O.co2 185  ASP185     -0.2456
    131  N        184.9180  289.7690 -117.0510 N.3   217  PRO217     -0.2116
    132  CA       186.2330  290.1280 -116.5050 C.3   217  PRO217      0.1372
    133  C        186.9070  291.1910 -117.3540 C.2   217  PRO217      0.2244
    134  O        186.6740  291.2960 -118.5610 O.2   217  PRO217     -0.2868
    135  CB       187.0160  288.8070 -116.5390 C.3   217  PRO217      0.0268
    136  CG       186.0240  287.7470 -116.9680 C.3   217  PRO217      0.0207
    137  CD       184.9340  288.4550 -117.7140 C.3   217  PRO217      0.0892
    138  N        188.9410  290.4800 -120.6930 N.3   220  LYS220     -0.1245
    139  CA       188.2440  290.3000 -121.9650 C.3   220  LYS220      0.1561
    140  C        187.3100  291.4590 -122.2800 C.2   220  LYS220      0.2260
    141  O        186.3930  291.3110 -123.0880 O.2   220  LYS220     -0.2867
    142  CB       187.4660  288.9830 -121.9710 C.3   220  LYS220      0.0271
    143  CG       188.2870  287.8110 -121.4800 C.3   220  LYS220      0.0035
    144  CD       187.7880  286.4880 -122.0400 C.3   220  LYS220      0.0206
    145  CE       188.8720  285.4140 -121.9520 C.3   220  LYS220      0.1093
    146  NZ       188.5360  284.1750 -122.7240 N.3   220  LYS220     -0.1314
@<TRIPOS>BOND
     1   121   120    1
     2   121   122    1
     3   120   119    1
     4   115   116    1
     5   119   116    1
     6   104   105    1
     7   104   101    1
     8   116   117    1
     9   105   106    1
    10     8     6    1
    11   102   103    2
    12   102   101    1
    13   101   100    1
    14   106   100    1
    15   117   118    2
    16   117   123   am
    17   123   124    1
    18     6     5    1
    19    53    51   ar
    20   125   124    1
    21   125   126    2
    22   129   128   ar
    23    99    98    2
    24   124   127    1
    25    51    52   ar
    26    51    50    1
    27    11    12    2
    28    11    10    1
    29    37    35    1
    30     5     7    1
    31     5     2    1
    32    98    97    1
    33    97    96    1
    34    44    43    1
    35    87    85   ar
    36    87    86   ar
    37   113   112    1
    38    34    35    2
    39    34    33    1
    40   128   127    1
    41   128   130   ar
    42    35    36    1
    43   109   110    2
    44   109   108    1
    45    10     9    1
    46    10    13    1
    47    96    90   am
    48    85    83   ar
    49    33    32    1
    50    86    84   ar
    51    45    43    1
    52   111   108    1
    53   111   112    1
    54   107   108    1
    55    50    47    1
    56     2     3    1
    57     2     1    1
    58   141   140    2
    59    43    42    1
    60   112   114    1
    61    46    47    1
    62    47    48    1
    63     3     4    2
    64    14    13    1
    65    14    15    1
    66   146   145    1
    67    42    39    1
    68    90    89    1
    69    90    91    2
    70   140   139    1
    71    83    82   ar
    72    84    82   ar
    73   144   145    1
    74   144   143    1
    75    32    31    1
    76   142   139    1
    77   142   143    1
    78   139   138    1
    79    89    92    1
    80    89    88    1
    81    31    28    1
    82    92    93    1
    83    48    54   am
    84    48    49    2
    85    15    16    1
    86    82    81    1
    87    54    55    1
    88    94    93    1
    89    94    95    1
    90    16    17    1
    91    39    40    1
    92    39    38    1
    93    30    29    2
    94    60    58    1
    95    57    56    2
    96    76    73    1
    97    40    41    2
    98    28    29    1
    99    28    27    1
   100    21    20    2
   101    58    55    1
   102    58    59    1
   103    55    56    1
   104    81    78    1
   105    56    61   am
   106    77    78    1
   107    77    74   am
   108    78    79    1
   109    73    72    1
   110    73    74    1
   111    20    19    1
   112    18    19    1
   113    72    69   am
   114    74    75    2
   115    22    19    1
   116    22    23    1
   117    61    62    1
   118   134   133    2
   119    23    24    1
   120    62    63    1
   121    62    65    1
   122    67    63   am
   123    67    68    1
   124    79    80    2
   125    69    68    1
   126    69    70    2
   127    63    64    2
   128   137   131    1
   129   137   136    1
   130    68    71    1
   131   133   132    1
   132    65    66    1
   133   131   132    1
   134   136   135    1
   135    24    25    1
   136   135   132    1
   137    25    26    1
