@<TRIPOS>MOLECULE
tmp/6il3A00.pdb
 153 144 0 0 0
SMALL
GASTEIGER

@<TRIPOS>ATOM
      1  N         71.3340   44.1820   33.0360 N.3    46  LYS46      -0.1245
      2  CA        70.9240   44.3150   31.6330 C.3    46  LYS46       0.1561
      3  C         72.0860   44.7150   30.6960 C.2    46  LYS46       0.2260
      4  O         73.0850   45.2760   31.1340 O.2    46  LYS46      -0.2867
      5  CB        69.7870   45.3510   31.5260 C.3    46  LYS46       0.0271
      6  CG        70.2260   46.7910   31.7940 C.3    46  LYS46       0.0035
      7  CD        69.0670   47.7450   32.0700 C.3    46  LYS46       0.0206
      8  CE        69.5670   49.0390   32.7150 C.3    46  LYS46       0.1093
      9  NZ        68.7990   50.2480   32.3010 N.3    46  LYS46      -0.1314
     10  N         73.1450   47.3940   28.4060 N.3    48  LEU48      -0.1245
     11  CA        72.9400   48.8060   28.0600 C.3    48  LEU48       0.1561
     12  C         73.0410   49.0490   26.5540 C.2    48  LEU48       0.2260
     13  O         72.2940   49.8480   26.0100 O.2    48  LEU48      -0.2867
     14  CB        73.9800   49.6590   28.7900 C.3    48  LEU48       0.0270
     15  CG        73.7650   49.9270   30.2730 C.3    48  LEU48       0.0019
     16  CD1       74.9010   50.7920   30.7930 C.3    48  LEU48       0.0001
     17  CD2       72.4360   50.6080   30.5160 C.3    48  LEU48       0.0001
     18  N         78.4060   47.0600   26.4300 N.3    56  VAL56      -0.1245
     19  CA        78.4330   47.7380   27.6960 C.3    56  VAL56       0.1561
     20  C         77.2470   47.1860   28.4750 C.2    56  VAL56       0.2260
     21  O         76.1520   47.0760   27.9320 O.2    56  VAL56      -0.2867
     22  CB        78.3190   49.2520   27.4890 C.3    56  VAL56       0.0252
     23  CG1       78.3110   49.9970   28.8160 C.3    56  VAL56       0.0019
     24  CG2       79.4800   49.7250   26.6330 C.3    56  VAL56       0.0019
     25  N         78.9390   50.7300   35.0590 N.3    74  ALA74      -0.1245
     26  CA        78.8120   50.2850   33.6620 C.3    74  ALA74       0.1562
     27  C         80.1080   49.6290   33.2290 C.2    74  ALA74       0.2260
     28  O         81.1730   50.1670   33.4760 O.2    74  ALA74      -0.2867
     29  CB        78.4760   51.4620   32.7550 C.3    74  ALA74       0.0290
     30  N         82.3600   47.9880   30.1830 N.3    76  LYS76      -0.1245
     31  CA        82.7460   47.6350   28.8090 C.3    76  LYS76       0.1561
     32  C         83.4080   46.2700   28.7630 C.2    76  LYS76       0.2260
     33  O         84.2770   45.9780   29.5820 O.2    76  LYS76      -0.2867
     34  CB        83.7590   48.6160   28.2440 C.3    76  LYS76       0.0271
     35  CG        83.2190   49.9670   27.8510 C.3    76  LYS76       0.0035
     36  CD        84.1650   50.6390   26.8670 C.3    76  LYS76       0.0206
     37  CE        83.7480   52.0770   26.7010 C.3    76  LYS76       0.1093
     38  NZ        84.4590   52.8150   25.6330 N.3    76  LYS76      -0.1314
     39  N         82.7580   60.6050   32.0160 N.3   107  VAL107     -0.1245
     40  CA        82.4530   59.2910   32.5650 C.3   107  VAL107      0.1561
     41  C         83.7780   58.6220   32.9480 C.2   107  VAL107      0.2260
     42  O         84.4940   58.0940   32.0890 O.2   107  VAL107     -0.2867
     43  CB        81.6640   58.4000   31.5810 C.3   107  VAL107      0.0252
     44  CG1       81.4640   56.9930   32.1560 C.3   107  VAL107      0.0019
     45  CG2       80.3160   59.0290   31.2740 C.3   107  VAL107      0.0019
     46  N         83.1770   51.5560   34.6810 N.3   123  PHE123     -0.1227
     47  CA        82.9000   52.9890   34.6480 C.3   123  PHE123      0.1736
     48  C         81.7840   53.4040   35.6090 C.2   123  PHE123      0.2595
     49  O         80.9580   52.5990   35.9990 O.2   123  PHE123     -0.2718
     50  CB        82.5070   53.3920   33.2210 C.3   123  PHE123      0.0547
     51  CG        83.6550   53.3810   32.2410 C.ar  123  PHE123     -0.0202
     52  CD1       84.4340   54.5240   32.0470 C.ar  123  PHE123     -0.0042
     53  CD2       83.9280   52.2510   31.4800 C.ar  123  PHE123     -0.0042
     54  CE1       85.4830   54.5200   31.1410 C.ar  123  PHE123     -0.0003
     55  CE2       84.9760   52.2400   30.5820 C.ar  123  PHE123     -0.0003
     56  CZ        85.7610   53.3770   30.4170 C.ar  123  PHE123     -0.0000
     57  N         81.7630   54.6820   35.9670 N.am  124  GLU124     -0.1965
     58  CA        80.6340   55.2660   36.6940 C.3   124  GLU124      0.1733
     59  C         79.3610   54.9700   35.9040 C.2   124  GLU124      0.2616
     60  O         79.3770   55.0670   34.6790 O.2   124  GLU124     -0.2715
     61  CB        80.7480   56.7910   36.7730 C.3   124  GLU124      0.0429
     62  CG        81.8900   57.3640   37.5840 C.3   124  GLU124      0.1163
     63  CD        82.0280   58.8850   37.4280 C.2   124  GLU124      0.3649
     64  OE1       82.4470   59.5700   38.3830 O.co2 124  GLU124     -0.2457
     65  OE2       81.7360   59.4170   36.3470 O.co2 124  GLU124     -0.2457
     66  N         78.2700   54.6420   36.5980 N.am  125  TYR125     -0.1960
     67  CA        76.9510   54.5070   35.9680 C.3   125  TYR125      0.1771
     68  C         76.2890   55.8590   35.8950 C.2   125  TYR125      0.2620
     69  O         76.4380   56.6620   36.8060 O.2   125  TYR125     -0.2715
     70  CB        76.0750   53.5730   36.7680 C.3   125  TYR125      0.0574
     71  CG        74.7530   53.2330   36.1130 C.ar  125  TYR125     -0.0198
     72  CD1       74.7050   52.5050   34.9220 C.ar  125  TYR125     -0.0009
     73  CD2       73.5380   53.6080   36.7110 C.ar  125  TYR125     -0.0009
     74  CE1       73.4920   52.1800   34.3390 C.ar  125  TYR125      0.0417
     75  CE2       72.3210   53.2790   36.1370 C.ar  125  TYR125      0.0417
     76  CZ        72.3020   52.5680   34.9530 C.ar  125  TYR125      0.1957
     77  OH        71.0930   52.2450   34.3860 O.3   125  TYR125     -0.2866
     78  N         75.5670   56.1070   34.8070 N.am  126  CYS126     -0.1954
     79  CA        74.7870   57.3450   34.6330 C.3   126  CYS126      0.1843
     80  C         73.3160   56.9640   34.4290 C.2   126  CYS126      0.2625
     81  O         72.9530   56.4300   33.3930 O.2   126  CYS126     -0.2714
     82  CB        75.3190   58.1330   33.4440 C.3   126  CYS126      0.0997
     83  SG        77.0510   58.6130   33.5960 S.3   126  CYS126     -0.0797
     84  N         72.4760   57.2150   35.4310 N.am  127  CYS127     -0.1968
     85  CA        71.1400   56.5930   35.4820 C.3   127  CYS127      0.1712
     86  C         70.1790   57.0220   34.3830 C.2   127  CYS127      0.2296
     87  O         69.3570   56.2060   33.9670 O.2   127  CYS127     -0.2864
     88  CB        70.4760   56.8030   36.8450 C.3   127  CYS127      0.0983
     89  SG        70.4470   58.5300   37.3440 S.3   127  CYS127     -0.0798
     90  N         70.7510   57.9060   31.1140 N.3   129  GLY129     -0.1210
     91  CA        71.1240   57.5560   29.7370 C.3   129  GLY129      0.1956
     92  C         71.7950   58.6780   28.9620 C.2   129  GLY129      0.2611
     93  O         72.2530   59.6840   29.5340 O.2   129  GLY129     -0.2717
     94  N         71.8450   58.4980   27.6460 N.am  130  ASP130     -0.1973
     95  CA        72.4010   59.4940   26.7490 C.3   130  ASP130      0.1709
     96  C         71.5280   60.7470   26.6770 C.2   130  ASP130      0.2293
     97  O         70.2970   60.6710   26.6990 O.2   130  ASP130     -0.2864
     98  CB        72.6330   58.9230   25.3460 C.3   130  ASP130      0.1436
     99  CG        71.3260   58.6170   24.5890 C.2   130  ASP130      0.3671
    100  OD1       70.5960   57.6530   24.9310 O.co2 130  ASP130     -0.2456
    101  OD2       71.0340   59.3420   23.6210 O.co2 130  ASP130     -0.2456
    102  N         68.5440   60.9790   23.7600 N.3   133  ASN133     -0.1240
    103  CA        67.2640   60.3680   24.1910 C.3   133  ASN133      0.1653
    104  C         66.5650   61.0980   25.3420 C.2   133  ASN133      0.2266
    105  O         65.3470   61.1360   25.4010 O.2   133  ASN133     -0.2867
    106  CB        67.4400   58.8900   24.5530 C.3   133  ASN133      0.1155
    107  CG        67.4320   57.9820   23.3270 C.2   133  ASN133      0.2627
    108  OD1       66.4780   57.9890   22.5380 O.2   133  ASN133     -0.2716
    109  ND2       68.4980   57.1920   23.1640 N.am  133  ASN133     -0.0877
    110  N         74.5180   62.0150   21.5500 N.3   178  ARG178     -0.1245
    111  CA        74.4120   60.5590   21.7870 C.3   178  ARG178      0.1563
    112  C         75.5920   59.9720   22.6240 C.2   178  ARG178      0.2260
    113  O         75.4800   58.8690   23.1340 O.2   178  ARG178     -0.2867
    114  CB        74.2940   59.8070   20.4630 C.3   178  ARG178      0.0307
    115  CG        75.5240   59.9410   19.5700 C.3   178  ARG178      0.0489
    116  CD        75.3750   59.2610   18.2180 C.3   178  ARG178      0.2205
    117  NE        76.5270   59.6290   17.4130 N.pl3 178  ARG178     -0.0865
    118  CZ        76.6020   60.6580   16.5760 C.cat 178  ARG178      0.5346
    119  NH1       77.7450   60.9100   15.9590 N.pl3 178  ARG178      0.1354
    120  NH2       75.5620   61.4340   16.3250 N.pl3 178  ARG178      0.1354
    121  N         76.3150   61.5900   28.6100 N.3   181  LEU181     -0.1245
    122  CA        75.3920   60.8920   29.5060 C.3   181  LEU181      0.1561
    123  C         74.8540   61.8120   30.5770 C.2   181  LEU181      0.2260
    124  O         75.4610   62.8430   30.8940 O.2   181  LEU181     -0.2867
    125  CB        76.0790   59.7110   30.1590 C.3   181  LEU181      0.0270
    126  CG        76.7100   58.7270   29.1870 C.3   181  LEU181      0.0019
    127  CD1       77.1000   57.4730   29.9340 C.3   181  LEU181      0.0001
    128  CD2       75.7940   58.3520   28.0410 C.3   181  LEU181      0.0001
    129  N         81.3890   60.7960   27.2860 N.3   191  CYS191     -0.1221
    130  CA        81.9700   59.4700   27.2280 C.3   191  CYS191      0.1808
    131  C         82.2990   59.0410   25.8070 C.2   191  CYS191      0.2601
    132  O         82.0960   59.7760   24.8560 O.2   191  CYS191     -0.2717
    133  CB        81.0300   58.4600   27.8900 C.3   191  CYS191      0.0970
    134  SG        79.5560   58.0650   26.9520 S.3   191  CYS191     -0.0800
    135  N         82.8680   57.8510   25.6940 N.am  192  ASP192     -0.1959
    136  CA        83.0750   57.2010   24.4160 C.3   192  ASP192      0.1840
    137  C         82.1910   55.9430   24.4220 C.2   192  ASP192      0.2622
    138  O         82.5200   54.9610   25.0720 O.2   192  ASP192     -0.2715
    139  CB        84.5690   56.8810   24.2610 C.3   192  ASP192      0.1450
    140  CG        84.8590   55.9660   23.0840 C.2   192  ASP192      0.3671
    141  OD1       84.3160   56.1990   21.9810 O.co2 192  ASP192     -0.2456
    142  OD2       85.6410   55.0060   23.2710 O.co2 192  ASP192     -0.2456
    143  N         81.0670   56.0010   23.7120 N.am  193  PHE193     -0.1974
    144  CA        80.0600   54.9360   23.7060 C.3   193  PHE193      0.1639
    145  C         80.2530   53.9750   22.5170 C.2   193  PHE193      0.2290
    146  O         79.4290   53.0880   22.2980 O.2   193  PHE193     -0.2864
    147  CB        78.6340   55.5590   23.7280 C.3   193  PHE193      0.0560
    148  CG        77.5070   54.5650   23.9330 C.ar  193  PHE193     -0.0200
    149  CD1       77.1850   54.1170   25.1850 C.ar  193  PHE193     -0.0042
    150  CD2       76.7600   54.0920   22.8650 C.ar  193  PHE193     -0.0042
    151  CE1       76.1610   53.1940   25.3900 C.ar  193  PHE193     -0.0003
    152  CE2       75.7240   53.1720   23.0460 C.ar  193  PHE193     -0.0003
    153  CZ        75.4170   52.7260   24.3170 C.ar  193  PHE193     -0.0000
@<TRIPOS>BOND
     1   119   118    1
     2   120   118    1
     3   118   117    2
     4   117   116    1
     5   116   115    1
     6   115   114    1
     7   114   111    1
     8   110   111    1
     9   111   112    1
    10   141   140   ar
    11   146   145    2
    12   145   144    1
    13   108   107    2
    14   112   113    2
    15   150   152   ar
    16   150   148   ar
    17   152   153   ar
    18   140   142   ar
    19   140   139    1
    20   109   107   am
    21   107   106    1
    22   101    99   ar
    23   144   143    1
    24   144   147    1
    25   143   137   am
    26   147   148    1
    27   102   103    1
    28   148   149   ar
    29   103   106    1
    30   103   104    1
    31   139   136    1
    32   153   151   ar
    33   136   137    1
    34   136   135    1
    35   137   138    2
    36    99   100   ar
    37    99    98    1
    38   132   131    2
    39   149   151   ar
    40   104   105    2
    41    98    95    1
    42    38    37    1
    43   135   131   am
    44   131   130    1
    45    13    12    2
    46    18    19    1
    47    12    11    1
    48    24    22    1
    49    96    97    2
    50    96    95    1
    51    37    36    1
    52    95    94    1
    53    36    35    1
    54   134   133    1
    55   130   129    1
    56   130   133    1
    57    22    19    1
    58    22    23    1
    59    94    92   am
    60    19    20    1
    61    35    34    1
    62    21    20    2
    63   128   126    1
    64    11    10    1
    65    11    14    1
    66    34    31    1
    67   121   122    1
    68    32    31    1
    69    32    33    2
    70    14    15    1
    71    31    30    1
    72    92    93    2
    73    92    91    1
    74   126   127    1
    75   126   125    1
    76   122   125    1
    77   122   123    1
    78    91    90    1
    79    15    17    1
    80    15    16    1
    81    56    55   ar
    82    56    54   ar
    83   123   124    2
    84    55    53   ar
    85     3     4    2
    86     3     2    1
    87    54    52   ar
    88    45    43    1
    89    53    51   ar
    90     5     2    1
    91     5     6    1
    92    43    44    1
    93    43    40    1
    94     2     1    1
    95     6     7    1
    96    39    40    1
    97    52    51   ar
    98     7     8    1
    99    42    41    2
   100    51    50    1
   101     9     8    1
   102    40    41    1
   103    29    26    1
   104    50    47    1
   105    27    28    2
   106    27    26    1
   107    81    80    2
   108    82    83    1
   109    82    79    1
   110    26    25    1
   111    87    86    2
   112    74    72   ar
   113    74    76   ar
   114    86    85    1
   115    77    76    1
   116    80    79    1
   117    80    84   am
   118    79    78    1
   119    47    46    1
   120    47    48    1
   121    60    59    2
   122    78    68   am
   123    72    71   ar
   124    76    75   ar
   125    84    85    1
   126    85    88    1
   127    48    57   am
   128    48    49    2
   129    68    67    1
   130    68    69    2
   131    59    66   am
   132    59    58    1
   133    57    58    1
   134    67    66    1
   135    67    70    1
   136    71    73   ar
   137    71    70    1
   138    75    73   ar
   139    65    63   ar
   140    58    61    1
   141    61    62    1
   142    88    89    1
   143    63    62    1
   144    63    64   ar
