@<TRIPOS>MOLECULE
tmp/6ildB01.pdb
 166 152 0 0 0
SMALL
GASTEIGER

@<TRIPOS>ATOM
      1  N         -2.9520   11.0410   49.3850 N.3   202  ALA202     -0.1245
      2  CA        -4.0880   10.2080   49.7630 C.3   202  ALA202      0.1562
      3  C         -3.7280    9.4760   51.0460 C.2   202  ALA202      0.2260
      4  O         -2.5840    9.5120   51.5050 O.2   202  ALA202     -0.2867
      5  CB        -4.4600    9.2130   48.6520 C.3   202  ALA202      0.0290
      6  N          0.2370    6.6290   45.2810 N.3   222  ILE222     -0.1231
      7  CA        -1.1430    6.5100   45.7180 C.3   222  ILE222      0.1692
      8  C         -2.0270    7.6230   45.1630 C.2   222  ILE222      0.2591
      9  O         -3.2590    7.4700   45.1570 O.2   222  ILE222     -0.2718
     10  CB        -1.1920    6.4540   47.2590 C.3   222  ILE222      0.0266
     11  CG1       -0.6330    7.7300   47.8620 C.3   222  ILE222      0.0019
     12  CG2       -0.3340    5.2760   47.7610 C.3   222  ILE222      0.0020
     13  CD1       -0.5810    7.7040   49.4260 C.3   222  ILE222      0.0001
     14  N         -1.4430    8.7150   44.6740 N.am  223  ALA223     -0.1980
     15  CA        -2.1490    9.7870   43.9770 C.3   223  ALA223      0.1597
     16  C         -1.1020   10.7150   43.3710 C.2   223  ALA223      0.2287
     17  O          0.0240   10.7730   43.8660 O.2   223  ALA223     -0.2864
     18  CB        -3.0810   10.5730   44.9230 C.3   223  ALA223      0.0319
     19  N         -3.3280    4.3140   39.8710 N.3   245  GLN245     -0.1245
     20  CA        -2.8710    4.4520   41.2440 C.3   245  GLN245      0.1566
     21  C         -2.8370    3.0720   41.8750 C.2   245  GLN245      0.2260
     22  O         -3.4730    2.1450   41.3770 O.2   245  GLN245     -0.2867
     23  CB        -3.7990    5.3500   42.0810 C.3   245  GLN245      0.0367
     24  CG        -4.3680    6.5960   41.3400 C.3   245  GLN245      0.0905
     25  CD        -3.2940    7.5370   40.8240 C.2   245  GLN245      0.2608
     26  OE1       -2.2720    7.7600   41.4740 O.2   245  GLN245     -0.2717
     27  NE2       -3.5190    8.0850   39.6190 N.am  245  GLN245     -0.0878
     28  N         -2.7690    0.6900   45.6530 N.3   247  ARG247     -0.1245
     29  CA        -3.0920    0.5740   47.0720 C.3   247  ARG247      0.1563
     30  C         -2.8140   -0.8600   47.4920 C.2   247  ARG247      0.2260
     31  O         -3.3700   -1.7960   46.9070 O.2   247  ARG247     -0.2867
     32  CB        -4.5560    0.9330   47.3650 C.3   247  ARG247      0.0307
     33  CG        -4.8470    2.4150   47.3510 C.3   247  ARG247      0.0489
     34  CD        -6.3300    2.7500   47.4570 C.3   247  ARG247      0.2205
     35  NE        -6.7900    2.6910   48.8410 N.pl3 247  ARG247     -0.0865
     36  CZ        -6.8670    3.7500   49.6420 C.cat 247  ARG247      0.5346
     37  NH1       -6.5300    4.9580   49.1890 N.pl3 247  ARG247      0.1354
     38  NH2       -7.2870    3.6010   50.8940 N.pl3 247  ARG247      0.1354
     39  N        -15.7420   -2.9360   45.4530 N.3   254  THR254     -0.1203
     40  CA       -15.3950   -1.6160   44.9410 C.3   254  THR254      0.1994
     41  C        -13.9080   -1.2890   45.0390 C.2   254  THR254      0.2618
     42  O        -13.5490   -0.1210   44.8400 O.2   254  THR254     -0.2717
     43  CB       -16.2060   -0.5200   45.6540 C.3   254  THR254      0.1784
     44  OG1      -16.1530   -0.7300   47.0680 O.3   254  THR254     -0.2211
     45  CG2      -17.6660   -0.5290   45.1910 C.3   254  THR254      0.0376
     46  N        -13.0350   -2.2680   45.3350 N.am  255  HIS255     -0.1961
     47  CA       -11.5910   -2.0260   45.4130 C.3   255  HIS255      0.1787
     48  C        -10.7780   -3.1080   44.6850 C.2   255  HIS255      0.2620
     49  O        -11.0470   -4.3060   44.8220 O.2   255  HIS255     -0.2715
     50  CB       -11.1230   -1.9530   46.8840 C.3   255  HIS255      0.0785
     51  CG       -11.7920   -0.8790   47.6970 C.ar  255  HIS255      0.0821
     52  ND1      -13.0500   -1.0280   48.2430 N.ar  255  HIS255     -0.2267
     53  CD2      -11.3610    0.3480   48.0810 C.ar  255  HIS255      0.1154
     54  CE1      -13.3700    0.0640   48.9190 C.ar  255  HIS255      0.1986
     55  NE2      -12.3610    0.9140   48.8370 N.ar  255  HIS255     -0.2212
     56  N         -9.7480   -2.6720   43.9530 N.am  256  ASN256     -0.1972
     57  CA        -8.7090   -3.4400   43.2700 C.3   256  ASN256      0.1688
     58  C         -7.3730   -2.7920   43.6100 C.2   256  ASN256      0.2292
     59  O         -7.3300   -1.5750   43.8090 O.2   256  ASN256     -0.2864
     60  CB        -8.9430   -3.4100   41.7430 C.3   256  ASN256      0.1181
     61  CG        -8.1650   -4.4730   40.9770 C.2   256  ASN256      0.2629
     62  OD1       -8.4450   -5.6680   41.0920 O.2   256  ASN256     -0.2716
     63  ND2       -7.2080   -4.0360   40.1460 N.am  256  ASN256     -0.0877
     64  N         -5.9420    0.8530   40.1190 N.3   259  PHE259     -0.1241
     65  CA        -7.2130    1.4240   39.6710 C.3   259  PHE259      0.1605
     66  C         -6.9040    2.7500   38.9920 C.2   259  PHE259      0.2264
     67  O         -5.8030    3.2760   39.1050 O.2   259  PHE259     -0.2867
     68  CB        -8.2140    1.6000   40.8390 C.3   259  PHE259      0.0534
     69  CG        -7.6760    2.4420   41.9610 C.ar  259  PHE259     -0.0203
     70  CD1       -6.8600    1.8770   42.9410 C.ar  259  PHE259     -0.0042
     71  CD2       -7.9360    3.8080   42.0060 C.ar  259  PHE259     -0.0042
     72  CE1       -6.3200    2.6490   43.9590 C.ar  259  PHE259     -0.0003
     73  CE2       -7.3960    4.5970   43.0340 C.ar  259  PHE259     -0.0003
     74  CZ        -6.5910    4.0240   44.0060 C.ar  259  PHE259     -0.0000
     75  N         -7.7500    6.7890   38.0440 N.3   261  THR261     -0.1218
     76  CA        -8.3800    8.0320   38.4740 C.3   261  THR261      0.1862
     77  C         -8.0740    9.1230   37.4620 C.2   261  THR261      0.2287
     78  O         -7.1010    9.0520   36.7120 O.2   261  THR261     -0.2866
     79  CB        -7.8840    8.5060   39.8600 C.3   261  THR261      0.1770
     80  OG1       -6.5080    8.8770   39.7840 O.3   261  THR261     -0.2211
     81  CG2       -8.0280    7.4180   40.9070 C.3   261  THR261      0.0375
     82  N         -7.3230   13.1310   37.9220 N.3   263  GLU263     -0.1245
     83  CA        -7.1620   14.2920   38.7900 C.3   263  GLU263      0.1567
     84  C         -6.9480   15.5090   37.9100 C.2   263  GLU263      0.2260
     85  O         -6.2920   15.4220   36.8670 O.2   263  GLU263     -0.2867
     86  CB        -5.9810   14.1400   39.7810 C.3   263  GLU263      0.0388
     87  CG        -6.2340   13.0790   40.8730 C.3   263  GLU263      0.1160
     88  CD        -5.5040   13.3480   42.2000 C.2   263  GLU263      0.3649
     89  OE1       -4.8910   14.4370   42.3680 O.co2 263  GLU263     -0.2457
     90  OE2       -5.5460   12.4480   43.0820 O.co2 263  GLU263     -0.2457
     91  N        -15.2790    9.3490   60.1930 N.3   369  ASP369     -0.1239
     92  CA       -15.4570    8.6150   58.9470 C.3   369  ASP369      0.1674
     93  C        -16.4890    7.5110   59.1120 C.2   369  ASP369      0.2266
     94  O        -17.3510    7.3160   58.2400 O.2   369  ASP369     -0.2867
     95  CB       -14.1140    8.0310   58.5080 C.3   369  ASP369      0.1410
     96  CG       -14.1590    7.4320   57.1170 C.2   369  ASP369      0.3668
     97  OD1      -14.6610    8.0990   56.1860 O.co2 369  ASP369     -0.2456
     98  OD2      -13.6690    6.2970   56.9460 O.co2 369  ASP369     -0.2456
     99  N        -14.1420   21.4880   51.0480 N.3   409  ARG409     -0.1245
    100  CA       -14.0250   20.1720   50.4350 C.3   409  ARG409      0.1563
    101  C        -15.4050   19.6450   50.0660 C.2   409  ARG409      0.2260
    102  O        -16.3930   19.9720   50.7250 O.2   409  ARG409     -0.2867
    103  CB       -13.3270   19.2040   51.4100 C.3   409  ARG409      0.0307
    104  CG       -13.1630   17.7670   50.9160 C.3   409  ARG409      0.0489
    105  CD       -12.2910   16.9350   51.8740 C.3   409  ARG409      0.2205
    106  NE       -12.2720   15.5330   51.4350 N.pl3 409  ARG409     -0.0865
    107  CZ       -11.9340   14.5010   52.2100 C.cat 409  ARG409      0.5346
    108  NH1      -11.5400   14.7020   53.4790 N.pl3 409  ARG409      0.1354
    109  NH2      -11.9930   13.2620   51.7220 N.pl3 409  ARG409      0.1354
    110  N        -17.1580   15.6810   48.5610 N.3   411  GLU411     -0.1245
    111  CA       -17.0920   14.3790   47.9250 C.3   411  GLU411      0.1567
    112  C        -18.4070   14.1800   47.1890 C.2   411  GLU411      0.2260
    113  O        -19.4600   14.5940   47.6780 O.2   411  GLU411     -0.2867
    114  CB       -16.8870   13.2470   48.9450 C.3   411  GLU411      0.0388
    115  CG       -15.5030   13.1880   49.5710 C.3   411  GLU411      0.1160
    116  CD       -15.4450   12.2560   50.7800 C.2   411  GLU411      0.3649
    117  OE1      -16.3470   12.3100   51.6300 O.co2 411  GLU411     -0.2457
    118  OE2      -14.4950   11.4640   50.8720 O.co2 411  GLU411     -0.2457
    119  N        -18.4260    6.6820   46.9530 N.3   418  GLU418     -0.1245
    120  CA       -17.7110    7.8960   46.5600 C.3   418  GLU418      0.1567
    121  C        -17.1810    7.7730   45.1330 C.2   418  GLU418      0.2260
    122  O        -16.5240    6.7870   44.7780 O.2   418  GLU418     -0.2867
    123  CB       -16.5560    8.1850   47.5260 C.3   418  GLU418      0.0388
    124  CG       -15.7080    9.4230   47.1360 C.3   418  GLU418      0.1160
    125  CD       -14.4530    9.5370   47.9930 C.2   418  GLU418      0.3649
    126  OE1      -14.5490    9.1980   49.1900 O.co2 418  GLU418     -0.2457
    127  OE2      -13.3800    9.9630   47.4950 O.co2 418  GLU418     -0.2457
    128  N        -13.6620   13.4130   44.8170 N.3   421  ASN421     -0.1240
    129  CA       -13.1770   14.0960   46.0160 C.3   421  ASN421      0.1653
    130  C        -12.4960   15.3650   45.5280 C.2   421  ASN421      0.2266
    131  O        -11.7160   15.3060   44.5760 O.2   421  ASN421     -0.2867
    132  CB       -12.1830   13.2000   46.7760 C.3   421  ASN421      0.1155
    133  CG       -11.6890   13.8120   48.0520 C.2   421  ASN421      0.2627
    134  OD1      -12.4350   14.5050   48.7570 O.2   421  ASN421     -0.2716
    135  ND2      -10.4210   13.5400   48.3860 N.am  421  ASN421     -0.0877
    136  N        -12.8260    8.5550   40.6440 N.3   474  GLY474     -0.1225
    137  CA       -12.5140    7.1400   40.4740 C.3   474  GLY474      0.1811
    138  C        -13.2030    6.6050   39.2280 C.2   474  GLY474      0.2280
    139  O        -14.4220    6.3780   39.2230 O.2   474  GLY474     -0.2866
    140  N        -13.0660    3.7560   37.6030 N.3   476  ASP476     -0.1225
    141  CA       -13.6550    2.4210   37.6390 C.3   476  ASP476      0.1805
    142  C        -15.0410    2.4580   38.2710 C.2   476  ASP476      0.2597
    143  O        -15.9840    1.8300   37.7720 O.2   476  ASP476     -0.2718
    144  CB       -12.7320    1.4550   38.4050 C.3   476  ASP476      0.1424
    145  CG       -11.2360    1.6520   38.0480 C.2   476  ASP476      0.3668
    146  OD1      -10.7660    1.0710   37.0580 O.co2 476  ASP476     -0.2456
    147  OD2      -10.5270    2.3860   38.7500 O.co2 476  ASP476     -0.2456
    148  N        -15.2040    3.2460   39.3250 N.am  477  ARG477     -0.1979
    149  CA       -16.5120    3.3000   39.9560 C.3   477  ARG477      0.1597
    150  C        -17.5280    3.9840   39.0580 C.2   477  ARG477      0.2287
    151  O        -18.6850    3.5630   38.9890 O.2   477  ARG477     -0.2864
    152  CB       -16.3920    3.9950   41.3040 C.3   477  ARG477      0.0334
    153  CG       -15.3990    3.2620   42.1880 C.3   477  ARG477      0.0492
    154  CD       -15.4640    3.7340   43.6060 C.3   477  ARG477      0.2205
    155  NE       -14.4990    3.0470   44.4540 N.pl3 477  ARG477     -0.0865
    156  CZ       -14.4530    3.1850   45.7740 C.cat 477  ARG477      0.5346
    157  NH1      -13.5370    2.5330   46.4790 N.pl3 477  ARG477      0.1354
    158  NH2      -15.3290    3.9830   46.3840 N.pl3 477  ARG477      0.1354
    159  N        -16.4740   -4.4390   40.8290 N.3   488  ILE488     -0.1245
    160  CA       -15.4680   -3.7170   40.0380 C.3   488  ILE488      0.1561
    161  C        -14.7900   -4.6420   39.0410 C.2   488  ILE488      0.2260
    162  O        -14.2950   -4.1820   38.0020 O.2   488  ILE488     -0.2867
    163  CB       -14.4180   -3.0610   40.9510 C.3   488  ILE488      0.0252
    164  CG1      -13.5560   -2.0850   40.1490 C.3   488  ILE488      0.0019
    165  CG2      -13.5250   -4.1290   41.5920 C.3   488  ILE488      0.0019
    166  CD1      -12.5810   -1.3400   40.9850 C.3   488  ILE488      0.0001
@<TRIPOS>BOND
     1    78    77    2
     2    85    84    2
     3   146   145   ar
     4    77    76    1
     5   140   141    1
     6   141   142    1
     7   141   144    1
     8   143   142    2
     9    84    83    1
    10    82    83    1
    11   162   161    2
    12    75    76    1
    13   145   144    1
    14   145   147   ar
    15   142   148   am
    16    76    79    1
    17    83    86    1
    18   151   150    2
    19    66    67    2
    20    66    65    1
    21   161   160    1
    22   150   149    1
    23   139   138    2
    24   138   137    1
    25   148   149    1
    26    27    25   am
    27    65    64    1
    28    65    68    1
    29    86    87    1
    30    80    79    1
    31    79    81    1
    32    19    20    1
    33   149   152    1
    34   160   159    1
    35   160   163    1
    36    63    61   am
    37   164   163    1
    38   164   166    1
    39   137   136    1
    40    25    24    1
    41    25    26    2
    42    68    69    1
    43    87    88    1
    44   163   165    1
    45    61    62    2
    46    61    60    1
    47    20    21    1
    48    20    23    1
    49   152   153    1
    50    24    23    1
    51    22    21    2
    52    60    57    1
    53    69    71   ar
    54    69    70   ar
    55    71    73   ar
    56   153   154    1
    57    88    89   ar
    58    88    90   ar
    59    70    72   ar
    60    73    74   ar
    61    57    58    1
    62    57    56    1
    63    16    17    2
    64    16    15    1
    65   154   155    1
    66    58    59    2
    67    56    48   am
    68    72    74   ar
    69    15    14    1
    70    15    18    1
    71   155   156    2
    72   131   130    2
    73    14     8   am
    74    48    49    2
    75    48    47    1
    76   122   121    2
    77   128   129    1
    78    42    41    2
    79    40    41    1
    80    40    39    1
    81    40    43    1
    82    41    46   am
    83   121   120    1
    84     9     8    2
    85     8     7    1
    86    45    43    1
    87     6     7    1
    88    46    47    1
    89    47    50    1
    90   130   129    1
    91    28    29    1
    92    43    44    1
    93     7    10    1
    94   156   158    1
    95   156   157    1
    96   129   132    1
    97   120   119    1
    98   120   123    1
    99   132   133    1
   100    50    51    1
   101    31    30    2
   102    29    32    1
   103    29    30    1
   104   124   123    1
   105   124   125    1
   106   112   113    2
   107   112   111    1
   108    10    12    1
   109    10    11    1
   110    33    32    1
   111    33    34    1
   112    34    35    1
   113   127   125   ar
   114    51    53   ar
   115    51    52   ar
   116    11    13    1
   117   111   110    1
   118   111   114    1
   119   125   126   ar
   120   133   135   am
   121   133   134    2
   122    53    55   ar
   123    52    54   ar
   124     5     2    1
   125    55    54   ar
   126    35    36    2
   127   114   115    1
   128    37    36    1
   129     1     2    1
   130   115   116    1
   131    36    38    1
   132     2     3    1
   133   101   100    1
   134   101   102    2
   135   100    99    1
   136   100   103    1
   137   116   118   ar
   138   116   117   ar
   139   104   103    1
   140   104   105    1
   141     3     4    2
   142   106   105    1
   143   106   107    2
   144   109   107    1
   145   107   108    1
   146    97    96   ar
   147    98    96   ar
   148    96    95    1
   149    94    93    2
   150    95    92    1
   151    92    93    1
   152    92    91    1
