@<TRIPOS>MOLECULE
tmp/6iliB00.pdb
 168 159 0 0 0
SMALL
GASTEIGER

@<TRIPOS>ATOM
      1  N         13.4010    8.3550  -17.7930 N.3     7  TYR7       -0.1241
      2  CA        14.5980    9.1290  -18.0390 C.3     7  TYR7        0.1605
      3  C         15.8180    8.2270  -18.0430 C.2     7  TYR7        0.2264
      4  O         15.7980    7.1160  -17.4970 O.2     7  TYR7       -0.2867
      5  CB        14.8280   10.1430  -16.9170 C.3     7  TYR7        0.0534
      6  CG        13.8340   11.2920  -16.8870 C.ar    7  TYR7       -0.0201
      7  CD1       12.5440   11.1150  -16.3720 C.ar    7  TYR7       -0.0009
      8  CD2       14.2010   12.5610  -17.3380 C.ar    7  TYR7       -0.0009
      9  CE1       11.6290   12.1630  -16.3080 C.ar    7  TYR7        0.0417
     10  CE2       13.3130   13.6080  -17.2980 C.ar    7  TYR7        0.0417
     11  CZ        12.0190   13.3960  -16.7690 C.ar    7  TYR7        0.1957
     12  OH        11.1130   14.4640  -16.6880 O.3     7  TYR7       -0.2866
     13  N         20.2430    8.4920  -17.3550 N.3     9  LEU9       -0.1245
     14  CA        21.3730    9.2340  -16.8210 C.3     9  LEU9        0.1561
     15  C         22.6180    8.4530  -17.1890 C.2     9  LEU9        0.2260
     16  O         22.6560    7.2400  -16.9860 O.2     9  LEU9       -0.2867
     17  CB        21.2340    9.3290  -15.2970 C.3     9  LEU9        0.0270
     18  CG        22.2440   10.1930  -14.5910 C.3     9  LEU9        0.0019
     19  CD1       22.2050   11.6260  -15.1100 C.3     9  LEU9        0.0001
     20  CD2       21.8730   10.1570  -13.1240 C.3     9  LEU9        0.0001
     21  N         24.6840   22.1260  -15.5750 N.3    23  LYS23      -0.1245
     22  CA        23.4580   22.6390  -16.1580 C.3    23  LYS23       0.1561
     23  C         23.5770   24.1540  -16.2640 C.2    23  LYS23       0.2260
     24  O         23.8760   24.8430  -15.2790 O.2    23  LYS23      -0.2867
     25  CB        22.2800   22.2380  -15.2660 C.3    23  LYS23       0.0271
     26  CG        20.9400   22.1580  -15.9920 C.3    23  LYS23       0.0035
     27  CD        20.8390   20.9060  -16.8630 C.3    23  LYS23       0.0206
     28  CE        19.5060   20.8640  -17.6270 C.3    23  LYS23       0.1093
     29  NZ        19.3860   19.6470  -18.4950 N.3    23  LYS23      -0.1314
     30  N         15.5760   24.8030  -14.3510 N.3    27  PHE27      -0.1241
     31  CA        15.3800   24.4530  -12.9470 C.3    27  PHE27       0.1605
     32  C         16.6320   23.7460  -12.4400 C.2    27  PHE27       0.2264
     33  O         16.8100   22.5400  -12.6360 O.2    27  PHE27      -0.2867
     34  CB        14.1420   23.5760  -12.7920 C.3    27  PHE27       0.0534
     35  CG        12.8730   24.2200  -13.2860 C.ar   27  PHE27      -0.0203
     36  CD1       12.0350   24.8920  -12.4140 C.ar   27  PHE27      -0.0042
     37  CD2       12.5180   24.1620  -14.6250 C.ar   27  PHE27      -0.0042
     38  CE1       10.8550   25.4760  -12.8620 C.ar   27  PHE27      -0.0003
     39  CE2       11.3440   24.7600  -15.0740 C.ar   27  PHE27      -0.0003
     40  CZ        10.5150   25.4170  -14.1950 C.ar   27  PHE27      -0.0000
     41  N         25.7710   17.1700  -13.2310 N.3    33  ASN33      -0.1240
     42  CA        25.1070   15.8650  -13.2750 C.3    33  ASN33       0.1653
     43  C         25.6520   15.0530  -14.4400 C.2    33  ASN33       0.2266
     44  O         26.4100   15.5530  -15.2760 O.2    33  ASN33      -0.2867
     45  CB        23.5780   15.9890  -13.4120 C.3    33  ASN33       0.1155
     46  CG        22.7780   14.6660  -13.0170 C.2    33  ASN33       0.2627
     47  OD1       21.5990   14.6100  -13.3000 O.2    33  ASN33      -0.2716
     48  ND2       23.4080   13.6570  -12.3640 N.am   33  ASN33      -0.0877
     49  N         18.2250   12.5200  -20.1360 N.3    37  GLY37      -0.1210
     50  CA        16.9910   13.2200  -20.4070 C.3    37  GLY37       0.1956
     51  C         15.8780   12.2180  -20.5960 C.2    37  GLY37       0.2611
     52  O         16.0320   11.0100  -20.3300 O.2    37  GLY37      -0.2717
     53  N         14.7600   12.7300  -21.0820 N.am   38  LYS38      -0.1979
     54  CA        13.5870   11.8860  -21.2700 C.3    38  LYS38       0.1596
     55  C         13.8280   10.8890  -22.3840 C.2    38  LYS38       0.2287
     56  O         14.3660   11.2430  -23.4430 O.2    38  LYS38      -0.2864
     57  CB        12.3660   12.7220  -21.6330 C.3    38  LYS38       0.0298
     58  CG        12.0370   13.7620  -20.6050 C.3    38  LYS38       0.0038
     59  CD        10.8660   14.6360  -21.0790 C.3    38  LYS38       0.0206
     60  CE        10.8750   16.0010  -20.4250 C.3    38  LYS38       0.1093
     61  NZ        11.9810   16.8960  -20.9260 N.3    38  LYS38      -0.1314
     62  N         23.9300   15.6900  -25.9130 N.3    56  GLU56      -0.1245
     63  CA        24.2810   16.6830  -24.8980 C.3    56  GLU56       0.1567
     64  C         25.7750   16.9770  -24.8810 C.2    56  GLU56       0.2260
     65  O         26.1620   18.0910  -24.5340 O.2    56  GLU56      -0.2867
     66  CB        23.8090   16.3020  -23.4780 C.3    56  GLU56       0.0388
     67  CG        22.3100   16.5100  -23.2160 C.3    56  GLU56       0.1160
     68  CD        21.9340   16.5090  -21.7290 C.2    56  GLU56       0.3649
     69  OE1       22.6540   15.8770  -20.9260 O.co2  56  GLU56      -0.2457
     70  OE2       20.9130   17.1490  -21.3740 O.co2  56  GLU56      -0.2457
     71  N         12.7320    9.0570   -8.4500 N.3    72  PHE72      -0.1241
     72  CA        12.6420   10.3030   -7.6920 C.3    72  PHE72       0.1605
     73  C         11.1950   10.7120   -7.5440 C.2    72  PHE72       0.2264
     74  O         10.4100   10.5930   -8.4910 O.2    72  PHE72      -0.2867
     75  CB        13.3480   11.4330   -8.4420 C.3    72  PHE72       0.0534
     76  CG        14.8390   11.1790   -8.6900 C.ar   72  PHE72      -0.0203
     77  CD1       15.6900   10.6510   -7.7380 C.ar   72  PHE72      -0.0042
     78  CD2       15.3980   11.5490   -9.8990 C.ar   72  PHE72      -0.0042
     79  CE1       17.0550   10.4670   -8.0410 C.ar   72  PHE72      -0.0003
     80  CE2       16.7450   11.3610  -10.1640 C.ar   72  PHE72      -0.0003
     81  CZ        17.5580   10.8120   -9.2300 C.ar   72  PHE72      -0.0000
     82  N          9.2800   14.1300   -6.2610 N.3    74  PHE74      -0.1241
     83  CA         9.3690   15.5050   -5.7870 C.3    74  PHE74       0.1605
     84  C          8.0340   15.8770   -5.1620 C.2    74  PHE74       0.2264
     85  O          6.9800   15.7130   -5.8060 O.2    74  PHE74      -0.2867
     86  CB         9.7080   16.4440   -6.9670 C.3    74  PHE74       0.0534
     87  CG        11.1460   16.3690   -7.3680 C.ar   74  PHE74      -0.0203
     88  CD1       12.0710   17.1970   -6.7130 C.ar   74  PHE74      -0.0042
     89  CD2       11.5980   15.4600   -8.3300 C.ar   74  PHE74      -0.0042
     90  CE1       13.4240   17.1520   -7.0200 C.ar   74  PHE74      -0.0003
     91  CE2       12.9440   15.4000   -8.6300 C.ar   74  PHE74      -0.0003
     92  CZ        13.8720   16.2490   -7.9770 C.ar   74  PHE74      -0.0000
     93  N          4.6150   17.3150   -6.9290 N.3    77  GLU77      -0.1245
     94  CA         4.4580   16.9110   -8.3260 C.3    77  GLU77       0.1567
     95  C          3.5200   15.7140   -8.3840 C.2    77  GLU77       0.2260
     96  O          3.3090   15.0300   -7.3730 O.2    77  GLU77      -0.2867
     97  CB         5.8130   16.5650   -8.9180 C.3    77  GLU77       0.0388
     98  CG         6.6010   17.8190   -9.3020 C.3    77  GLU77       0.1160
     99  CD         7.9280   17.5030   -9.9710 C.2    77  GLU77       0.3649
    100  OE1        8.1200   16.3840  -10.4460 O.co2  77  GLU77      -0.2457
    101  OE2        8.8030   18.3880   -9.9570 O.co2  77  GLU77      -0.2457
    102  N          9.8290   10.2690  -11.3000 N.3    81  MET81      -0.1245
    103  CA        10.8210   10.0850  -12.3590 C.3    81  MET81       0.1570
    104  C         11.4710    8.7130  -12.2100 C.2    81  MET81       0.2261
    105  O         12.0060    8.3850  -11.1660 O.2    81  MET81      -0.2867
    106  CB        11.9300   11.1230  -12.2780 C.3    81  MET81       0.0387
    107  CG        11.4590   12.4970  -12.3160 C.3    81  MET81       0.0595
    108  SD        12.8740   13.6580  -12.1920 S.3    81  MET81      -0.1393
    109  CE        13.8210   13.2190  -13.6290 C.3    81  MET81       0.0692
    110  N         22.9610   24.1510  -23.1210 N.3   100  GLU100     -0.1245
    111  CA        22.4030   23.8020  -21.8360 C.3   100  GLU100      0.1567
    112  C         23.3830   23.1150  -20.9040 C.2   100  GLU100      0.2260
    113  O         23.0790   23.0050  -19.7110 O.2   100  GLU100     -0.2867
    114  CB        21.1460   22.9370  -22.0020 C.3   100  GLU100      0.0388
    115  CG        20.0790   23.6240  -22.8450 C.3   100  GLU100      0.1160
    116  CD        18.6700   23.2530  -22.4350 C.2   100  GLU100      0.3649
    117  OE1       18.4360   23.0260  -21.2250 O.co2 100  GLU100     -0.2457
    118  OE2       17.7910   23.1960  -23.3240 O.co2 100  GLU100     -0.2457
    119  N         23.2010   16.9950   -7.3990 N.3   117  TRP117     -0.1241
    120  CA        21.9600   16.6540   -6.7230 C.3   117  TRP117      0.1605
    121  C         22.2480   15.8320   -5.4680 C.2   117  TRP117      0.2264
    122  O         23.1270   14.9650   -5.4750 O.2   117  TRP117     -0.2867
    123  CB        21.0730   15.8490   -7.6630 C.3   117  TRP117      0.0550
    124  CG        20.4000   16.7350   -8.6170 C.ar  117  TRP117      0.0003
    125  CD1       20.8370   17.0900   -9.8840 C.ar  117  TRP117      0.0946
    126  CD2       19.1710   17.4160   -8.3940 C.ar  117  TRP117      0.0152
    127  NE1       19.9110   17.9510  -10.4480 N.ar  117  TRP117     -0.2442
    128  CE2       18.8830   18.1600   -9.5580 C.ar  117  TRP117      0.0810
    129  CE3       18.2590   17.4420   -7.3260 C.ar  117  TRP117      0.0012
    130  CZ2       17.7170   18.9490   -9.6750 C.ar  117  TRP117      0.0191
    131  CZ3       17.1110   18.2220   -7.4380 C.ar  117  TRP117      0.0001
    132  CH2       16.8540   18.9700   -8.6060 C.ar  117  TRP117      0.0015
    133  N         20.9320   13.2610   -4.0210 N.3   119  ASP119     -0.1225
    134  CA        20.8820   11.8130   -4.0320 C.3   119  ASP119      0.1805
    135  C         22.1840   11.2240   -4.5430 C.2   119  ASP119      0.2597
    136  O         22.5100   10.0710   -4.2160 O.2   119  ASP119     -0.2718
    137  CB        19.7710   11.3620   -4.9550 C.3   119  ASP119      0.1424
    138  CG        19.8870   11.9960   -6.3140 C.2   119  ASP119      0.3668
    139  OD1       19.6150   13.2010   -6.4290 O.co2 119  ASP119     -0.2456
    140  OD2       20.3330   11.3370   -7.2720 O.co2 119  ASP119     -0.2456
    141  N         22.9230   11.9860   -5.3570 N.am  120  ASN120     -0.1974
    142  CA        24.1290   11.4410   -5.9650 C.3   120  ASN120      0.1688
    143  C         25.1170   10.9650   -4.9010 C.2   120  ASN120      0.2292
    144  O         25.8240    9.9800   -5.1130 O.2   120  ASN120     -0.2864
    145  CB        24.7900   12.4920   -6.9060 C.3   120  ASN120      0.1181
    146  CG        24.0940   12.6870   -8.2730 C.2   120  ASN120      0.2629
    147  OD1       24.7470   13.1430   -9.1780 O.2   120  ASN120     -0.2716
    148  ND2       22.8070   12.3670   -8.4010 N.am  120  ASN120     -0.0877
    149  N         12.1990   14.0840   -2.5100 N.3   139  PHE139     -0.1241
    150  CA        12.7960   15.4110   -2.4140 C.3   139  PHE139      0.1605
    151  C         11.7570   16.4490   -2.0390 C.2   139  PHE139      0.2264
    152  O         10.6710   16.4880   -2.6120 O.2   139  PHE139     -0.2867
    153  CB        13.4000   15.8750   -3.7570 C.3   139  PHE139      0.0534
    154  CG        14.8010   15.4110   -3.9690 C.ar  139  PHE139     -0.0203
    155  CD1       15.0720   14.1360   -4.4040 C.ar  139  PHE139     -0.0042
    156  CD2       15.8620   16.2470   -3.6320 C.ar  139  PHE139     -0.0042
    157  CE1       16.4090   13.7050   -4.5690 C.ar  139  PHE139     -0.0003
    158  CE2       17.1800   15.8390   -3.8070 C.ar  139  PHE139     -0.0003
    159  CZ        17.4540   14.5710   -4.2670 C.ar  139  PHE139     -0.0000
    160  N         14.8660   21.2660   -4.2240 N.3   142  GLN142     -0.1245
    161  CA        16.0690   20.7650   -4.8770 C.3   142  GLN142      0.1566
    162  C         17.1410   20.3140   -3.9000 C.2   142  GLN142      0.2260
    163  O         18.1060   19.6650   -4.3250 O.2   142  GLN142     -0.2867
    164  CB        16.6490   21.8380   -5.8040 C.3   142  GLN142      0.0367
    165  CG        15.6020   22.5380   -6.6760 C.3   142  GLN142      0.0905
    166  CD        16.0200   22.5790   -8.1320 C.2   142  GLN142      0.2608
    167  OE1       17.2120   22.5560   -8.4420 O.2   142  GLN142     -0.2717
    168  NE2       15.0420   22.6220   -9.0360 N.am  142  GLN142     -0.0878
@<TRIPOS>BOND
     1    62    63    1
     2    63    64    1
     3    63    66    1
     4    64    65    2
     5    66    67    1
     6    56    55    2
     7   118   116   ar
     8    67    68    1
     9   110   111    1
    10   115   116    1
    11   115   114    1
    12   116   117   ar
    13    55    54    1
    14   114   111    1
    15   111   112    1
    16    68    70   ar
    17    68    69   ar
    18    57    54    1
    19    57    58    1
    20    54    53    1
    21    53    51   am
    22    59    58    1
    23    59    60    1
    24    61    60    1
    25   112   113    2
    26    51    50    1
    27    51    52    2
    28    50    49    1
    29    29    28    1
    30     3     2    1
    31     3     4    2
    32     2     1    1
    33     2     5    1
    34    28    27    1
    35    13    14    1
    36     8    10   ar
    37     8     6   ar
    38    10    11   ar
    39    15    16    2
    40    15    14    1
    41     5     6    1
    42     6     7   ar
    43    27    26    1
    44    14    17    1
    45    11    12    1
    46    11     9   ar
    47     7     9   ar
    48    23    22    1
    49    23    24    2
    50    22    21    1
    51    22    25    1
    52    26    25    1
    53    17    18    1
    54    44    43    2
    55    19    18    1
    56    39    37   ar
    57    39    40   ar
    58    37    35   ar
    59    18    20    1
    60    43    42    1
    61    30    31    1
    62    40    38   ar
    63   109   108    1
    64    45    42    1
    65    45    46    1
    66    47    46    2
    67    35    34    1
    68    35    36   ar
    69    42    41    1
    70    46    48   am
    71    31    34    1
    72    31    32    1
    73    38    36   ar
    74    33    32    2
    75   103   106    1
    76   103   104    1
    77   103   102    1
    78   107   106    1
    79   107   108    1
    80   104   105    2
    81   127   125   ar
    82   127   128   ar
    83   100    99   ar
    84    80    78   ar
    85    80    81   ar
    86    99   101   ar
    87    99    98    1
    88    78    76   ar
    89   125   124   ar
    90   130   128   ar
    91   130   132   ar
    92   128   126   ar
    93    98    97    1
    94    81    79   ar
    95   147   146    2
    96   168   166   am
    97    97    94    1
    98    76    75    1
    99    76    77   ar
   100    91    89   ar
   101    91    92   ar
   102   124   126   ar
   103   124   123    1
   104   132   131   ar
   105    74    73    2
   106    71    72    1
   107   167   166    2
   108    75    72    1
   109   148   146   am
   110   126   129   ar
   111    95    94    1
   112    95    96    2
   113    89    87   ar
   114    94    93    1
   115   146   145    1
   116   166   165    1
   117    79    77   ar
   118    92    90   ar
   119    72    73    1
   120   123   120    1
   121   131   129   ar
   122   119   120    1
   123    87    86    1
   124    87    88   ar
   125   140   138   ar
   126    90    88   ar
   127    86    83    1
   128   145   142    1
   129   120   121    1
   130   165   164    1
   131   139   138   ar
   132   138   137    1
   133    82    83    1
   134   142   141    1
   135   142   143    1
   136    85    84    2
   137   164   161    1
   138    83    84    1
   139   122   121    2
   140   141   135   am
   141   144   143    2
   142   137   134    1
   143   161   160    1
   144   161   162    1
   145   157   155   ar
   146   157   159   ar
   147   135   136    2
   148   135   134    1
   149   155   154   ar
   150   163   162    2
   151   159   158   ar
   152   134   133    1
   153   154   153    1
   154   154   156   ar
   155   158   156   ar
   156   153   150    1
   157   152   151    2
   158   149   150    1
   159   150   151    1
