@<TRIPOS>MOLECULE
tmp/6ilrB00.pdb
 96 85 0 0 0
SMALL
GASTEIGER

@<TRIPOS>ATOM
      1  N         54.3630   15.0790   60.9180 N.3   189  ASN189     -0.1240
      2  CA        55.6590   15.7280   60.7610 C.3   189  ASN189      0.1653
      3  C         56.6970   14.7130   60.2800 C.2   189  ASN189      0.2266
      4  O         56.3340   13.6060   59.8760 O.2   189  ASN189     -0.2867
      5  CB        56.1190   16.3980   62.0560 C.3   189  ASN189      0.1155
      6  CG        56.2250   15.4370   63.2180 C.2   189  ASN189      0.2627
      7  OD1       56.3870   14.2340   63.0390 O.2   189  ASN189     -0.2716
      8  ND2       56.1500   15.9740   64.4250 N.am  189  ASN189     -0.0877
      9  N         54.3660   18.2070   57.5440 N.3   225  LYS225     -0.1245
     10  CA        54.9080   19.3430   58.2770 C.3   225  LYS225      0.1561
     11  C         56.3930   19.0980   58.5480 C.2   225  LYS225      0.2260
     12  O         56.7610   18.1260   59.2010 O.2   225  LYS225     -0.2867
     13  CB        54.1140   19.5640   59.5810 C.3   225  LYS225      0.0271
     14  CG        52.6000   19.7320   59.3300 C.3   225  LYS225      0.0035
     15  CD        51.7400   19.6690   60.6110 C.3   225  LYS225      0.0206
     16  CE        51.7420   18.2680   61.2080 C.3   225  LYS225      0.1093
     17  NZ        50.4770   17.9460   61.9290 N.3   225  LYS225     -0.1314
     18  N         58.6020   21.3120   59.9860 N.3   227  GLY227     -0.1210
     19  CA        59.1420   22.2840   60.9250 C.3   227  GLY227      0.1956
     20  C         59.8300   23.4460   60.2330 C.2   227  GLY227      0.2612
     21  O         59.2370   24.1000   59.3830 O.2   227  GLY227     -0.2717
     22  N         61.0960   23.6780   60.5670 N.am  228  SER228     -0.1952
     23  CA        61.8800   24.7470   59.9460 C.3   228  SER228      0.1924
     24  C         62.0140   24.5930   58.4370 C.2   228  SER228      0.2314
     25  O         62.2970   25.5630   57.7390 O.2   228  SER228     -0.2863
     26  CB        63.2770   24.8170   60.5660 C.3   228  SER228      0.2116
     27  OG        63.2100   25.1750   61.9330 O.3   228  SER228     -0.2180
     28  N         59.7320   23.8650   56.3380 N.3   230  GLY230     -0.1210
     29  CA        58.5120   24.2070   55.6390 C.3   230  GLY230      0.1956
     30  C         57.4840   23.0970   55.6710 C.2   230  GLY230      0.2612
     31  O         57.3640   22.3720   56.6560 O.2   230  GLY230     -0.2717
     32  N         56.7390   22.9720   54.5840 N.am  231  SER231     -0.1952
     33  CA        55.6900   21.9760   54.4980 C.3   231  SER231      0.1924
     34  C         55.4480   21.5830   53.0550 C.2   231  SER231      0.2314
     35  O         55.9360   22.2380   52.1340 O.2   231  SER231     -0.2863
     36  CB        54.3990   22.5090   55.1180 C.3   231  SER231      0.2116
     37  OG        53.8390   23.5460   54.3280 O.3   231  SER231     -0.2180
     38  N         58.9860   27.8220   55.2620 N.3   245  ILE245     -0.1245
     39  CA        58.4710   28.5470   56.4200 C.3   245  ILE245      0.1561
     40  C         58.3700   30.0330   56.0920 C.2   245  ILE245      0.2260
     41  O         59.0990   30.5410   55.2370 O.2   245  ILE245     -0.2867
     42  CB        59.3510   28.3810   57.6670 C.3   245  ILE245      0.0252
     43  CG1       60.7580   28.9180   57.3960 C.3   245  ILE245      0.0019
     44  CG2       59.3750   26.9330   58.1110 C.3   245  ILE245      0.0019
     45  CD1       61.6040   29.0400   58.6300 C.3   245  ILE245      0.0001
     46  N         61.6320   33.5470   67.3460 N.3   251  VAL251     -0.1245
     47  CA        61.0830   32.2690   67.7760 C.3   251  VAL251      0.1561
     48  C         61.1010   32.2020   69.3000 C.2   251  VAL251      0.2260
     49  O         62.1440   32.0030   69.9160 O.2   251  VAL251     -0.2867
     50  CB        61.8580   31.0810   67.1940 C.3   251  VAL251      0.0252
     51  CG1       61.1820   29.7750   67.5930 C.3   251  VAL251      0.0019
     52  CG2       61.9480   31.1980   65.6790 C.3   251  VAL251      0.0019
     53  N         57.6990   27.2690   70.2810 N.3   254  THR254     -0.1218
     54  CA        57.1000   26.5160   69.1840 C.3   254  THR254      0.1862
     55  C         55.9320   25.6430   69.6220 C.2   254  THR254      0.2287
     56  O         55.3150   24.9860   68.7910 O.2   254  THR254     -0.2866
     57  CB        58.1250   25.6070   68.4870 C.3   254  THR254      0.1770
     58  OG1       58.6470   24.6720   69.4340 O.3   254  THR254     -0.2211
     59  CG2       59.2620   26.4270   67.8920 C.3   254  THR254      0.0375
     60  N         52.5870   25.0260   67.4660 N.3   257  ALA257     -0.1231
     61  CA        52.7750   25.4560   66.0780 C.3   257  ALA257      0.1694
     62  C         52.2370   24.4260   65.0860 C.2   257  ALA257      0.2592
     63  O         51.5910   24.7800   64.0890 O.2   257  ALA257     -0.2718
     64  CB        54.2530   25.7360   65.7940 C.3   257  ALA257      0.0304
     65  N         52.5080   23.1510   65.3560 N.am  258  GLY258     -0.1957
     66  CA        51.9830   22.0810   64.5280 C.3   258  GLY258      0.1869
     67  C         50.4620   22.1060   64.5320 C.2   258  GLY258      0.2309
     68  O         49.8320   21.9660   63.4890 O.2   258  GLY258     -0.2863
     69  N         49.2940   25.1590   62.5240 N.3   261  PHE261     -0.1241
     70  CA        49.4710   24.9370   61.0910 C.3   261  PHE261      0.1605
     71  C         48.3150   24.0970   60.5510 C.2   261  PHE261      0.2264
     72  O         47.6720   24.4550   59.5540 O.2   261  PHE261     -0.2867
     73  CB        50.8140   24.2550   60.8010 C.3   261  PHE261      0.0534
     74  CG        51.1080   24.1080   59.3260 C.ar  261  PHE261     -0.0203
     75  CD1       50.6260   23.0200   58.6100 C.ar  261  PHE261     -0.0042
     76  CD2       51.8670   25.0640   58.6600 C.ar  261  PHE261     -0.0042
     77  CE1       50.8920   22.9000   57.2390 C.ar  261  PHE261     -0.0003
     78  CE2       52.1390   24.9470   57.3000 C.ar  261  PHE261     -0.0003
     79  CZ        51.6490   23.8690   56.5920 C.ar  261  PHE261     -0.0000
     80  N         51.1840   28.3860   56.8500 N.3   283  ALA283     -0.1245
     81  CA        52.5650   28.7620   57.1610 C.3   283  ALA283      0.1562
     82  C         52.6240   30.1060   57.8820 C.2   283  ALA283      0.2260
     83  O         53.4370   30.2990   58.7870 O.2   283  ALA283     -0.2867
     84  CB        53.4110   28.8140   55.8910 C.3   283  ALA283      0.0290
     85  N         51.3490   29.6620   61.5130 N.3   286  ALA286     -0.1245
     86  CA        52.3700   28.9920   62.3130 C.3   286  ALA286      0.1562
     87  C         53.5260   29.9370   62.6350 C.2   286  ALA286      0.2260
     88  O         54.1040   29.8760   63.7120 O.2   286  ALA286     -0.2867
     89  CB        52.8860   27.7620   61.5870 C.3   286  ALA286      0.0290
     90  N         54.6240   30.9800   66.7950 N.3   290  VAL290     -0.1245
     91  CA        55.8780   30.6940   67.4940 C.3   290  VAL290      0.1561
     92  C         56.5090   31.9300   68.1420 C.2   290  VAL290      0.2260
     93  O         57.5300   31.8240   68.8240 O.2   290  VAL290     -0.2867
     94  CB        56.9280   30.0490   66.5470 C.3   290  VAL290      0.0252
     95  CG1       56.3740   28.7670   65.9080 C.3   290  VAL290      0.0019
     96  CG2       57.3870   31.0360   65.4790 C.3   290  VAL290      0.0019
@<TRIPOS>BOND
     1    35    34    2
     2    34    33    1
     3    37    36    1
     4    33    32    1
     5    33    36    1
     6    32    30   am
     7    41    40    2
     8    38    39    1
     9    29    30    1
    10    29    28    1
    11    30    31    2
    12    84    81    1
    13    40    39    1
    14    39    42    1
    15    79    77   ar
    16    79    78   ar
    17    80    81    1
    18    81    82    1
    19    77    75   ar
    20    78    76   ar
    21    43    42    1
    22    43    45    1
    23     9    10    1
    24    42    44    1
    25    25    24    2
    26    82    83    2
    27    10    11    1
    28    10    13    1
    29    24    23    1
    30    11    12    2
    31    75    74   ar
    32    76    74   ar
    33    74    73    1
    34    14    13    1
    35    14    15    1
    36    21    20    2
    37    72    71    2
    38     4     3    2
    39    23    26    1
    40    23    22    1
    41    18    19    1
    42    20    22   am
    43    20    19    1
    44     3     2    1
    45    71    70    1
    46    26    27    1
    47    15    16    1
    48     2     1    1
    49     2     5    1
    50    73    70    1
    51    70    69    1
    52    16    17    1
    53    85    86    1
    54    89    86    1
    55     5     6    1
    56    86    87    1
    57    87    88    2
    58     7     6    2
    59     6     8   am
    60    68    67    2
    61    63    62    2
    62    66    67    1
    63    66    65    1
    64    62    65   am
    65    62    61    1
    66    96    94    1
    67    52    50    1
    68    64    61    1
    69    95    94    1
    70    61    60    1
    71    94    91    1
    72    90    91    1
    73    50    51    1
    74    50    47    1
    75    46    47    1
    76    91    92    1
    77    47    48    1
    78    59    57    1
    79    92    93    2
    80    57    54    1
    81    57    58    1
    82    56    55    2
    83    54    55    1
    84    54    53    1
    85    48    49    2
