@<TRIPOS>MOLECULE
tmp/6ilsB01.pdb
 107 96 0 0 0
SMALL
GASTEIGER

@<TRIPOS>ATOM
      1  N         44.3820   19.3990   77.4990 N.3    12  ASN12      -0.1240
      2  CA        45.3440   19.1960   78.5810 C.3    12  ASN12       0.1653
      3  C         45.6120   20.4760   79.3400 C.2    12  ASN12       0.2266
      4  O         45.6900   21.5400   78.7350 O.2    12  ASN12      -0.2867
      5  CB        46.7070   18.7120   78.0480 C.3    12  ASN12       0.1155
      6  CG        46.6680   17.3190   77.4880 C.2    12  ASN12       0.2627
      7  OD1       45.8970   16.4720   77.9380 O.2    12  ASN12      -0.2716
      8  ND2       47.5400   17.0560   76.5140 N.am   12  ASN12      -0.0877
      9  N         48.7310   22.1010   80.7040 N.3    14  ASP14      -0.1239
     10  CA        50.1610   21.9270   80.5140 C.3    14  ASP14       0.1674
     11  C         50.9140   22.4920   81.7160 C.2    14  ASP14       0.2266
     12  O         50.9050   23.6980   81.9250 O.2    14  ASP14      -0.2867
     13  CB        50.6050   22.6120   79.2220 C.3    14  ASP14       0.1410
     14  CG        50.1380   21.8640   77.9650 C.2    14  ASP14       0.3668
     15  OD1       49.9030   20.6350   78.0550 O.co2  14  ASP14      -0.2456
     16  OD2       50.0380   22.5060   76.8960 O.co2  14  ASP14      -0.2456
     17  N         54.2160   23.3230   83.1790 N.3    16  TYR16      -0.1241
     18  CA        55.6220   23.5860   82.8790 C.3    16  TYR16       0.1605
     19  C         56.4130   23.8870   84.1280 C.2    16  TYR16       0.2264
     20  O         56.0460   24.7850   84.8790 O.2    16  TYR16      -0.2867
     21  CB        55.7460   24.7670   81.9250 C.3    16  TYR16       0.0534
     22  CG        55.1350   24.4980   80.5810 C.ar   16  TYR16      -0.0201
     23  CD1       55.8230   23.7710   79.6250 C.ar   16  TYR16      -0.0009
     24  CD2       53.8650   24.9630   80.2710 C.ar   16  TYR16      -0.0009
     25  CE1       55.2700   23.5140   78.3930 C.ar   16  TYR16       0.0417
     26  CE2       53.2990   24.7150   79.0410 C.ar   16  TYR16       0.0417
     27  CZ        54.0070   23.9860   78.1030 C.ar   16  TYR16       0.1957
     28  OH        53.4480   23.7310   76.8700 O.3    16  TYR16      -0.2866
     29  N         46.0450   23.8200   77.1000 N.3    39  GLY39      -0.1210
     30  CA        46.6770   23.2180   75.9420 C.3    39  GLY39       0.1956
     31  C         46.0210   21.9020   75.5730 C.2    39  GLY39       0.2612
     32  O         44.8380   21.6880   75.8310 O.2    39  GLY39      -0.2717
     33  N         46.8140   21.0100   75.0010 N.am   40  GLY40      -0.1942
     34  CA        46.2830   19.8110   74.3890 C.3    40  GLY40       0.2014
     35  C         46.1370   20.0430   72.8970 C.2    40  GLY40       0.2638
     36  O         45.6880   21.1140   72.4700 O.2    40  GLY40      -0.2714
     37  N         46.4610   19.0330   72.0880 N.am   41  LYS41      -0.1977
     38  CA        46.4400   19.2370   70.6300 C.3    41  LYS41       0.1596
     39  C         45.0540   19.5900   70.1250 C.2    41  LYS41       0.2287
     40  O         44.9170   20.4510   69.2810 O.2    41  LYS41      -0.2864
     41  CB        46.9930   17.9990   69.8960 C.3    41  LYS41       0.0298
     42  CG        48.4900   17.8840   70.1020 C.3    41  LYS41       0.0038
     43  CD        49.1150   16.6230   69.5490 C.3    41  LYS41       0.0206
     44  CE        50.6160   16.6090   69.9240 C.3    41  LYS41       0.1093
     45  NZ        51.3590   17.7480   69.2870 N.3    41  LYS41      -0.1314
     46  N         44.0950   23.1480   71.3570 N.3    44  ASN44      -0.1240
     47  CA        44.9410   24.0940   70.6070 C.3    44  ASN44       0.1653
     48  C         44.3960   24.3380   69.2190 C.2    44  ASN44       0.2266
     49  O         44.3220   25.4710   68.7490 O.2    44  ASN44      -0.2867
     50  CB        46.3790   23.5920   70.4720 C.3    44  ASN44       0.1155
     51  CG        47.1530   23.6680   71.7600 C.2    44  ASN44       0.2627
     52  OD1       46.7290   24.3020   72.7230 O.2    44  ASN44      -0.2716
     53  ND2       48.3330   23.0540   71.7710 N.am   44  ASN44      -0.0877
     54  N         49.7180   17.3500   81.2610 N.3    98  ALA98      -0.1245
     55  CA        51.0730   17.0080   80.8510 C.3    98  ALA98       0.1562
     56  C         52.0720   17.7750   81.7080 C.2    98  ALA98       0.2260
     57  O         52.0640   19.0080   81.7250 O.2    98  ALA98      -0.2867
     58  CB        51.2830   17.3290   79.3780 C.3    98  ALA98       0.0290
     59  N         58.7120   14.9770   79.1610 N.3   110  ILE110     -0.1245
     60  CA        57.2730   15.1240   79.3430 C.3   110  ILE110      0.1561
     61  C         56.5990   13.8650   79.8810 C.2   110  ILE110      0.2260
     62  O         56.8690   12.7600   79.4130 O.2   110  ILE110     -0.2867
     63  CB        56.5960   15.5440   78.0160 C.3   110  ILE110      0.0252
     64  CG1       57.1050   16.9240   77.5930 C.3   110  ILE110      0.0019
     65  CG2       55.0670   15.5470   78.1540 C.3   110  ILE110      0.0019
     66  CD1       56.3570   17.5530   76.4510 C.3   110  ILE110      0.0001
     67  N         52.7160   12.5390   80.2870 N.3   112  ILE112     -0.1245
     68  CA        51.3510   12.8490   79.8730 C.3   112  ILE112      0.1561
     69  C         50.3390   11.9660   80.5940 C.2   112  ILE112      0.2260
     70  O         50.4650   10.7390   80.6260 O.2   112  ILE112     -0.2867
     71  CB        51.1850   12.7290   78.3360 C.3   112  ILE112      0.0252
     72  CG1       51.6900   14.0160   77.6820 C.3   112  ILE112      0.0019
     73  CG2       49.7220   12.4910   77.9570 C.3   112  ILE112      0.0019
     74  CD1       51.5600   14.0760   76.1950 C.3   112  ILE112      0.0001
     75  N         45.5120   11.8280   70.6150 N.3   144  GLU144     -0.1245
     76  CA        45.5430   12.0160   72.0710 C.3   144  GLU144      0.1567
     77  C         44.1990   11.6430   72.6980 C.2   144  GLU144      0.2260
     78  O         43.9240   11.9830   73.8530 O.2   144  GLU144     -0.2867
     79  CB        45.9190   13.4780   72.4080 C.3   144  GLU144      0.0388
     80  CG        47.3430   13.8440   72.0250 C.3   144  GLU144      0.1160
     81  CD        47.8170   15.1840   72.6160 C.2   144  GLU144      0.3649
     82  OE1       46.9830   16.0960   72.8470 O.co2 144  GLU144     -0.2457
     83  OE2       49.0350   15.3050   72.8670 O.co2 144  GLU144     -0.2457
     84  N         55.8170   25.8740   71.1360 N.3   255  THR255     -0.1203
     85  CA        54.6860   25.0910   71.6070 C.3   255  THR255      0.1994
     86  C         53.3830   25.5350   70.9250 C.2   255  THR255      0.2618
     87  O         53.0430   26.7250   70.9180 O.2   255  THR255     -0.2717
     88  CB        54.5190   25.1910   73.1410 C.3   255  THR255      0.1784
     89  OG1       55.7470   24.8040   73.7820 O.3   255  THR255     -0.2211
     90  CG2       53.3930   24.2820   73.6010 C.3   255  THR255      0.0376
     91  N         52.6720   24.5720   70.3440 N.am  256  GLY256     -0.1956
     92  CA        51.3950   24.8320   69.7010 C.3   256  GLY256      0.1869
     93  C         51.5030   25.2320   68.2300 C.2   256  GLY256      0.2309
     94  O         50.4940   25.3810   67.5420 O.2   256  GLY256     -0.2863
     95  N         50.1790   22.6600   65.8320 N.3   259  ASP259     -0.1239
     96  CA        48.7250   22.6840   65.9420 C.3   259  ASP259      0.1674
     97  C         48.1440   23.8540   65.1720 C.2   259  ASP259      0.2266
     98  O         47.1290   23.7190   64.4810 O.2   259  ASP259     -0.2867
     99  CB        48.2970   22.7590   67.4090 C.3   259  ASP259      0.1410
    100  CG        48.6880   21.5120   68.1870 C.2   259  ASP259      0.3668
    101  OD1       48.5340   20.4150   67.6170 O.co2 259  ASP259     -0.2456
    102  OD2       49.1600   21.6350   69.3410 O.co2 259  ASP259     -0.2456
    103  N         50.7270   28.0290   74.2660 N.3   295  ALA295     -0.1245
    104  CA        50.0390   27.5220   73.0770 C.3   295  ALA295      0.1562
    105  C         48.8600   28.4180   72.7050 C.2   295  ALA295      0.2260
    106  O         48.9500   29.2400   71.7910 O.2   295  ALA295     -0.2867
    107  CB        49.5710   26.0830   73.2930 C.3   295  ALA295      0.0290
@<TRIPOS>BOND
     1    98    97    2
     2    97    96    1
     3    95    96    1
     4    96    99    1
     5    99   100    1
     6    94    93    2
     7   101   100   ar
     8   100   102   ar
     9    93    92    1
    10    49    48    2
    11    48    47    1
    12    40    39    2
    13    45    44    1
    14    43    44    1
    15    43    42    1
    16    92    91    1
    17    41    42    1
    18    41    38    1
    19    39    38    1
    20    91    86   am
    21    50    47    1
    22    50    51    1
    23    47    46    1
    24    75    76    1
    25    38    37    1
    26    87    86    2
    27    86    85    1
    28    84    85    1
    29    85    88    1
    30    51    53   am
    31    51    52    2
    32   106   105    2
    33    80    79    1
    34    80    81    1
    35    76    79    1
    36    76    77    1
    37    37    35   am
    38    36    35    2
    39    81    82   ar
    40    81    83   ar
    41    77    78    2
    42   105   104    1
    43    35    34    1
    44   104   107    1
    45   104   103    1
    46    88    90    1
    47    88    89    1
    48    34    33    1
    49    33    31   am
    50    31    32    2
    51    31    30    1
    52    30    29    1
    53    74    72    1
    54    66    64    1
    55     8     6   am
    56    28    27    1
    57    16    14   ar
    58     6     7    2
    59     6     5    1
    60     1     2    1
    61    64    63    1
    62    72    71    1
    63    73    71    1
    64    14    15   ar
    65    14    13    1
    66    63    65    1
    67    63    60    1
    68     5     2    1
    69    27    25   ar
    70    27    26   ar
    71    71    68    1
    72    25    23   ar
    73     2     3    1
    74     4     3    2
    75    26    24   ar
    76    59    60    1
    77    13    10    1
    78    60    61    1
    79    58    55    1
    80    62    61    2
    81    23    22   ar
    82    68    67    1
    83    68    69    1
    84    24    22   ar
    85    10     9    1
    86    10    11    1
    87    22    21    1
    88    69    70    2
    89    55    54    1
    90    55    56    1
    91    56    57    2
    92    11    12    2
    93    21    18    1
    94    18    17    1
    95    18    19    1
    96    19    20    2
