@<TRIPOS>MOLECULE
tmp/6ilsB00.pdb
 151 138 0 0 0
SMALL
GASTEIGER

@<TRIPOS>ATOM
      1  N         46.4610   19.0330   72.0880 N.3    41  LYS41      -0.1245
      2  CA        46.4400   19.2370   70.6300 C.3    41  LYS41       0.1561
      3  C         45.0540   19.5900   70.1250 C.2    41  LYS41       0.2260
      4  O         44.9170   20.4510   69.2810 O.2    41  LYS41      -0.2867
      5  CB        46.9930   17.9990   69.8960 C.3    41  LYS41       0.0271
      6  CG        48.4900   17.8840   70.1020 C.3    41  LYS41       0.0035
      7  CD        49.1150   16.6230   69.5490 C.3    41  LYS41       0.0206
      8  CE        50.6160   16.6090   69.9240 C.3    41  LYS41       0.1093
      9  NZ        51.3590   17.7480   69.2870 N.3    41  LYS41      -0.1314
     10  N         45.9160   14.6550   62.3990 N.3   167  ASP167     -0.1239
     11  CA        47.2250   15.0820   62.8530 C.3   167  ASP167      0.1674
     12  C         47.8060   13.8850   63.5670 C.2   167  ASP167      0.2266
     13  O         47.1090   13.2360   64.3560 O.2   167  ASP167     -0.2867
     14  CB        47.0900   16.3250   63.7540 C.3   167  ASP167      0.1410
     15  CG        48.3680   16.6810   64.4920 C.2   167  ASP167      0.3668
     16  OD1       49.4620   16.2550   64.0830 O.co2 167  ASP167     -0.2456
     17  OD2       48.2690   17.4020   65.5160 O.co2 167  ASP167     -0.2456
     18  N         54.6660   15.1780   61.1210 N.3   189  ASN189     -0.1225
     19  CA        55.9590   15.8090   60.9450 C.3   189  ASN189      0.1785
     20  C         56.9440   14.7590   60.4290 C.2   189  ASN189      0.2597
     21  O         56.5490   13.6300   60.1270 O.2   189  ASN189     -0.2718
     22  CB        56.4680   16.4680   62.2410 C.3   189  ASN189      0.1169
     23  CG        56.6900   15.4850   63.3810 C.2   189  ASN189      0.2627
     24  OD1       56.8240   14.2780   63.1810 O.2   189  ASN189     -0.2716
     25  ND2       56.7400   16.0150   64.5950 N.am  189  ASN189     -0.0877
     26  N         58.2100   15.1470   60.3120 N.am  190  GLU190     -0.1979
     27  CA        59.2560   14.2610   59.7980 C.3   190  GLU190      0.1602
     28  C         59.4120   12.9970   60.6340 C.2   190  GLU190      0.2287
     29  O         59.5020   11.8900   60.1020 O.2   190  GLU190     -0.2864
     30  CB        60.5970   14.9960   59.7490 C.3   190  GLU190      0.0415
     31  CG        60.6130   16.1650   58.7850 C.3   190  GLU190      0.1163
     32  CD        61.9390   16.9060   58.7720 C.2   190  GLU190      0.3649
     33  OE1       62.9350   16.3500   58.2530 O.co2 190  GLU190     -0.2457
     34  OE2       61.9800   18.0450   59.2860 O.co2 190  GLU190     -0.2457
     35  N         57.2580   11.6780   62.8780 N.3   192  GLU192     -0.1245
     36  CA        56.0390   10.8800   62.8550 C.3   192  GLU192      0.1567
     37  C         55.9010   10.1280   61.5460 C.2   192  GLU192      0.2260
     38  O         55.4280    8.9910   61.5220 O.2   192  GLU192     -0.2867
     39  CB        54.8130   11.7660   63.0900 C.3   192  GLU192      0.0388
     40  CG        54.7990   12.3340   64.4980 C.3   192  GLU192      0.1160
     41  CD        53.9280   13.5680   64.6610 C.2   192  GLU192      0.3649
     42  OE1       53.3500   14.0620   63.6630 O.co2 192  GLU192     -0.2457
     43  OE2       53.8310   14.0340   65.8150 O.co2 192  GLU192     -0.2457
     44  N         54.7440   18.3360   57.8600 N.3   225  LYS225     -0.1245
     45  CA        55.3580   19.4630   58.5540 C.3   225  LYS225      0.1561
     46  C         56.8580   19.2200   58.6970 C.2   225  LYS225      0.2260
     47  O         57.2820   18.1850   59.2070 O.2   225  LYS225     -0.2867
     48  CB        54.6840   19.6690   59.9210 C.3   225  LYS225      0.0271
     49  CG        53.1980   20.0370   59.7850 C.3   225  LYS225      0.0035
     50  CD        52.3700   19.8420   61.0790 C.3   225  LYS225      0.0206
     51  CE        52.1620   18.3520   61.3730 C.3   225  LYS225      0.1093
     52  NZ        50.8150   18.0600   61.9910 N.3   225  LYS225     -0.1314
     53  N         59.2990   21.4220   60.0800 N.3   227  GLY227     -0.1210
     54  CA        59.9800   22.2920   61.0250 C.3   227  GLY227      0.1956
     55  C         60.5560   23.5230   60.3490 C.2   227  GLY227      0.2612
     56  O         59.8560   24.2060   59.6230 O.2   227  GLY227     -0.2717
     57  N         61.8430   23.7800   60.5660 N.am  228  SER228     -0.1952
     58  CA        62.5050   24.9450   59.9850 C.3   228  SER228      0.1924
     59  C         62.5880   24.8790   58.4610 C.2   228  SER228      0.2314
     60  O         62.8710   25.8910   57.8160 O.2   228  SER228     -0.2863
     61  CB        63.9090   25.0950   60.5730 C.3   228  SER228      0.2116
     62  OG        64.7070   23.9800   60.2180 O.3   228  SER228     -0.2180
     63  N         59.9690   24.1350   56.6380 N.3   230  GLY230     -0.1225
     64  CA        58.6500   24.4520   56.1360 C.3   230  GLY230      0.1811
     65  C         57.6670   23.2910   56.1060 C.2   230  GLY230      0.2280
     66  O         57.4210   22.6320   57.1100 O.2   230  GLY230     -0.2866
     67  N         59.3860   27.9860   55.5010 N.3   245  ILE245     -0.1231
     68  CA        58.8420   28.7410   56.6230 C.3   245  ILE245      0.1692
     69  C         58.6850   30.1900   56.2140 C.2   245  ILE245      0.2592
     70  O         59.4150   30.6730   55.3430 O.2   245  ILE245     -0.2718
     71  CB        59.7250   28.6920   57.8930 C.3   245  ILE245      0.0266
     72  CG1       61.1270   29.2410   57.6030 C.3   245  ILE245      0.0019
     73  CG2       59.7620   27.3060   58.4760 C.3   245  ILE245      0.0020
     74  CD1       61.8920   29.5540   58.8560 C.3   245  ILE245      0.0001
     75  N         57.7020   30.8580   56.8020 N.am  246  ILE246     -0.1966
     76  CA        57.6550   32.3130   56.8140 C.3   246  ILE246      0.1712
     77  C         58.4790   32.7170   58.0380 C.2   246  ILE246      0.2458
     78  O         58.0610   32.5010   59.1660 O.2   246  ILE246     -0.2730
     79  CB        56.2170   32.8470   56.9040 C.3   246  ILE246      0.0289
     80  CG1       55.3290   32.2580   55.7880 C.3   246  ILE246      0.0022
     81  CG2       56.2040   34.3600   56.8870 C.3   246  ILE246      0.0023
     82  CD1       55.7570   32.6080   54.4250 C.3   246  ILE246      0.0001
     83  N         59.6810   33.2640   57.8250 N.am  247  PRO247     -0.2716
     84  CA        60.5650   33.3910   58.9860 C.3   247  PRO247      0.1536
     85  C         59.9910   34.3150   60.0610 C.2   247  PRO247      0.2598
     86  O         59.3750   35.3270   59.7340 O.2   247  PRO247     -0.2715
     87  CB        61.8520   33.9650   58.3810 C.3   247  PRO247      0.0310
     88  CG        61.7630   33.6440   56.9100 C.3   247  PRO247      0.0237
     89  CD        60.3120   33.7470   56.5840 C.3   247  PRO247      0.0939
     90  N         60.1400   33.9040   61.3130 N.am  248  ALA248     -0.1978
     91  CA        59.6800   34.6660   62.4630 C.3   248  ALA248      0.1597
     92  C         60.7810   35.6300   62.8760 C.2   248  ALA248      0.2287
     93  O         61.9610   35.2910   62.7700 O.2   248  ALA248     -0.2864
     94  CB        59.3370   33.7440   63.6010 C.3   248  ALA248      0.0319
     95  N         62.0790   33.5150   67.6100 N.3   251  VAL251     -0.1245
     96  CA        61.4270   32.3230   68.1480 C.3   251  VAL251      0.1561
     97  C         61.4130   32.3420   69.6650 C.2   251  VAL251      0.2260
     98  O         62.4460   32.1560   70.3090 O.2   251  VAL251     -0.2867
     99  CB        62.1180   31.0460   67.6910 C.3   251  VAL251      0.0252
    100  CG1       61.3470   29.8280   68.2100 C.3   251  VAL251      0.0019
    101  CG2       62.2250   31.0220   66.1760 C.3   251  VAL251      0.0019
    102  N         57.9490   27.4740   70.4660 N.3   254  THR254     -0.1218
    103  CA        57.2910   26.7410   69.3840 C.3   254  THR254      0.1862
    104  C         56.1160   25.8880   69.8400 C.2   254  THR254      0.2287
    105  O         55.4620   25.2630   69.0180 O.2   254  THR254     -0.2866
    106  CB        58.2660   25.8230   68.6450 C.3   254  THR254      0.1770
    107  OG1       58.7670   24.8450   69.5630 O.3   254  THR254     -0.2211
    108  CG2       59.4090   26.6330   68.0560 C.3   254  THR254      0.0375
    109  N         52.7210   25.3950   67.7310 N.3   257  ALA257     -0.1231
    110  CA        52.8870   25.8750   66.3520 C.3   257  ALA257      0.1694
    111  C         52.4800   24.8410   65.3040 C.2   257  ALA257      0.2592
    112  O         51.9230   25.1910   64.2630 O.2   257  ALA257     -0.2718
    113  CB        54.3220   26.3170   66.1240 C.3   257  ALA257      0.0304
    114  N         52.7700   23.5710   65.5540 N.am  258  GLY258     -0.1957
    115  CA        52.2960   22.5290   64.6640 C.3   258  GLY258      0.1869
    116  C         50.7780   22.4670   64.6620 C.2   258  GLY258      0.2309
    117  O         50.1570   22.2380   63.6290 O.2   258  GLY258     -0.2863
    118  N         49.6000   25.3790   62.6450 N.3   261  PHE261     -0.1241
    119  CA        49.8130   25.1110   61.2200 C.3   261  PHE261      0.1605
    120  C         48.6580   24.2760   60.6620 C.2   261  PHE261      0.2264
    121  O         48.0560   24.6020   59.6320 O.2   261  PHE261     -0.2867
    122  CB        51.1500   24.3930   60.9850 C.3   261  PHE261      0.0534
    123  CG        51.4690   24.2010   59.5150 C.ar  261  PHE261     -0.0203
    124  CD1       51.0040   23.0930   58.8200 C.ar  261  PHE261     -0.0042
    125  CD2       52.1940   25.1550   58.8300 C.ar  261  PHE261     -0.0042
    126  CE1       51.2720   22.9320   57.4610 C.ar  261  PHE261     -0.0003
    127  CE2       52.4710   25.0040   57.4700 C.ar  261  PHE261     -0.0003
    128  CZ        51.9980   23.8880   56.7830 C.ar  261  PHE261     -0.0000
    129  N         51.6030   28.5160   57.0220 N.3   283  ALA283     -0.1245
    130  CA        52.9730   28.8910   57.3670 C.3   283  ALA283      0.1562
    131  C         53.0140   30.2340   58.0840 C.2   283  ALA283      0.2260
    132  O         53.7660   30.4120   59.0400 O.2   283  ALA283     -0.2867
    133  CB        53.8290   28.9250   56.1160 C.3   283  ALA283      0.0290
    134  N         51.6360   29.7500   61.7200 N.3   286  ALA286     -0.1231
    135  CA        52.6430   29.1110   62.5750 C.3   286  ALA286      0.1694
    136  C         53.8070   30.0730   62.8930 C.2   286  ALA286      0.2592
    137  O         54.3580   30.0450   63.9840 O.2   286  ALA286     -0.2718
    138  CB        53.1860   27.8350   61.9160 C.3   286  ALA286      0.0304
    139  N         54.1890   30.8920   61.9190 N.am  287  SER287     -0.1952
    140  CA        55.2410   31.9130   62.1330 C.3   287  SER287      0.1924
    141  C         54.9000   32.8400   63.2920 C.2   287  SER287      0.2314
    142  O         55.7370   33.1220   64.1630 O.2   287  SER287     -0.2863
    143  CB        55.4390   32.7520   60.8690 C.3   287  SER287      0.2116
    144  OG        56.6030   33.5570   60.9900 O.3   287  SER287     -0.2180
    145  N         55.0230   31.1450   66.9260 N.3   290  VAL290     -0.1245
    146  CA        56.2830   30.8490   67.5930 C.3   290  VAL290      0.1561
    147  C         56.8850   32.0980   68.2260 C.2   290  VAL290      0.2260
    148  O         57.8930   32.0090   68.9180 O.2   290  VAL290     -0.2867
    149  CB        57.3330   30.2140   66.6390 C.3   290  VAL290      0.0252
    150  CG1       56.7740   28.9250   65.9880 C.3   290  VAL290      0.0019
    151  CG2       57.8020   31.1960   65.5750 C.3   290  VAL290      0.0019
@<TRIPOS>BOND
     1    82    80    1
     2    70    69    2
     3    67    68    1
     4    80    79    1
     5    65    64    1
     6    65    66    2
     7   133   130    1
     8    64    63    1
     9    69    68    1
    10    69    75   am
    11    89    88    1
    12    89    83    1
    13    68    71    1
    14   128   126   ar
    15   128   127   ar
    16    75    76    1
    17    76    79    1
    18    76    77    1
    19    81    79    1
    20    88    87    1
    21   129   130    1
    22   130   131    1
    23   126   124   ar
    24   127   125   ar
    25    72    71    1
    26    72    74    1
    27    60    59    2
    28    83    77   am
    29    83    84    1
    30    44    45    1
    31    71    73    1
    32    77    78    2
    33   131   132    2
    34    33    32   ar
    35    87    84    1
    36    59    58    1
    37    45    46    1
    38    45    48    1
    39    46    47    2
    40    32    31    1
    41    32    34   ar
    42    31    30    1
    43   124   123   ar
    44   125   123   ar
    45    84    85    1
    46   123   122    1
    47    56    55    2
    48   121   120    2
    49    86    85    2
    50    30    27    1
    51    49    48    1
    52    49    50    1
    53    27    26    1
    54    27    28    1
    55    58    57    1
    56    58    61    1
    57    85    90   am
    58    53    54    1
    59    29    28    2
    60    21    20    2
    61    62    61    1
    62    26    20   am
    63    55    57   am
    64    55    54    1
    65    20    19    1
    66   120   119    1
    67   143   144    1
    68   143   140    1
    69    19    18    1
    70    19    22    1
    71   122   119    1
    72    50    51    1
    73   119   118    1
    74    90    91    1
    75    51    52    1
    76    38    37    2
    77    37    36    1
    78   134   135    1
    79   138   135    1
    80   139   140    1
    81   139   136   am
    82   140   141    1
    83    22    23    1
    84    10    11    1
    85    91    92    1
    86    91    94    1
    87   135   136    1
    88    93    92    2
    89    11    12    1
    90    11    14    1
    91    36    35    1
    92    36    39    1
    93   136   137    2
    94    39    40    1
    95    24    23    2
    96   141   142    2
    97    23    25   am
    98    12    13    2
    99   117   116    2
   100    42    41   ar
   101    14    15    1
   102    16    15   ar
   103   112   111    2
   104    15    17   ar
   105    40    41    1
   106    41    43   ar
   107   116   115    1
   108   115   114    1
   109   111   114   am
   110   111   110    1
   111   151   149    1
   112   150   149    1
   113   113   110    1
   114   101    99    1
   115   110   109    1
   116   149   146    1
   117   145   146    1
   118   146   147    1
   119    95    96    1
   120    99    96    1
   121    99   100    1
   122   108   106    1
   123    96    97    1
   124   147   148    2
   125   106   103    1
   126   106   107    1
   127   105   104    2
   128     4     3    2
   129     9     8    1
   130   103   104    1
   131   103   102    1
   132     7     8    1
   133     7     6    1
   134    97    98    2
   135     5     6    1
   136     5     2    1
   137     3     2    1
   138     2     1    1
