@<TRIPOS>MOLECULE
tmp/6imjA00.pdb
 196 183 0 0 0
SMALL
GASTEIGER

@<TRIPOS>ATOM
      1  N         21.3170    2.2450   46.6380 N.3   118  LEU118     -0.1231
      2  CA        20.3440    3.3230   46.7300 C.3   118  LEU118      0.1693
      3  C         19.7090    3.3480   48.1110 C.2   118  LEU118      0.2591
      4  O         19.6350    2.3280   48.7990 O.2   118  LEU118     -0.2718
      5  CB        19.2530    3.1830   45.6680 C.3   118  LEU118      0.0284
      6  CG        19.7890    3.1150   44.2330 C.3   118  LEU118      0.0019
      7  CD1       18.6750    2.7880   43.2600 C.3   118  LEU118      0.0001
      8  CD2       20.5300    4.3630   43.8210 C.3   118  LEU118      0.0001
      9  N         19.2590    4.5320   48.5110 N.am  119  VAL119     -0.1980
     10  CA        18.7710    4.7670   49.8650 C.3   119  VAL119      0.1595
     11  C         17.2590    4.5840   49.8970 C.2   119  VAL119      0.2287
     12  O         16.5260    5.2410   49.1490 O.2   119  VAL119     -0.2864
     13  CB        19.1740    6.1710   50.3520 C.3   119  VAL119      0.0276
     14  CG1       18.7600    6.3770   51.7990 C.3   119  VAL119      0.0022
     15  CG2       20.6700    6.3570   50.2040 C.3   119  VAL119      0.0022
     16  N         13.5570    7.6400   54.2860 N.3   122  PHE122     -0.1241
     17  CA        13.4720    9.0750   54.0320 C.3   122  PHE122      0.1605
     18  C         12.9540    9.7470   55.2970 C.2   122  PHE122      0.2264
     19  O         11.7960    9.5510   55.6770 O.2   122  PHE122     -0.2867
     20  CB        12.5550    9.3390   52.8350 C.3   122  PHE122      0.0534
     21  CG        12.8010   10.6440   52.1390 C.ar  122  PHE122     -0.0203
     22  CD1       13.1150   11.7930   52.8540 C.ar  122  PHE122     -0.0042
     23  CD2       12.7100   10.7220   50.7570 C.ar  122  PHE122     -0.0042
     24  CE1       13.3330   12.9920   52.2040 C.ar  122  PHE122     -0.0003
     25  CE2       12.9300   11.9160   50.1000 C.ar  122  PHE122     -0.0003
     26  CZ        13.2400   13.0530   50.8250 C.ar  122  PHE122     -0.0000
     27  N         26.7200   11.0100   57.6150 N.3   139  GLN139     -0.1231
     28  CA        27.5230   11.7110   56.6240 C.3   139  GLN139      0.1698
     29  C         26.7140   12.8730   56.0590 C.2   139  GLN139      0.2592
     30  O         25.4830   12.8830   56.1300 O.2   139  GLN139     -0.2718
     31  CB        27.9250   10.7740   55.4970 C.3   139  GLN139      0.0381
     32  CG        28.8410    9.6700   55.8930 C.3   139  GLN139      0.0905
     33  CD        29.0150    8.6860   54.7580 C.2   139  GLN139      0.2608
     34  OE1       28.4360    8.8540   53.6860 O.2   139  GLN139     -0.2717
     35  NE2       29.8370    7.6790   54.9710 N.am  139  GLN139     -0.0878
     36  N         27.4010   13.8560   55.4820 N.am  140  ARG140     -0.1966
     37  CA        26.6140   14.8800   54.8190 C.3   140  ARG140      0.1729
     38  C         26.1220   14.3900   53.4650 C.2   140  ARG140      0.2616
     39  O         26.6910   13.4850   52.8500 O.2   140  ARG140     -0.2715
     40  CB        27.3930   16.1800   54.6030 C.3   140  ARG140      0.0348
     41  CG        28.4040   16.5460   55.6240 C.3   140  ARG140      0.0492
     42  CD        29.2050   17.7570   55.1810 C.3   140  ARG140      0.2205
     43  NE        29.5140   18.5680   56.3480 N.pl3 140  ARG140     -0.0865
     44  CZ        30.5670   18.3670   57.1350 C.cat 140  ARG140      0.5346
     45  NH1       31.4310   17.3930   56.8730 N.pl3 140  ARG140      0.1354
     46  NH2       30.7540   19.1320   58.1970 N.pl3 140  ARG140      0.1354
     47  N         25.0550   15.0220   53.0040 N.am  141  LYS141     -0.1963
     48  CA        24.3500   14.6600   51.7820 C.3   141  LYS141      0.1728
     49  C         24.6160   15.7920   50.7940 C.2   141  LYS141      0.2616
     50  O         24.0530   16.8850   50.9190 O.2   141  LYS141     -0.2715
     51  CB        22.8640   14.4670   52.0680 C.3   141  LYS141      0.0311
     52  CG        22.2020   13.3100   51.3710 C.3   141  LYS141      0.0038
     53  CD        21.7610   13.6910   49.9780 C.3   141  LYS141      0.0206
     54  CE        20.6780   12.7590   49.4660 C.3   141  LYS141      0.1093
     55  NZ        20.0520   13.3100   48.2330 N.3   141  LYS141     -0.1314
     56  N         25.5220   15.5540   49.8520 N.am  142  ARG142     -0.1963
     57  CA        25.8660   16.5700   48.8670 C.3   142  ARG142      0.1729
     58  C         24.9460   16.4730   47.6610 C.2   142  ARG142      0.2616
     59  O         24.6930   15.3840   47.1380 O.2   142  ARG142     -0.2715
     60  CB        27.3280   16.4460   48.4210 C.3   142  ARG142      0.0348
     61  CG        28.3260   16.8430   49.4750 C.3   142  ARG142      0.0492
     62  CD        29.7590   16.7150   48.9960 C.3   142  ARG142      0.2205
     63  NE        30.6670   17.4120   49.9040 N.pl3 142  ARG142     -0.0865
     64  CZ        31.1800   16.8830   51.0120 C.cat 142  ARG142      0.5346
     65  NH1       30.8880   15.6350   51.3610 N.pl3 142  ARG142      0.1354
     66  NH2       31.9850   17.6070   51.7790 N.pl3 142  ARG142      0.1354
     67  N         24.4600   17.6270   47.2090 N.am  143  ASN143     -0.1972
     68  CA        23.5510   17.6660   46.0710 C.3   143  ASN143      0.1688
     69  C         24.3820   17.8280   44.8050 C.2   143  ASN143      0.2292
     70  O         24.4730   18.9040   44.2080 O.2   143  ASN143     -0.2864
     71  CB        22.5410   18.7890   46.2210 C.3   143  ASN143      0.1181
     72  CG        21.6380   18.8800   45.0380 C.2   143  ASN143      0.2629
     73  OD1       21.3710   17.8730   44.3820 O.2   143  ASN143     -0.2716
     74  ND2       21.1880   20.0890   44.7210 N.am  143  ASN143     -0.0877
     75  N         26.2760   11.4280   41.3350 N.3   146  ARG146     -0.1245
     76  CA        26.8920   10.2520   41.9300 C.3   146  ARG146      0.1563
     77  C         27.7660    9.5390   40.9150 C.2   146  ARG146      0.2260
     78  O         27.4700    9.5220   39.7170 O.2   146  ARG146     -0.2867
     79  CB        25.8320    9.2990   42.4750 C.3   146  ARG146      0.0307
     80  CG        26.3500    7.9500   42.9460 C.3   146  ARG146      0.0489
     81  CD        25.6120    7.4940   44.1830 C.3   146  ARG146      0.2205
     82  NE        26.2820    6.3920   44.8500 N.pl3 146  ARG146     -0.0865
     83  CZ        25.6380    5.5000   45.5980 C.cat 146  ARG146      0.5346
     84  NH1       24.3310    5.6250   45.7830 N.pl3 146  ARG146      0.1354
     85  NH2       26.2930    4.5080   46.1940 N.pl3 146  ARG146      0.1354
     86  N         25.2010    6.5480   38.0560 N.3   162  ARG162     -0.1245
     87  CA        24.0950    5.7360   38.5420 C.3   162  ARG162      0.1563
     88  C         23.3950    5.0340   37.3860 C.2   162  ARG162      0.2260
     89  O         22.8140    3.9560   37.5650 O.2   162  ARG162     -0.2867
     90  CB        23.1180    6.6210   39.3210 C.3   162  ARG162      0.0307
     91  CG        21.9280    5.8950   39.9190 C.3   162  ARG162      0.0489
     92  CD        20.7260    6.8190   39.9390 C.3   162  ARG162      0.2205
     93  NE        19.6710    6.3930   40.8530 N.pl3 162  ARG162     -0.0865
     94  CZ        19.3230    7.0570   41.9480 C.cat 162  ARG162      0.5346
     95  NH1       19.9460    8.1830   42.2670 N.pl3 162  ARG162      0.1354
     96  NH2       18.3430    6.6040   42.7170 N.pl3 162  ARG162      0.1354
     97  N         30.5390   11.0430   45.2330 N.3   193  GLU193     -0.1245
     98  CA        29.6720   12.0500   44.6370 C.3   193  GLU193      0.1567
     99  C         30.5280   13.1110   43.9640 C.2   193  GLU193      0.2260
    100  O         31.4830   13.6100   44.5670 O.2   193  GLU193     -0.2867
    101  CB        28.7780   12.6900   45.7040 C.3   193  GLU193      0.0388
    102  CG        27.7630   13.6830   45.1680 C.3   193  GLU193      0.1160
    103  CD        26.4400   13.0200   44.8260 C.2   193  GLU193      0.3649
    104  OE1       25.4550   13.7410   44.5620 O.co2 193  GLU193     -0.2457
    105  OE2       26.3820   11.7740   44.8430 O.co2 193  GLU193     -0.2457
    106  N         32.3710    8.3990   49.8170 N.3   222  PHE222     -0.1241
    107  CA        31.7210    8.0830   51.0800 C.3   222  PHE222      0.1605
    108  C         31.5610    6.5880   51.3330 C.2   222  PHE222      0.2264
    109  O         30.9600    6.2090   52.3480 O.2   222  PHE222     -0.2867
    110  CB        30.3490    8.7750   51.1800 C.3   222  PHE222      0.0534
    111  CG        29.5210    8.7020   49.9250 C.ar  222  PHE222     -0.0203
    112  CD1       28.9900    7.4960   49.4870 C.ar  222  PHE222     -0.0042
    113  CD2       29.2300    9.8560   49.2090 C.ar  222  PHE222     -0.0042
    114  CE1       28.2180    7.4370   48.3380 C.ar  222  PHE222     -0.0003
    115  CE2       28.4540    9.8030   48.0630 C.ar  222  PHE222     -0.0003
    116  CZ        27.9500    8.5900   47.6280 C.ar  222  PHE222     -0.0000
    117  N         34.6660   11.4490   52.8280 N.3   256  VAL256     -0.1245
    118  CA        33.5590   12.1480   53.4660 C.3   256  VAL256      0.1561
    119  C         33.6770   11.9440   54.9700 C.2   256  VAL256      0.2260
    120  O         33.8770   10.8180   55.4390 O.2   256  VAL256     -0.2867
    121  CB        32.2080   11.6360   52.9260 C.3   256  VAL256      0.0252
    122  CG1       31.0400   12.1140   53.7850 C.3   256  VAL256      0.0019
    123  CG2       32.0220   12.0620   51.4710 C.3   256  VAL256      0.0019
    124  N         22.6050   19.3580   51.4160 N.3   280  GLU280     -0.1245
    125  CA        21.2140   18.9940   51.2040 C.3   280  GLU280      0.1567
    126  C         20.6380   18.2190   52.3790 C.2   280  GLU280      0.2260
    127  O         19.4220   18.2390   52.5800 O.2   280  GLU280     -0.2867
    128  CB        21.0940   18.2040   49.8960 C.3   280  GLU280      0.0388
    129  CG        19.7340   17.5950   49.5950 C.3   280  GLU280      0.1160
    130  CD        19.7780   16.6720   48.3850 C.2   280  GLU280      0.3649
    131  OE1       20.8500   16.0980   48.1080 O.co2 280  GLU280     -0.2457
    132  OE2       18.7400   16.5110   47.7110 O.co2 280  GLU280     -0.2457
    133  N         23.1180   11.5640   55.5300 N.3   283  ILE283     -0.1245
    134  CA        22.9880   10.1450   55.2230 C.3   283  ILE283      0.1561
    135  C         23.3010    9.3790   56.4990 C.2   283  ILE283      0.2260
    136  O         24.2900    9.6740   57.1800 O.2   283  ILE283     -0.2867
    137  CB        23.9300    9.7030   54.0880 C.3   283  ILE283      0.0252
    138  CG1       23.4870   10.2900   52.7390 C.3   283  ILE283      0.0019
    139  CG2       24.0450    8.1730   54.0570 C.3   283  ILE283      0.0019
    140  CD1       22.2370    9.6720   52.1530 C.3   283  ILE283      0.0001
    141  N         23.9570    5.5270   58.0530 N.3   285  ARG285     -0.1245
    142  CA        24.3400    4.1770   57.6500 C.3   285  ARG285      0.1563
    143  C         24.3480    3.2400   58.8460 C.2   285  ARG285      0.2260
    144  O         25.0990    3.4440   59.8080 O.2   285  ARG285     -0.2867
    145  CB        25.7180    4.1450   56.9920 C.3   285  ARG285      0.0307
    146  CG        25.8790    5.0920   55.8460 C.3   285  ARG285      0.0489
    147  CD        27.3150    5.2050   55.4290 C.3   285  ARG285      0.2205
    148  NE        27.3850    5.8620   54.1390 N.pl3 285  ARG285     -0.0865
    149  CZ        27.3570    5.2270   52.9740 C.cat 285  ARG285      0.5346
    150  NH1       27.2670    3.9020   52.9320 N.pl3 285  ARG285      0.1354
    151  NH2       27.4270    5.9270   51.8510 N.pl3 285  ARG285      0.1354
    152  N         16.4040   -0.2450   46.3510 N.3   299  HIS299     -0.1241
    153  CA        16.8240    0.6250   47.4510 C.3   299  HIS299      0.1621
    154  C         17.1200   -0.1650   48.7260 C.2   299  HIS299      0.2264
    155  O         16.3440   -0.9780   49.1400 O.2   299  HIS299     -0.2867
    156  CB        15.7720    1.6970   47.7320 C.3   299  HIS299      0.0745
    157  CG        15.5370    2.6440   46.6030 C.ar  299  HIS299      0.0817
    158  ND1       15.8120    2.3320   45.2990 N.ar  299  HIS299     -0.2268
    159  CD2       15.0230    3.8900   46.5840 C.ar  299  HIS299      0.1154
    160  CE1       15.4840    3.3440   44.5240 C.ar  299  HIS299      0.1986
    161  NE2       15.0070    4.3060   45.2810 N.ar  299  HIS299     -0.2212
    162  N         20.2320    2.2630   54.7250 N.3   303  LEU303     -0.1245
    163  CA        20.5790    3.6740   54.6960 C.3   303  LEU303      0.1561
    164  C         19.3100    4.4960   54.8050 C.2   303  LEU303      0.2260
    165  O         18.2240    4.0420   54.4390 O.2   303  LEU303     -0.2867
    166  CB        21.3100    4.0790   53.4210 C.3   303  LEU303      0.0270
    167  CG        22.3260    3.0930   52.8630 C.3   303  LEU303      0.0019
    168  CD1       22.5940    3.4240   51.4150 C.3   303  LEU303      0.0001
    169  CD2       23.5830    3.1860   53.6620 C.3   303  LEU303      0.0001
    170  N         18.1120    8.7440   54.1900 N.3   305  LYS305     -0.1245
    171  CA        18.4160   10.1430   53.9340 C.3   305  LYS305      0.1561
    172  C         17.5830   11.0240   54.8530 C.2   305  LYS305      0.2260
    173  O         16.4150   10.7300   55.1250 O.2   305  LYS305     -0.2867
    174  CB        18.1610   10.5230   52.4740 C.3   305  LYS305      0.0271
    175  CG        17.0020    9.8140   51.8090 C.3   305  LYS305      0.0035
    176  CD        16.9200   10.2180   50.3520 C.3   305  LYS305      0.0206
    177  CE        15.7680    9.5460   49.6410 C.3   305  LYS305      0.1093
    178  NZ        15.8310    9.8620   48.1920 N.3   305  LYS305     -0.1314
    179  N         16.5230   14.7810   54.6770 N.3   307  LYS307     -0.1245
    180  CA        16.4870   16.0210   53.9220 C.3   307  LYS307      0.1561
    181  C         15.2330   16.7900   54.1550 C.2   307  LYS307      0.2260
    182  O         14.3200   16.3210   54.7620 O.2   307  LYS307     -0.2867
    183  CB        16.5290   15.7660   52.4270 C.3   307  LYS307      0.0271
    184  CG        17.0010   14.4070   52.0210 C.3   307  LYS307      0.0035
    185  CD        16.5010   14.0340   50.6510 C.3   307  LYS307      0.0206
    186  CE        16.1820   15.2460   49.8340 C.3   307  LYS307      0.1093
    187  NZ        16.5760   15.0330   48.4220 N.3   307  LYS307     -0.1314
    188  N          8.9930   12.0340   48.2160 N.3   382  GLU382     -0.1245
    189  CA         9.3440   11.6540   46.8540 C.3   382  GLU382      0.1567
    190  C          8.0630   11.3670   46.0790 C.2   382  GLU382      0.2260
    191  O          6.9510   11.5520   46.5840 O.2   382  GLU382     -0.2867
    192  CB        10.2930   10.4480   46.8480 C.3   382  GLU382      0.0388
    193  CG         9.7390    9.1770   47.3030 C.3   382  GLU382      0.1160
    194  CD        10.7910    7.9670   47.2970 C.2   382  GLU382      0.3649
    195  OE1       11.8570    8.1460   46.7900 O.co2 382  GLU382     -0.2457
    196  OE2       10.3350    7.0560   47.8280 O.co2 382  GLU382     -0.2457
@<TRIPOS>BOND
     1    88    89    2
     2    88    87    1
     3    86    87    1
     4    87    90    1
     5    90    91    1
     6    78    77    2
     7    91    92    1
     8    92    93    1
     9    93    94    2
    10    77    76    1
    11    75    76    1
    12    76    79    1
    13    94    95    1
    14    94    96    1
    15    79    80    1
    16    80    81    1
    17     7     6    1
    18     8     6    1
    19    99   100    2
    20    99    98    1
    21    81    82    1
    22    70    69    2
    23     6     5    1
    24    73    72    2
    25   160   161   ar
    26   160   158   ar
    27   104   103   ar
    28    98    97    1
    29    98   101    1
    30    74    72   am
    31    69    68    1
    32   103   105   ar
    33   103   102    1
    34    82    83    2
    35    72    71    1
    36   102   101    1
    37   161   159   ar
    38   158   157   ar
    39    83    84    1
    40    83    85    1
    41     5     2    1
    42    68    71    1
    43    68    67    1
    44   190   191    2
    45   190   189    1
    46   152   153    1
    47   159   157   ar
    48   157   156    1
    49     1     2    1
    50     2     3    1
    51   195   194   ar
    52   192   189    1
    53   192   193    1
    54   189   188    1
    55    59    58    2
    56    67    58   am
    57   194   193    1
    58   194   196   ar
    59   153   156    1
    60   153   154    1
    61   116   115   ar
    62   116   114   ar
    63    58    57    1
    64   132   130   ar
    65   115   113   ar
    66   131   130   ar
    67     3     9   am
    68     3     4    2
    69   178   177    1
    70    55    54    1
    71   114   112   ar
    72   130   129    1
    73    60    57    1
    74    60    61    1
    75   187   186    1
    76     9    10    1
    77   154   155    2
    78    57    56    1
    79    62    61    1
    80    62    63    1
    81    12    11    2
    82   113   111   ar
    83    54    53    1
    84   112   111   ar
    85   129   128    1
    86   177   176    1
    87   106   107    1
    88   186   185    1
    89    56    49   am
    90    10    11    1
    91    10    13    1
    92   128   125    1
    93    63    64    2
    94   111   110    1
    95    53    52    1
    96    25    23   ar
    97    25    26   ar
    98    15    13    1
    99   176   175    1
   100    13    14    1
   101   185   184    1
   102    23    21   ar
   103    49    50    2
   104    49    48    1
   105    26    24   ar
   106    64    65    1
   107    64    66    1
   108   107   110    1
   109   107   108    1
   110   125   124    1
   111   125   126    1
   112   108   109    2
   113    52    51    1
   114   168   167    1
   115   123   121    1
   116    48    51    1
   117    48    47    1
   118   175   174    1
   119   151   149    1
   120   184   183    1
   121    21    20    1
   122    21    22   ar
   123   140   138    1
   124    24    22   ar
   125   126   127    2
   126   183   180    1
   127   174   171    1
   128   138   137    1
   129   117   118    1
   130    20    17    1
   131    39    38    2
   132   167   166    1
   133   167   169    1
   134   121   118    1
   135   121   122    1
   136   150   149    1
   137   149   148    2
   138    47    38   am
   139   166   163    1
   140    38    37    1
   141   118   119    1
   142    34    33    2
   143   180   181    1
   144   180   179    1
   145   171   170    1
   146   171   172    1
   147    17    16    1
   148    17    18    1
   149   139   137    1
   150   137   134    1
   151   148   147    1
   152   181   182    2
   153   165   164    2
   154    40    37    1
   155    40    41    1
   156   163   162    1
   157   163   164    1
   158    33    35   am
   159    33    32    1
   160    37    36    1
   161   172   173    2
   162   119   120    2
   163    42    41    1
   164    42    43    1
   165   134   133    1
   166   134   135    1
   167    18    19    2
   168   147   146    1
   169    36    29   am
   170    31    32    1
   171    31    28    1
   172   146   145    1
   173    29    30    2
   174    29    28    1
   175    43    44    2
   176   135   136    2
   177    28    27    1
   178    45    44    1
   179   145   142    1
   180    44    46    1
   181   142   141    1
   182   142   143    1
   183   143   144    2
