@<TRIPOS>MOLECULE
tmp/6immI00.pdb
 90 88 0 0 0
SMALL
GASTEIGER

@<TRIPOS>ATOM
      1  N       -205.5120 -108.9810   96.6230 N.3   279  PRO279     -0.2116
      2  CA      -205.8220 -107.5590   96.8390 C.3   279  PRO279      0.1372
      3  C       -207.0800 -107.0360   96.1660 C.2   279  PRO279      0.2244
      4  O       -207.5210 -105.9480   96.5290 O.2   279  PRO279     -0.2868
      5  CB      -204.5810 -106.8510   96.3050 C.3   279  PRO279      0.0268
      6  CG      -203.5250 -107.7950   96.5550 C.3   279  PRO279      0.0207
      7  CD      -204.0820 -109.1590   96.3400 C.3   279  PRO279      0.0892
      8  N       -209.8160 -107.7140   99.1210 N.3   282  ILE282     -0.1231
      9  CA      -209.6620 -107.0620  100.4090 C.3   282  ILE282      0.1692
     10  C       -210.1430 -105.6280  100.3380 C.2   282  ILE282      0.2591
     11  O       -210.8570 -105.1490  101.2260 O.2   282  ILE282     -0.2718
     12  CB      -208.1880 -107.1390  100.8020 C.3   282  ILE282      0.0266
     13  CG1     -207.7540 -108.5860  100.8500 C.3   282  ILE282      0.0019
     14  CG2     -207.9680 -106.5110  102.1290 C.3   282  ILE282      0.0020
     15  CD1     -206.2980 -108.7140  100.8880 C.3   282  ILE282      0.0001
     16  N       -209.7680 -104.9520   99.2550 N.am  283  VAL283     -0.1980
     17  CA      -210.1950 -103.5860   99.0280 C.3   283  VAL283      0.1595
     18  C       -211.6930 -103.5320   98.7800 C.2   283  VAL283      0.2287
     19  O       -212.3620 -102.5990   99.2240 O.2   283  VAL283     -0.2864
     20  CB      -209.3930 -103.0010   97.8620 C.3   283  VAL283      0.0276
     21  CG1     -209.7130 -101.5640   97.6760 C.3   283  VAL283      0.0022
     22  CG2     -207.9350 -103.1540   98.1220 C.3   283  VAL283      0.0022
     23  N       -213.0160 -103.4110  102.3560 N.3   286  TYR286     -0.1241
     24  CA      -212.8210 -102.2480  103.2120 C.3   286  TYR286      0.1605
     25  C       -213.4240 -100.9770  102.6320 C.2   286  TYR286      0.2264
     26  O       -214.0300 -100.1980  103.3730 O.2   286  TYR286     -0.2867
     27  CB      -211.3360 -102.0400  103.4870 C.3   286  TYR286      0.0534
     28  CG      -210.7330 -103.0530  104.4390 C.ar  286  TYR286     -0.0201
     29  CD1     -211.5340 -103.8630  105.2230 C.ar  286  TYR286     -0.0009
     30  CD2     -209.3590 -103.1810  104.5640 C.ar  286  TYR286     -0.0009
     31  CE1     -210.9900 -104.7700  106.0810 C.ar  286  TYR286      0.0417
     32  CE2     -208.8160 -104.0940  105.4240 C.ar  286  TYR286      0.0417
     33  CZ      -209.6430 -104.8760  106.1770 C.ar  286  TYR286      0.1957
     34  OH      -209.1360 -105.7940  107.0450 O.3   286  TYR286     -0.2866
     35  N       -217.0010 -100.6730  103.1940 N.3   289  ARG289     -0.1231
     36  CA      -217.3570 -100.4730  104.5900 C.3   289  ARG289      0.1694
     37  C       -216.8190  -99.1950  105.1890 C.2   289  ARG289      0.2592
     38  O       -217.4420  -98.6570  106.1000 O.2   289  ARG289     -0.2718
     39  CB      -216.8280 -101.6110  105.4490 C.3   289  ARG289      0.0321
     40  CG      -217.6100 -102.8470  105.3940 C.3   289  ARG289      0.0489
     41  CD      -216.8670 -103.9140  106.1270 C.3   289  ARG289      0.2205
     42  NE      -216.5580 -103.5710  107.5040 N.pl3 289  ARG289     -0.0865
     43  CZ      -215.3230 -103.4250  107.9610 C.cat 289  ARG289      0.5346
     44  NH1     -215.1070 -103.1220  109.2190 N.pl3 289  ARG289      0.1354
     45  NH2     -214.2990 -103.5760  107.1510 N.pl3 289  ARG289      0.1354
     46  N       -215.6530  -98.7360  104.7570 N.am  290  HIS290     -0.1976
     47  CA      -215.0840  -97.4700  105.2090 C.3   290  HIS290      0.1656
     48  C       -214.4090  -96.7960  104.0300 C.2   290  HIS290      0.2291
     49  O       -213.1820  -96.8330  103.8880 O.2   290  HIS290     -0.2864
     50  CB      -214.0930  -97.6820  106.3460 C.3   290  HIS290      0.0771
     51  CG      -214.7240  -98.1470  107.6110 C.ar  290  HIS290      0.0820
     52  ND1     -215.4620  -97.3180  108.4210 N.ar  290  HIS290     -0.2267
     53  CD2     -214.7160  -99.3550  108.2150 C.ar  290  HIS290      0.1154
     54  CE1     -215.8940  -97.9980  109.4660 C.ar  290  HIS290      0.1986
     55  NE2     -215.4530  -99.2370  109.3650 N.ar  290  HIS290     -0.2212
     56  N       -211.3940  -94.0530  104.3180 N.3   293  TYR293     -0.1227
     57  CA      -210.0940  -94.4880  104.8000 C.3   293  TYR293      0.1736
     58  C       -209.3150  -95.2510  103.7490 C.2   293  TYR293      0.2596
     59  O       -208.0890  -95.0960  103.6560 O.2   293  TYR293     -0.2718
     60  CB      -210.2790  -95.3790  106.0230 C.3   293  TYR293      0.0548
     61  CG      -210.8330  -94.6650  107.2130 C.ar  293  TYR293     -0.0200
     62  CD1     -210.0090  -93.9140  108.0310 C.ar  293  TYR293     -0.0009
     63  CD2     -212.1790  -94.7380  107.5230 C.ar  293  TYR293     -0.0009
     64  CE1     -210.5050  -93.2580  109.1210 C.ar  293  TYR293      0.0417
     65  CE2     -212.6860  -94.0740  108.6170 C.ar  293  TYR293      0.0417
     66  CZ      -211.8410  -93.3430  109.4090 C.ar  293  TYR293      0.1957
     67  OH      -212.3290  -92.6770  110.4980 O.3   293  TYR293     -0.2866
     68  N       -209.9990  -96.0800  102.9670 N.am  294  THR294     -0.1953
     69  CA      -209.3240  -96.9780  102.0510 C.3   294  THR294      0.1897
     70  C       -208.6490  -96.2080  100.9360 C.2   294  THR294      0.2313
     71  O       -207.4760  -96.4530  100.6220 O.2   294  THR294     -0.2863
     72  CB      -210.3280  -97.9710  101.4890 C.3   294  THR294      0.1794
     73  OG1     -210.9650  -98.6570  102.5680 O.3   294  THR294     -0.2208
     74  CG2     -209.6260  -98.9810  100.6170 C.3   294  THR294      0.0378
     75  N       -205.4840  -94.4170  102.3600 N.3   297  ILE297     -0.1231
     76  CA      -204.2520  -95.1820  102.5380 C.3   297  ILE297      0.1692
     77  C       -203.7060  -95.6500  101.1950 C.2   297  ILE297      0.2591
     78  O       -202.4840  -95.7840  101.0380 O.2   297  ILE297     -0.2718
     79  CB      -204.4490  -96.3470  103.5250 C.3   297  ILE297      0.0266
     80  CG1     -205.4210  -97.3820  102.9920 C.3   297  ILE297      0.0019
     81  CG2     -204.9870  -95.8350  104.8330 C.3   297  ILE297      0.0020
     82  CD1     -205.4980  -98.6110  103.8530 C.3   297  ILE297      0.0001
     83  N       -204.5680  -95.8280  100.1850 N.am  298  LEU298     -0.1980
     84  CA      -204.0600  -96.1550   98.8540 C.3   298  LEU298      0.1596
     85  C       -203.2860  -94.9910   98.2440 C.2   298  LEU298      0.2287
     86  O       -202.2040  -95.1930   97.6740 O.2   298  LEU298     -0.2864
     87  CB      -205.2000  -96.5670   97.9300 C.3   298  LEU298      0.0297
     88  CG      -205.8430  -97.9210   98.1860 C.3   298  LEU298      0.0022
     89  CD1     -207.0250  -98.0950   97.2730 C.3   298  LEU298      0.0001
     90  CD2     -204.8530  -99.0300   97.9840 C.3   298  LEU298      0.0001
@<TRIPOS>BOND
     1     3     4    2
     2     3     2    1
     3     5     6    1
     4     5     2    1
     5     7     6    1
     6     7     1    1
     7     1     2    1
     8    89    88    1
     9    86    85    2
    10    21    20    1
    11    20    22    1
    12    20    17    1
    13    87    88    1
    14    87    84    1
    15    90    88    1
    16    85    84    1
    17    18    17    1
    18    18    19    2
    19    84    83    1
    20    17    16    1
    21     8     9    1
    22    16    10   am
    23    83    77   am
    24    10     9    1
    25    10    11    2
    26     9    12    1
    27    74    72    1
    28    71    70    2
    29    12    13    1
    30    12    14    1
    31    13    15    1
    32    70    69    1
    33    78    77    2
    34    77    76    1
    35    72    69    1
    36    72    73    1
    37    69    68    1
    38    23    24    1
    39    75    76    1
    40    76    79    1
    41    25    24    1
    42    25    26    2
    43    68    58   am
    44    80    79    1
    45    80    82    1
    46    35    36    1
    47    24    27    1
    48    27    28    1
    49    79    81    1
    50    59    58    2
    51    58    57    1
    52    49    48    2
    53    48    47    1
    54    56    57    1
    55    28    30   ar
    56    28    29   ar
    57    30    32   ar
    58    36    37    1
    59    36    39    1
    60    46    37   am
    61    46    47    1
    62    57    60    1
    63    37    38    2
    64    47    50    1
    65    29    31   ar
    66    40    39    1
    67    40    41    1
    68    32    33   ar
    69    60    61    1
    70    31    33   ar
    71    41    42    1
    72    33    34    1
    73    50    51    1
    74    45    43    1
    75    61    63   ar
    76    61    62   ar
    77    42    43    2
    78    63    65   ar
    79    51    53   ar
    80    51    52   ar
    81    43    44    1
    82    62    64   ar
    83    53    55   ar
    84    52    54   ar
    85    65    66   ar
    86    64    66   ar
    87    55    54   ar
    88    66    67    1
