@<TRIPOS>MOLECULE
tmp/6iosA00.pdb
 134 129 0 0 0
SMALL
GASTEIGER

@<TRIPOS>ATOM
      1  N        -11.7450   18.8340  -14.2970 N.3    67  ALA67      -0.1245
      2  CA       -11.7310   18.5120  -12.8790 C.3    67  ALA67       0.1562
      3  C        -10.2900   18.3180  -12.4820 C.2    67  ALA67       0.2260
      4  O         -9.4720   17.9080  -13.3140 O.2    67  ALA67      -0.2867
      5  CB       -12.5540   17.2410  -12.5800 C.3    67  ALA67       0.0290
      6  N        -10.4660   17.0570   -4.0500 N.3    80  GLU80      -0.1245
      7  CA       -10.9750   17.1200   -5.4070 C.3    80  GLU80       0.1567
      8  C        -11.9460   18.3020   -5.6400 C.2    80  GLU80       0.2260
      9  O        -12.7270   18.6310   -4.7560 O.2    80  GLU80      -0.2867
     10  CB       -11.5970   15.7340   -5.6990 C.3    80  GLU80       0.0388
     11  CG       -12.8280   15.7250   -6.4840 C.3    80  GLU80       0.1160
     12  CD       -14.0570   16.1760   -5.7150 C.2    80  GLU80       0.3649
     13  OE1      -14.1970   15.9980   -4.4830 O.co2  80  GLU80      -0.2457
     14  OE2      -14.8680   16.7660   -6.4130 O.co2  80  GLU80      -0.2457
     15  N        -14.3160   18.7330   -8.1410 N.3    82  ASP82      -0.1239
     16  CA       -15.4610   18.4180   -8.9840 C.3    82  ASP82       0.1674
     17  C        -16.7530   18.7200   -8.2140 C.2    82  ASP82       0.2266
     18  O        -17.0590   18.0560   -7.2280 O.2    82  ASP82      -0.2867
     19  CB       -15.3860   16.9470   -9.4250 C.3    82  ASP82       0.1410
     20  CG       -16.4350   16.5680  -10.4510 C.2    82  ASP82       0.3668
     21  OD1      -17.5350   17.1730  -10.5180 O.co2  82  ASP82      -0.2456
     22  OD2      -16.1720   15.6330  -11.2300 O.co2  82  ASP82      -0.2456
     23  N        -19.3150   15.5800   -8.0770 N.3    85  TRP85      -0.1241
     24  CA       -18.8180   14.2380   -7.7960 C.3    85  TRP85       0.1605
     25  C        -18.1000   14.0920   -6.4570 C.2    85  TRP85       0.2264
     26  O        -17.2540   14.9190   -6.0770 O.2    85  TRP85      -0.2867
     27  CB       -17.8700   13.7630   -8.8970 C.3    85  TRP85       0.0550
     28  CG       -17.4160   12.3430   -8.6530 C.ar   85  TRP85       0.0003
     29  CD1      -18.1250   11.2050   -8.9160 C.ar   85  TRP85       0.0946
     30  CD2      -16.1770   11.9130   -8.0640 C.ar   85  TRP85       0.0152
     31  NE1      -17.4010   10.0950   -8.5360 N.ar   85  TRP85      -0.2442
     32  CE2      -16.2050   10.5040   -8.0140 C.ar   85  TRP85       0.0810
     33  CE3      -15.0410   12.5820   -7.5990 C.ar   85  TRP85       0.0012
     34  CZ2      -15.1420    9.7540   -7.5200 C.ar   85  TRP85       0.0191
     35  CZ3      -13.9930   11.8380   -7.1050 C.ar   85  TRP85       0.0001
     36  CH2      -14.0480   10.4330   -7.0690 C.ar   85  TRP85       0.0015
     37  N        -14.6120    3.5640   -4.5140 N.3    91  TYR91      -0.1241
     38  CA       -13.5540    4.3070   -5.2150 C.3    91  TYR91       0.1605
     39  C        -12.2560    4.3080   -4.4450 C.2    91  TYR91       0.2264
     40  O        -12.2110    4.7300   -3.3090 O.2    91  TYR91      -0.2867
     41  CB       -13.9750    5.7530   -5.4730 C.3    91  TYR91       0.0534
     42  CG       -13.0040    6.5510   -6.3150 C.ar   91  TYR91      -0.0201
     43  CD1      -13.0850    6.5200   -7.7000 C.ar   91  TYR91      -0.0009
     44  CD2      -12.0240    7.3600   -5.7350 C.ar   91  TYR91      -0.0009
     45  CE1      -12.2210    7.2490   -8.4900 C.ar   91  TYR91       0.0417
     46  CE2      -11.1470    8.0940   -6.5280 C.ar   91  TYR91       0.0417
     47  CZ       -11.2620    8.0310   -7.9060 C.ar   91  TYR91       0.1957
     48  OH       -10.4300    8.7390   -8.7350 O.3    91  TYR91      -0.2866
     49  N         -6.6360    3.9020  -10.1530 N.3    96  ARG96      -0.1245
     50  CA        -7.0180    4.6380  -11.3540 C.3    96  ARG96       0.1563
     51  C         -5.8290    4.8750  -12.2980 C.2    96  ARG96       0.2260
     52  O         -4.6790    4.9230  -11.8690 O.2    96  ARG96      -0.2867
     53  CB        -7.6680    5.9760  -10.9520 C.3    96  ARG96       0.0307
     54  CG        -8.9370    5.8230  -10.0790 C.3    96  ARG96       0.0489
     55  CD       -10.0370    5.0770  -10.8260 C.3    96  ARG96       0.2205
     56  NE       -10.6680    5.8960  -11.8600 N.pl3  96  ARG96      -0.0865
     57  CZ       -11.3440    5.3990  -12.8870 C.cat  96  ARG96       0.5346
     58  NH1      -11.4660    4.0890  -13.0110 N.pl3  96  ARG96       0.1354
     59  NH2      -11.9030    6.2040  -13.7860 N.pl3  96  ARG96       0.1354
     60  N         -4.6790    7.5980  -14.1430 N.3    98  TRP98      -0.1241
     61  CA        -3.8370    8.7780  -13.9210 C.3    98  TRP98       0.1605
     62  C         -2.8540    8.5240  -12.7920 C.2    98  TRP98       0.2264
     63  O         -1.7100    8.9630  -12.8280 O.2    98  TRP98      -0.2867
     64  CB        -4.6960   10.0190  -13.6080 C.3    98  TRP98       0.0550
     65  CG        -5.7830    9.7940  -12.5660 C.ar   98  TRP98       0.0003
     66  CD1       -7.0530    9.3330  -12.7930 C.ar   98  TRP98       0.0946
     67  CD2       -5.6870   10.0090  -11.1470 C.ar   98  TRP98       0.0152
     68  NE1       -7.7560    9.2640  -11.6150 N.ar   98  TRP98      -0.2442
     69  CE2       -6.9450    9.6730  -10.5890 C.ar   98  TRP98       0.0810
     70  CE3       -4.6760   10.4870  -10.3040 C.ar   98  TRP98       0.0012
     71  CZ2       -7.2130    9.7780   -9.2130 C.ar   98  TRP98       0.0191
     72  CZ3       -4.9440   10.5940   -8.9280 C.ar   98  TRP98       0.0001
     73  CH2       -6.2050   10.2420   -8.4040 C.ar   98  TRP98       0.0015
     74  N         -9.9330    6.9550  -21.1230 N.3   114  TYR114     -0.1241
     75  CA       -10.5900    5.9980  -20.2340 C.3   114  TYR114      0.1605
     76  C        -11.9030    6.5860  -19.7720 C.2   114  TYR114      0.2264
     77  O        -12.1440    7.7790  -19.9730 O.2   114  TYR114     -0.2867
     78  CB        -9.7130    5.6610  -19.0330 C.3   114  TYR114      0.0534
     79  CG        -9.4540    6.8330  -18.0870 C.ar  114  TYR114     -0.0201
     80  CD1       -8.5060    7.8020  -18.3910 C.ar  114  TYR114     -0.0009
     81  CD2      -10.1490    6.9560  -16.8920 C.ar  114  TYR114     -0.0009
     82  CE1       -8.2580    8.8520  -17.5390 C.ar  114  TYR114      0.0417
     83  CE2       -9.9080    8.0100  -16.0240 C.ar  114  TYR114      0.0417
     84  CZ        -8.9590    8.9500  -16.3480 C.ar  114  TYR114      0.1957
     85  OH        -8.7010    9.9960  -15.4910 O.3   114  TYR114     -0.2866
     86  N        -14.3380    8.2170  -17.3410 N.3   116  ASP116     -0.1225
     87  CA       -14.4120    9.0700  -16.1750 C.3   116  ASP116      0.1805
     88  C        -15.4560    8.5430  -15.1930 C.2   116  ASP116      0.2598
     89  O        -16.6000    8.3010  -15.5710 O.2   116  ASP116     -0.2718
     90  CB       -14.7570   10.4940  -16.6270 C.3   116  ASP116      0.1424
     91  CG       -14.8880   11.4780  -15.4710 C.2   116  ASP116      0.3668
     92  OD1      -14.5020   11.1510  -14.3190 O.co2 116  ASP116     -0.2456
     93  OD2      -15.3800   12.5930  -15.7370 O.co2 116  ASP116     -0.2456
     94  N        -15.0820    8.3680  -13.9300 N.am  117  ILE117     -0.1966
     95  CA       -16.0640    7.8780  -12.9730 C.3   117  ILE117      0.1727
     96  C        -17.1060    8.9590  -12.7020 C.2   117  ILE117      0.2616
     97  O        -18.2600    8.6670  -12.4010 O.2   117  ILE117     -0.2715
     98  CB       -15.4080    7.4090  -11.6530 C.3   117  ILE117      0.0290
     99  CG1      -14.6020    6.1330  -11.9140 C.3   117  ILE117      0.0022
    100  CG2      -16.4580    7.0660  -10.6270 C.3   117  ILE117      0.0023
    101  CD1      -14.3070    5.3000  -10.6650 C.3   117  ILE117      0.0001
    102  N        -16.7140   10.2170  -12.8460 N.am  118  SER118     -0.1950
    103  CA       -17.6490   11.3050  -12.6130 C.3   118  SER118      0.1924
    104  C        -18.6310   11.4900  -13.7840 C.2   118  SER118      0.2314
    105  O        -19.8260   11.3060  -13.6300 O.2   118  SER118     -0.2863
    106  CB       -16.8830   12.5990  -12.3470 C.3   118  SER118      0.2116
    107  OG       -17.7740   13.7000  -12.2300 O.3   118  SER118     -0.2180
    108  N        -12.4970   10.3080  -21.2050 N.3   123  ILE123     -0.1245
    109  CA       -11.6820   11.5040  -21.0410 C.3   123  ILE123      0.1561
    110  C        -10.2280   11.1200  -21.1870 C.2   123  ILE123      0.2260
    111  O         -9.9070    9.9350  -21.3140 O.2   123  ILE123     -0.2867
    112  CB       -11.8840   12.1630  -19.6470 C.3   123  ILE123      0.0252
    113  CG1      -11.6130   11.1430  -18.5330 C.3   123  ILE123      0.0019
    114  CG2      -13.2800   12.7450  -19.5120 C.3   123  ILE123      0.0019
    115  CD1      -11.4120   11.7650  -17.1060 C.3   123  ILE123      0.0001
    116  N         -4.6850   14.2310  -10.6850 N.3   141  PHE141     -0.1241
    117  CA        -5.2740   14.2130  -12.0160 C.3   141  PHE141      0.1605
    118  C         -5.7260   15.6140  -12.4210 C.2   141  PHE141      0.2264
    119  O         -6.2050   16.3860  -11.5770 O.2   141  PHE141     -0.2867
    120  CB        -6.4530   13.2440  -12.0950 C.3   141  PHE141      0.0534
    121  CG        -7.6150   13.6010  -11.1870 C.ar  141  PHE141     -0.0203
    122  CD1       -8.6320   14.4540  -11.6250 C.ar  141  PHE141     -0.0042
    123  CD2       -7.7190   13.0400   -9.9240 C.ar  141  PHE141     -0.0042
    124  CE1       -9.7140   14.7540  -10.7940 C.ar  141  PHE141     -0.0003
    125  CE2       -8.7940   13.3420   -9.0810 C.ar  141  PHE141     -0.0003
    126  CZ        -9.7880   14.1960   -9.5140 C.ar  141  PHE141     -0.0000
    127  N         -8.2320   16.5200  -15.4270 N.3   143  ASP143     -0.1239
    128  CA        -9.0660   15.9180  -16.4620 C.3   143  ASP143      0.1674
    129  C         -9.3040   16.8780  -17.6300 C.2   143  ASP143      0.2266
    130  O         -9.4750   18.0810  -17.4480 O.2   143  ASP143     -0.2867
    131  CB       -10.4160   15.4800  -15.8840 C.3   143  ASP143      0.1410
    132  CG       -10.2990   14.3420  -14.8850 C.2   143  ASP143      0.3668
    133  OD1       -9.2350   13.6820  -14.8010 O.co2 143  ASP143     -0.2456
    134  OD2      -11.3080   14.0950  -14.1980 O.co2 143  ASP143     -0.2456
@<TRIPOS>BOND
     1   111   110    2
     2   108   109    1
     3   110   109    1
     4    74    75    1
     5   109   112    1
     6    75    76    1
     7    75    78    1
     8    77    76    2
     9   112   114    1
    10   112   113    1
    11    78    79    1
    12   113   115    1
    13    80    79   ar
    14    80    82   ar
    15    79    81   ar
    16   129   130    2
    17   129   128    1
    18    82    84   ar
    19    86    87    1
    20    81    83   ar
    21    90    87    1
    22    90    91    1
    23   128   131    1
    24   128   127    1
    25    84    83   ar
    26    84    85    1
    27    87    88    1
    28   131   132    1
    29    93    91   ar
    30    89    88    2
    31    91    92   ar
    32    88    94   am
    33   132   133   ar
    34   132   134   ar
    35     1     2    1
    36    60    61    1
    37    94    95    1
    38    61    64    1
    39    61    62    1
    40    59    57    1
    41   104   105    2
    42   104   103    1
    43    64    65    1
    44     4     3    2
    45    58    57    1
    46    95    96    1
    47    95    98    1
    48    57    56    2
    49     2     5    1
    50     2     3    1
    51   102    96   am
    52   102   103    1
    53    63    62    2
    54    66    65   ar
    55    66    68   ar
    56    96    97    2
    57   103   106    1
    58    65    67   ar
    59   118   117    1
    60   118   119    2
    61   106   107    1
    62    51    52    2
    63    51    50    1
    64   120   117    1
    65   120   121    1
    66   117   116    1
    67    99    98    1
    68    99   101    1
    69    56    55    1
    70    98   100    1
    71   122   121   ar
    72   122   124   ar
    73    68    69   ar
    74    50    53    1
    75    50    49    1
    76    22    20   ar
    77   121   123   ar
    78    67    69   ar
    79    67    70   ar
    80    53    54    1
    81    55    54    1
    82   124   126   ar
    83    69    71   ar
    84    21    20   ar
    85    20    19    1
    86    70    72   ar
    87   123   125   ar
    88   126   125   ar
    89    19    16    1
    90    71    73   ar
    91    16    17    1
    92    16    15    1
    93    72    73   ar
    94    29    28   ar
    95    29    31   ar
    96    27    28    1
    97    27    24    1
    98    48    47    1
    99    28    30   ar
   100    31    32   ar
   101    45    47   ar
   102    45    43   ar
   103    17    18    2
   104    23    24    1
   105    30    32   ar
   106    30    33   ar
   107    32    34   ar
   108    47    46   ar
   109    24    25    1
   110    43    42   ar
   111    33    35   ar
   112    34    36   ar
   113    35    36   ar
   114    46    44   ar
   115    11    12    1
   116    11    10    1
   117    25    26    2
   118    14    12   ar
   119    42    44   ar
   120    42    41    1
   121    12    13   ar
   122    10     7    1
   123     8     7    1
   124     8     9    2
   125    41    38    1
   126     7     6    1
   127    38    37    1
   128    38    39    1
   129    39    40    2
