@<TRIPOS>MOLECULE
tmp/6iouA00.pdb
 125 121 0 0 0
SMALL
GASTEIGER

@<TRIPOS>ATOM
      1  N          5.7490    9.7350   15.2630 N.3    64  ALA64      -0.1245
      2  CA         5.7970    9.5860   16.7010 C.3    64  ALA64       0.1562
      3  C          7.1990    9.9310   17.1800 C.2    64  ALA64       0.2260
      4  O          8.1700    9.8820   16.4170 O.2    64  ALA64      -0.2867
      5  CB         5.3910    8.1600   17.1210 C.3    64  ALA64       0.0290
      6  N          3.0070    8.8210   21.3260 N.3    79  ASP79      -0.1239
      7  CA         2.0870    8.0670   20.4710 C.3    79  ASP79       0.1674
      8  C          0.7580    7.7930   21.1980 C.2    79  ASP79       0.2266
      9  O          0.6920    6.9270   22.0640 O.2    79  ASP79      -0.2867
     10  CB         2.7510    6.7450   20.0240 C.3    79  ASP79       0.1410
     11  CG         1.9580    6.0160   18.9260 C.2    79  ASP79       0.3668
     12  OD1        0.7130    6.0900   18.9130 O.co2  79  ASP79      -0.2456
     13  OD2        2.5860    5.3640   18.0670 O.co2  79  ASP79      -0.2456
     14  N         -0.2970    4.0030   21.1680 N.3    82  TRP82      -0.1241
     15  CA         0.6070    2.9440   21.5900 C.3    82  TRP82       0.1605
     16  C          1.1670    3.1700   22.9810 C.2    82  TRP82       0.2264
     17  O          1.6270    4.2490   23.3210 O.2    82  TRP82      -0.2867
     18  CB         1.7720    2.7980   20.6000 C.3    82  TRP82       0.0550
     19  CG         2.8820    1.8710   21.0680 C.ar   82  TRP82       0.0003
     20  CD1        2.7900    0.5240   21.2760 C.ar   82  TRP82       0.0946
     21  CD2        4.2560    2.2210   21.3190 C.ar   82  TRP82       0.0152
     22  NE1        4.0110    0.0180   21.6620 N.ar   82  TRP82      -0.2442
     23  CE2        4.9300    1.0350   21.6860 C.ar   82  TRP82       0.0810
     24  CE3        4.9830    3.4170   21.2710 C.ar   82  TRP82       0.0012
     25  CZ2        6.2970    1.0160   22.0130 C.ar   82  TRP82       0.0191
     26  CZ3        6.3360    3.3940   21.5870 C.ar   82  TRP82       0.0001
     27  CH2        6.9770    2.2000   21.9580 C.ar   82  TRP82       0.0015
     28  N          8.6770   -4.9090   25.6960 N.3    88  TYR88      -0.1241
     29  CA         9.3020   -3.9300   24.8070 C.3    88  TYR88       0.1605
     30  C         10.5590   -3.3550   25.4330 C.2    88  TYR88       0.2264
     31  O         10.4970   -2.6410   26.4310 O.2    88  TYR88      -0.2867
     32  CB         8.3320   -2.7940   24.4630 C.3    88  TYR88       0.0534
     33  CG         8.9220   -1.7360   23.5400 C.ar   88  TYR88      -0.0201
     34  CD1        8.9500   -1.9290   22.1640 C.ar   88  TYR88      -0.0009
     35  CD2        9.4340   -0.5410   24.0490 C.ar   88  TYR88      -0.0009
     36  CE1        9.4810   -0.9690   21.3150 C.ar   88  TYR88       0.0417
     37  CE2        9.9640    0.4280   23.2130 C.ar   88  TYR88       0.0417
     38  CZ         9.9800    0.2080   21.8440 C.ar   88  TYR88       0.1957
     39  OH        10.5030    1.1680   21.0120 O.3    88  TYR88      -0.2866
     40  N         15.8060   -1.9670   19.8100 N.3    93  ARG93      -0.1245
     41  CA        15.2230   -1.3910   18.5930 C.3    93  ARG93       0.1563
     42  C         16.2710   -0.6900   17.7150 C.2    93  ARG93       0.2260
     43  O         17.2520   -0.1610   18.2200 O.2    93  ARG93      -0.2867
     44  CB        14.0930   -0.4180   18.9700 C.3    93  ARG93       0.0307
     45  CG        12.9950   -1.0400   19.8320 C.3    93  ARG93       0.0489
     46  CD        12.3010   -2.1750   19.0990 C.3    93  ARG93       0.2205
     47  NE        11.4940   -1.7000   17.9770 N.pl3  93  ARG93      -0.0865
     48  CZ        11.2630   -2.3840   16.8550 C.cat  93  ARG93       0.5346
     49  NH1       11.7820   -3.5860   16.6820 N.pl3  93  ARG93       0.1354
     50  NH2       10.5140   -1.8540   15.9020 N.pl3  93  ARG93       0.1354
     51  N         16.5310    2.1180   15.9600 N.3    95  TRP95      -0.1241
     52  CA        16.8370    3.5320   16.1500 C.3    95  TRP95       0.1605
     53  C         17.7810    3.7350   17.3260 C.2    95  TRP95       0.2264
     54  O         18.6480    4.6190   17.3010 O.2    95  TRP95      -0.2867
     55  CB        15.5580    4.3550   16.3640 C.3    95  TRP95       0.0550
     56  CG        14.6050    3.7640   17.3540 C.ar   95  TRP95       0.0003
     57  CD1       13.5930    2.8830   17.0930 C.ar   95  TRP95       0.0946
     58  CD2       14.5630    4.0180   18.7670 C.ar   95  TRP95       0.0152
     59  NE1       12.9280    2.5710   18.2620 N.ar   95  TRP95      -0.2442
     60  CE2       13.4980    3.2580   19.3000 C.ar   95  TRP95       0.0810
     61  CE3       15.3210    4.8150   19.6360 C.ar   95  TRP95       0.0012
     62  CZ2       13.1900    3.2530   20.6620 C.ar   95  TRP95       0.0191
     63  CZ3       14.9970    4.8240   20.9720 C.ar   95  TRP95       0.0001
     64  CH2       13.9440    4.0460   21.4740 C.ar   95  TRP95       0.0015
     65  N         12.2820   -0.2200    8.5530 N.3   111  TYR111     -0.1241
     66  CA        11.9390   -1.3340    9.4390 C.3   111  TYR111      0.1605
     67  C         10.4680   -1.2940    9.8150 C.2   111  TYR111      0.2264
     68  O          9.7800   -0.3000    9.5650 O.2   111  TYR111     -0.2867
     69  CB        12.8080   -1.3130   10.6970 C.3   111  TYR111      0.0534
     70  CG        12.4810   -0.1870   11.6730 C.ar  111  TYR111     -0.0201
     71  CD1       13.0250    1.0830   11.5000 C.ar  111  TYR111     -0.0009
     72  CD2       11.6790   -0.4140   12.8020 C.ar  111  TYR111     -0.0009
     73  CE1       12.7540    2.1170   12.4060 C.ar  111  TYR111      0.0417
     74  CE2       11.4020    0.5980   13.7000 C.ar  111  TYR111      0.0417
     75  CZ        11.9360    1.8580   13.5050 C.ar  111  TYR111      0.1957
     76  OH        11.6350    2.8730   14.3970 O.3   111  TYR111     -0.2866
     77  N          7.6620   -0.6930   12.1670 N.3   113  ASP113     -0.1225
     78  CA         7.2490    0.0270   13.3790 C.3   113  ASP113      0.1805
     79  C          6.4140   -0.8870   14.3020 C.2   113  ASP113      0.2598
     80  O          5.4570   -1.5050   13.8520 O.2   113  ASP113     -0.2718
     81  CB         6.4580    1.2770   12.9510 C.3   113  ASP113      0.1424
     82  CG         5.9230    2.1080   14.1190 C.2   113  ASP113      0.3668
     83  OD1        6.5440    2.1470   15.2000 O.co2 113  ASP113     -0.2456
     84  OD2        4.8860    2.7760   13.9110 O.co2 113  ASP113     -0.2456
     85  N          6.7540   -1.0090   15.5810 N.am  114  ILE114     -0.1966
     86  CA         5.8890   -1.8400   16.4460 C.3   114  ILE114      0.1727
     87  C          4.5550   -1.1380   16.7070 C.2   114  ILE114      0.2616
     88  O          3.5920   -1.7620   17.1200 O.2   114  ILE114     -0.2715
     89  CB         6.5400   -2.2320   17.8260 C.3   114  ILE114      0.0290
     90  CG1        7.4910   -1.1730   18.3340 C.3   114  ILE114      0.0022
     91  CG2        7.2710   -3.5900   17.7570 C.3   114  ILE114      0.0023
     92  CD1        6.8010    0.0390   18.8150 C.3   114  ILE114      0.0001
     93  N          4.4910    0.1640   16.4680 N.am  115  SER115     -0.1950
     94  CA         3.2520    0.8870   16.7350 C.3   115  SER115      0.1924
     95  C          2.2430    0.7140   15.5860 C.2   115  SER115      0.2314
     96  O          1.1740    0.1320   15.7810 O.2   115  SER115     -0.2863
     97  CB         3.5280    2.3750   16.9790 C.3   115  SER115      0.2116
     98  OG         2.3180    3.0610   17.2340 O.3   115  SER115     -0.2180
     99  N          8.5510    1.9510    8.1870 N.3   120  ILE120     -0.1245
    100  CA         8.9690    3.3330    8.3290 C.3   120  ILE120      0.1561
    101  C         10.4880    3.4480    8.3890 C.2   120  ILE120      0.2260
    102  O         11.1990    2.4420    8.3740 O.2   120  ILE120     -0.2867
    103  CB         8.3930    3.9650    9.6100 C.3   120  ILE120      0.0252
    104  CG1        8.9890    3.2530   10.8190 C.3   120  ILE120      0.0019
    105  CG2        6.8590    3.8850    9.6270 C.3   120  ILE120      0.0019
    106  CD1        8.6780    3.9320   12.1450 C.3   120  ILE120      0.0001
    107  N         13.8330    8.2070   19.2380 N.3   138  PHE138     -0.1241
    108  CA        13.3420    8.0290   17.8740 C.3   138  PHE138      0.1605
    109  C         12.4170    9.1830   17.5220 C.2   138  PHE138      0.2264
    110  O         11.6810    9.6940   18.3680 O.2   138  PHE138     -0.2867
    111  CB        12.6080    6.6930   17.6860 C.3   138  PHE138      0.0534
    112  CG        11.3360    6.5550   18.5070 C.ar  138  PHE138     -0.0203
    113  CD1       11.3830    6.0290   19.7990 C.ar  138  PHE138     -0.0042
    114  CD2       10.1000    6.9060   17.9740 C.ar  138  PHE138     -0.0042
    115  CE1       10.2250    5.8700   20.5530 C.ar  138  PHE138     -0.0003
    116  CE2        8.9180    6.7600   18.7180 C.ar  138  PHE138     -0.0003
    117  CZ         8.9900    6.2410   20.0250 C.ar  138  PHE138     -0.0000
    118  N          9.9460    9.2060   14.3570 N.3   140  ASP140     -0.1239
    119  CA         9.5660    8.3550   13.2470 C.3   140  ASP140      0.1674
    120  C          9.0950    9.1400   12.0210 C.2   140  ASP140      0.2266
    121  O          8.4410   10.1610   12.1610 O.2   140  ASP140     -0.2867
    122  CB         8.4620    7.3710   13.6570 C.3   140  ASP140      0.1410
    123  CG         8.9140    6.3590   14.6890 C.2   140  ASP140      0.3668
    124  OD1       10.1350    6.2000   14.8900 O.co2 140  ASP140     -0.2456
    125  OD2        8.0200    5.7210   15.2990 O.co2 140  ASP140     -0.2456
@<TRIPOS>BOND
     1    99   100    1
     2   100   101    1
     3   100   103    1
     4   102   101    2
     5    65    66    1
     6    66    67    1
     7    66    69    1
     8    68    67    2
     9   103   105    1
    10   103   104    1
    11    69    70    1
    12   104   106    1
    13    71    70   ar
    14    71    73   ar
    15    70    72   ar
    16   120   121    2
    17   120   119    1
    18    77    78    1
    19    73    75   ar
    20    72    74   ar
    21    81    78    1
    22    81    82    1
    23   119   122    1
    24   119   118    1
    25    78    79    1
    26    75    74   ar
    27    75    76    1
    28   122   123    1
    29    80    79    2
    30    84    82   ar
    31    82    83   ar
    32    79    85   am
    33   123   124   ar
    34   123   125   ar
    35     1     2    1
    36    85    86    1
    37    95    96    2
    38    95    94    1
    39    50    48    1
    40    51    52    1
    41    52    55    1
    42    52    53    1
    43    55    56    1
    44     4     3    2
    45    86    87    1
    46    86    89    1
    47    93    87   am
    48    93    94    1
    49    49    48    1
    50     2     5    1
    51     2     3    1
    52    87    88    2
    53    94    97    1
    54    48    47    2
    55    97    98    1
    56    57    56   ar
    57    57    59   ar
    58    54    53    2
    59    56    58   ar
    60   109   108    1
    61   109   110    2
    62   111   108    1
    63   111   112    1
    64    42    43    2
    65    42    41    1
    66    91    89    1
    67    89    90    1
    68   108   107    1
    69   114   112   ar
    70   114   116   ar
    71    47    46    1
    72    13    11   ar
    73    59    60   ar
    74    90    92    1
    75   112   113   ar
    76    41    44    1
    77    41    40    1
    78   116   117   ar
    79    58    60   ar
    80    58    61   ar
    81    12    11   ar
    82    11    10    1
    83    44    45    1
    84    46    45    1
    85    60    62   ar
    86    61    63   ar
    87   113   115   ar
    88    10     7    1
    89   117   115   ar
    90     7     8    1
    91     7     6    1
    92    18    19    1
    93    18    15    1
    94    62    64   ar
    95    63    64   ar
    96    39    38    1
    97    19    20   ar
    98    19    21   ar
    99    14    15    1
   100     8     9    2
   101    24    21   ar
   102    24    26   ar
   103    20    22   ar
   104    36    38   ar
   105    36    34   ar
   106    21    23   ar
   107    26    27   ar
   108    15    16    1
   109    22    23   ar
   110    23    25   ar
   111    38    37   ar
   112    27    25   ar
   113    34    33   ar
   114    16    17    2
   115    37    35   ar
   116    33    35   ar
   117    33    32    1
   118    32    29    1
   119    29    30    1
   120    29    28    1
   121    30    31    2
