@<TRIPOS>MOLECULE
tmp/6iq5A01.pdb
 159 149 0 0 0
SMALL
GASTEIGER

@<TRIPOS>ATOM
      1  N         21.5580  -59.1430  -20.5900 N.3    59  VAL59      -0.1231
      2  CA        22.5220  -58.0300  -20.5590 C.3    59  VAL59       0.1692
      3  C         23.6080  -58.3020  -19.5280 C.2    59  VAL59       0.2592
      4  O         23.2910  -58.6180  -18.3730 O.2    59  VAL59      -0.2718
      5  CB        21.8650  -56.6490  -20.2320 C.3    59  VAL59       0.0266
      6  CG1       22.8870  -55.5230  -20.3600 C.3    59  VAL59       0.0020
      7  CG2       20.6750  -56.3370  -21.1220 C.3    59  VAL59       0.0020
      8  N         24.8730  -58.1950  -19.9480 N.am   60  SER60      -0.1952
      9  CA        26.0040  -58.2130  -19.0230 C.3    60  SER60       0.1924
     10  C         25.9670  -59.4180  -18.0730 C.2    60  SER60       0.2314
     11  O         26.1490  -59.2600  -16.8640 O.2    60  SER60      -0.2863
     12  CB        26.0280  -56.9030  -18.2260 C.3    60  SER60       0.2116
     13  OG        25.8610  -55.7880  -19.0920 O.3    60  SER60      -0.2180
     14  N         23.8030  -57.0240  -14.8320 N.3    64  SER64      -0.1217
     15  CA        23.6370  -55.5810  -15.0870 C.3    64  SER64       0.1889
     16  C         22.9150  -54.8240  -13.9640 C.2    64  SER64       0.2288
     17  O         22.0530  -55.3670  -13.2760 O.2    64  SER64      -0.2866
     18  CB        22.8540  -55.3490  -16.3900 C.3    64  SER64       0.2089
     19  OG        22.4630  -53.9890  -16.5400 O.3    64  SER64      -0.2183
     20  N         21.7410  -51.4420  -14.8090 N.3    66  ALA66      -0.1231
     21  CA        20.7210  -50.8010  -15.6820 C.3    66  ALA66       0.1694
     22  C         19.4160  -51.5330  -15.6980 C.2    66  ALA66       0.2592
     23  O         18.3570  -50.9560  -15.4830 O.2    66  ALA66      -0.2718
     24  CB        21.2240  -50.6830  -17.1140 C.3    66  ALA66       0.0304
     25  N         19.5140  -52.8260  -15.9300 N.am   67  PHE67      -0.1976
     26  CA        18.3560  -53.6200  -16.2030 C.3    67  PHE67       0.1639
     27  C         17.9230  -54.4940  -15.0120 C.2    67  PHE67       0.2290
     28  O         16.9150  -55.2140  -15.0970 O.2    67  PHE67      -0.2864
     29  CB        18.6500  -54.3910  -17.4890 C.3    67  PHE67       0.0560
     30  CG        18.7640  -53.4930  -18.6980 C.ar   67  PHE67      -0.0200
     31  CD1       17.6290  -52.9100  -19.2570 C.ar   67  PHE67      -0.0042
     32  CD2       19.9900  -53.1990  -19.2570 C.ar   67  PHE67      -0.0042
     33  CE1       17.7120  -52.0670  -20.3620 C.ar   67  PHE67      -0.0003
     34  CE2       20.0810  -52.3590  -20.3620 C.ar   67  PHE67      -0.0003
     35  CZ        18.9430  -51.7920  -20.9160 C.ar   67  PHE67      -0.0000
     36  N         24.5740  -50.6840  -32.1490 N.3   161  ASN161     -0.1240
     37  CA        23.7680  -49.9780  -31.1360 C.3   161  ASN161      0.1653
     38  C         22.2540  -49.8590  -31.4680 C.2   161  ASN161      0.2266
     39  O         21.3820  -50.0030  -30.5910 O.2   161  ASN161     -0.2867
     40  CB        24.3840  -48.6090  -30.8390 C.3   161  ASN161      0.1155
     41  CG        25.6530  -48.7000  -30.0170 C.2   161  ASN161      0.2627
     42  OD1       26.1710  -49.7780  -29.7230 O.2   161  ASN161     -0.2716
     43  ND2       26.1600  -47.5510  -29.6510 N.am  161  ASN161     -0.0877
     44  N         20.5890  -52.8120  -29.8380 N.3   164  PHE164     -0.1241
     45  CA        20.4040  -52.7680  -28.3910 C.3   164  PHE164      0.1605
     46  C         19.2810  -51.8080  -27.9740 C.2   164  PHE164      0.2264
     47  O         18.6380  -52.0080  -26.9430 O.2   164  PHE164     -0.2867
     48  CB        21.7160  -52.4180  -27.6650 C.3   164  PHE164      0.0534
     49  CG        21.6450  -52.5890  -26.1700 C.ar  164  PHE164     -0.0203
     50  CD1       21.0070  -51.6340  -25.3520 C.ar  164  PHE164     -0.0042
     51  CD2       22.2020  -53.6980  -25.5720 C.ar  164  PHE164     -0.0042
     52  CE1       20.9180  -51.8010  -23.9780 C.ar  164  PHE164     -0.0003
     53  CE2       22.1150  -53.8670  -24.1970 C.ar  164  PHE164     -0.0003
     54  CZ        21.4750  -52.9240  -23.4010 C.ar  164  PHE164     -0.0000
     55  N         25.3420  -59.1960  -29.7800 N.3   197  LEU197     -0.1231
     56  CA        26.1190  -57.9980  -29.3970 C.3   197  LEU197      0.1693
     57  C         26.2280  -57.7680  -27.9060 C.2   197  LEU197      0.2592
     58  O         26.9910  -56.9160  -27.5000 O.2   197  LEU197     -0.2718
     59  CB        25.5640  -56.7350  -30.0590 C.3   197  LEU197      0.0284
     60  CG        24.4480  -56.0120  -29.3050 C.3   197  LEU197      0.0019
     61  CD1       24.9690  -54.7340  -28.7110 C.3   197  LEU197      0.0001
     62  CD2       23.2920  -55.6840  -30.2210 C.3   197  LEU197      0.0001
     63  N         25.4410  -58.4750  -27.0990 N.am  198  ASN198     -0.1974
     64  CA        25.7190  -58.5670  -25.6630 C.3   198  ASN198      0.1688
     65  C         26.8260  -59.5600  -25.3440 C.2   198  ASN198      0.2292
     66  O         27.6360  -59.3230  -24.4370 O.2   198  ASN198     -0.2864
     67  CB        24.4820  -58.9490  -24.8660 C.3   198  ASN198      0.1181
     68  CG        24.0720  -57.8700  -23.8990 C.2   198  ASN198      0.2629
     69  OD1       24.8920  -57.3560  -23.1140 O.2   198  ASN198     -0.2716
     70  ND2       22.7960  -57.5250  -23.9290 N.am  198  ASN198     -0.0877
     71  N         29.9730  -57.6530  -26.0850 N.3   201  PHE201     -0.1241
     72  CA        30.3370  -56.6190  -25.0850 C.3   201  PHE201      0.1605
     73  C         30.8810  -57.2740  -23.8180 C.2   201  PHE201      0.2264
     74  O         31.9210  -56.8630  -23.3070 O.2   201  PHE201     -0.2867
     75  CB        29.1490  -55.7040  -24.7020 C.3   201  PHE201      0.0534
     76  CG        29.1450  -54.3400  -25.3750 C.ar  201  PHE201     -0.0203
     77  CD1       28.9020  -54.2160  -26.7390 C.ar  201  PHE201     -0.0042
     78  CD2       29.3090  -53.1870  -24.6370 C.ar  201  PHE201     -0.0042
     79  CE1       28.8510  -52.9740  -27.3580 C.ar  201  PHE201     -0.0003
     80  CE2       29.2600  -51.9470  -25.2520 C.ar  201  PHE201     -0.0003
     81  CZ        29.0290  -51.8370  -26.6130 C.ar  201  PHE201     -0.0000
     82  N         30.6400  -52.8480  -17.6780 N.3   254  THR254     -0.1203
     83  CA        30.0090  -53.0250  -18.9770 C.3   254  THR254      0.1994
     84  C         28.9090  -52.0440  -19.1530 C.2   254  THR254      0.2617
     85  O         28.8080  -51.4550  -20.1980 O.2   254  THR254     -0.2717
     86  CB        29.4290  -54.4360  -19.2050 C.3   254  THR254      0.1784
     87  OG1       30.4510  -55.4290  -19.0470 O.3   254  THR254     -0.2211
     88  CG2       28.8260  -54.5540  -20.6240 C.3   254  THR254      0.0376
     89  N         28.0860  -51.8750  -18.1320 N.am  255  ASP255     -0.1973
     90  CA        26.9600  -50.9280  -18.1990 C.3   255  ASP255      0.1709
     91  C         27.4320  -49.4680  -18.3730 C.2   255  ASP255      0.2293
     92  O         26.8410  -48.7050  -19.1510 O.2   255  ASP255     -0.2864
     93  CB        26.0430  -51.0300  -16.9540 C.3   255  ASP255      0.1436
     94  CG        25.3770  -52.4170  -16.7840 C.2   255  ASP255      0.3671
     95  OD1       25.7050  -53.3930  -17.5020 O.co2 255  ASP255     -0.2456
     96  OD2       24.5020  -52.5200  -15.9030 O.co2 255  ASP255     -0.2456
     97  N         29.0360  -49.2960  -22.0050 N.3   258  GLY258     -0.1210
     98  CA        27.9980  -49.4830  -23.0090 C.3   258  GLY258      0.1956
     99  C         26.9590  -48.3940  -23.0220 C.2   258  GLY258      0.2611
    100  O         26.5010  -47.9950  -24.0870 O.2   258  GLY258     -0.2717
    101  N         26.6020  -47.9020  -21.8430 N.am  259  ALA259     -0.1979
    102  CA        25.6850  -46.7710  -21.7410 C.3   259  ALA259      0.1597
    103  C         26.1790  -45.5260  -22.4650 C.2   259  ALA259      0.2287
    104  O         25.5410  -45.0310  -23.3990 O.2   259  ALA259     -0.2864
    105  CB        25.4190  -46.4360  -20.2870 C.3   259  ALA259      0.0319
    106  N         29.0650  -44.8230  -24.3210 N.3   261  GLN261     -0.1231
    107  CA        29.3460  -44.9640  -25.7080 C.3   261  GLN261      0.1698
    108  C         28.1360  -44.7450  -26.6190 C.2   261  GLN261      0.2592
    109  O         28.2600  -44.0620  -27.6110 O.2   261  GLN261     -0.2718
    110  CB        29.9830  -46.3320  -25.9180 C.3   261  GLN261      0.0381
    111  CG        30.0040  -46.8770  -27.3360 C.3   261  GLN261      0.0905
    112  CD        28.8210  -47.7790  -27.7270 C.2   261  GLN261      0.2608
    113  OE1       28.5770  -47.9720  -28.9140 O.2   261  GLN261     -0.2717
    114  NE2       28.0870  -48.3250  -26.7650 N.am  261  GLN261     -0.0878
    115  N         26.9820  -45.3140  -26.2810 N.am  262  ASP262     -0.1960
    116  CA        25.7620  -45.2540  -27.1460 C.3   262  ASP262      0.1840
    117  C         25.0380  -43.9240  -27.0560 C.2   262  ASP262      0.2622
    118  O         24.7220  -43.3160  -28.0710 O.2   262  ASP262     -0.2715
    119  CB        24.8070  -46.4450  -26.8120 C.3   262  ASP262      0.1450
    120  CG        23.3250  -46.2480  -27.2740 C.2   262  ASP262      0.3671
    121  OD1       22.9550  -45.2470  -27.9390 O.co2 262  ASP262     -0.2456
    122  OD2       22.5190  -47.1610  -26.9540 O.co2 262  ASP262     -0.2456
    123  N         24.7760  -43.4940  -25.8340 N.am  263  THR263     -0.1951
    124  CA        23.9940  -42.2900  -25.5970 C.3   263  THR263      0.1897
    125  C         24.7840  -41.0190  -25.9140 C.2   263  THR263      0.2313
    126  O         24.3450  -40.1920  -26.7310 O.2   263  THR263     -0.2863
    127  CB        23.4180  -42.2430  -24.1640 C.3   263  THR263      0.1794
    128  OG1       24.4510  -42.0680  -23.1730 O.3   263  THR263     -0.2208
    129  CG2       22.6570  -43.5200  -23.9250 C.3   263  THR263      0.0378
    130  N         16.3100  -39.5790  -25.4330 N.3   324  VAL324     -0.1245
    131  CA        15.7820  -40.6970  -24.6460 C.3   324  VAL324      0.1561
    132  C         14.3640  -40.2710  -24.3030 C.2   324  VAL324      0.2260
    133  O         14.1570  -39.5540  -23.3050 O.2   324  VAL324     -0.2867
    134  CB        16.5610  -40.9590  -23.3260 C.3   324  VAL324      0.0252
    135  CG1       16.2540  -42.3610  -22.8000 C.3   324  VAL324      0.0019
    136  CG2       18.0490  -40.7700  -23.5430 C.3   324  VAL324      0.0019
    137  N         14.1600  -46.7260  -19.7640 N.3   328  ILE328     -0.1245
    138  CA        14.1540  -48.1660  -19.4790 C.3   328  ILE328      0.1561
    139  C         12.9460  -48.4870  -18.5880 C.2   328  ILE328      0.2260
    140  O         12.8800  -47.9730  -17.4650 O.2   328  ILE328     -0.2867
    141  CB        15.3930  -48.6460  -18.7050 C.3   328  ILE328      0.0252
    142  CG1       16.6630  -48.4010  -19.4900 C.3   328  ILE328      0.0019
    143  CG2       15.2640  -50.1470  -18.4140 C.3   328  ILE328      0.0019
    144  CD1       17.8860  -48.8400  -18.7200 C.3   328  ILE328      0.0001
    145  N         14.8930  -47.0750  -27.7660 N.3   438  LEU438     -0.1231
    146  CA        15.5760  -46.6370  -26.5630 C.3   438  LEU438      0.1693
    147  C         16.0220  -45.1930  -26.8090 C.2   438  LEU438      0.2592
    148  O         15.6850  -44.2830  -26.0510 O.2   438  LEU438     -0.2718
    149  CB        16.7840  -47.5260  -26.2700 C.3   438  LEU438      0.0284
    150  CG        17.3260  -47.4840  -24.8410 C.3   438  LEU438      0.0019
    151  CD1       17.1410  -46.1000  -24.2350 C.3   438  LEU438      0.0001
    152  CD2       16.6570  -48.5440  -23.9800 C.3   438  LEU438      0.0001
    153  N         16.7900  -45.0070  -27.8840 N.am  439  THR439     -0.1953
    154  CA        17.3260  -43.7000  -28.2740 C.3   439  THR439      0.1897
    155  C         16.9170  -43.3310  -29.7000 C.2   439  THR439      0.2313
    156  O         16.6010  -44.2040  -30.5080 O.2   439  THR439     -0.2863
    157  CB        18.8610  -43.6620  -28.1620 C.3   439  THR439      0.1794
    158  OG1       19.4040  -44.9220  -28.5750 O.3   439  THR439     -0.2208
    159  CG2       19.2830  -43.3790  -26.7290 C.3   439  THR439      0.0378
@<TRIPOS>BOND
     1    36    37    1
     2    38    37    1
     3    38    39    2
     4    37    40    1
     5    40    41    1
     6   156   155    2
     7    62    60    1
     8    59    56    1
     9    59    60    1
    10    41    42    2
    11    41    43   am
    12    44    45    1
    13    55    56    1
    14   155   154    1
    15    56    57    1
    16    60    61    1
    17   113   112    2
    18   158   157    1
    19    45    46    1
    20    45    48    1
    21   154   157    1
    22   154   153    1
    23   157   159    1
    24   118   117    2
    25    46    47    2
    26   121   120   ar
    27    57    58    2
    28    57    63   am
    29   153   147   am
    30   145   146    1
    31   112   111    1
    32   112   114   am
    33    48    49    1
    34   109   108    2
    35    79    77   ar
    36    79    81   ar
    37   111   110    1
    38   120   122   ar
    39   120   119    1
    40   116   117    1
    41   116   119    1
    42   116   115    1
    43    63    64    1
    44   117   123   am
    45   147   146    1
    46   147   148    2
    47    77    76   ar
    48   126   125    2
    49   108   115   am
    50   108   107    1
    51    81    80   ar
    52   146   149    1
    53   149   150    1
    54    49    51   ar
    55    49    50   ar
    56    71    72    1
    57   110   107    1
    58   125   124    1
    59   123   124    1
    60   107   106    1
    61    64    65    1
    62    64    67    1
    63   124   127    1
    64    51    53   ar
    65   130   131    1
    66    76    75    1
    67    76    78   ar
    68    50    52   ar
    69    65    66    2
    70    80    78   ar
    71    72    75    1
    72    72    73    1
    73    67    68    1
    74   150   151    1
    75   150   152    1
    76   131   132    1
    77   131   134    1
    78   132   133    2
    79    53    54   ar
    80   127   129    1
    81   127   128    1
    82   100    99    2
    83    52    54   ar
    84    70    68   am
    85    68    69    2
    86    73    74    2
    87   136   134    1
    88   104   103    2
    89   134   135    1
    90    99    98    1
    91    99   101   am
    92    98    97    1
    93   103   102    1
    94   101   102    1
    95   102   105    1
    96     7     5    1
    97    35    34   ar
    98    35    33   ar
    99    88    86    1
   100     1     2    1
   101     2     5    1
   102     2     3    1
   103    34    32   ar
   104    33    31   ar
   105     6     5    1
   106    85    84    2
   107     8     3   am
   108     8     9    1
   109   137   138    1
   110     3     4    2
   111   142   144    1
   112   142   141    1
   113   138   141    1
   114   138   139    1
   115    32    30   ar
   116    31    30   ar
   117    86    87    1
   118    86    83    1
   119    84    83    1
   120    84    89   am
   121    92    91    2
   122    13    12    1
   123     9    12    1
   124     9    10    1
   125    83    82    1
   126   141   143    1
   127    30    29    1
   128   139   140    2
   129    91    90    1
   130    90    89    1
   131    90    93    1
   132    10    11    2
   133    95    94   ar
   134    29    26    1
   135    24    21    1
   136    93    94    1
   137    94    96   ar
   138    19    18    1
   139    18    15    1
   140    26    25    1
   141    26    27    1
   142    25    22   am
   143    22    21    1
   144    22    23    2
   145    21    20    1
   146    28    27    2
   147    15    14    1
   148    15    16    1
   149    16    17    2
