@<TRIPOS>MOLECULE
tmp/6iqcA00.pdb
 92 86 0 0 0
SMALL
GASTEIGER

@<TRIPOS>ATOM
      1  N         16.6500   40.9810  -33.3400 N.3    62  PHE62      -0.1241
      2  CA        16.3090   40.5780  -34.7220 C.3    62  PHE62       0.1605
      3  C         17.4790   40.9140  -35.6370 C.2    62  PHE62       0.2264
      4  O         17.9410   40.1190  -36.4870 O.2    62  PHE62      -0.2867
      5  CB        15.0280   41.2710  -35.1510 C.3    62  PHE62       0.0534
      6  CG        14.6980   41.1220  -36.6040 C.ar   62  PHE62      -0.0203
      7  CD1       14.1080   39.9610  -37.0590 C.ar   62  PHE62      -0.0042
      8  CD2       15.0260   42.0930  -37.5280 C.ar   62  PHE62      -0.0042
      9  CE1       13.7960   39.8180  -38.4010 C.ar   62  PHE62      -0.0003
     10  CE2       14.7270   41.9310  -38.8650 C.ar   62  PHE62      -0.0003
     11  CZ        14.1170   40.7950  -39.3030 C.ar   62  PHE62      -0.0000
     12  N         20.5140   38.7000  -35.2940 N.3    65  SER65      -0.1202
     13  CA        20.2650   37.3970  -35.9650 C.3    65  SER65       0.2020
     14  C         20.4020   37.5820  -37.4790 C.2    65  SER65       0.2618
     15  O         21.0750   36.7890  -38.1690 O.2    65  SER65      -0.2717
     16  CB        18.9290   36.8730  -35.6330 C.3    65  SER65       0.2103
     17  OG        18.7720   35.5970  -36.2080 O.3    65  SER65      -0.2182
     18  N         19.8650   38.6870  -37.9900 N.am   66  LEU66      -0.1979
     19  CA        19.8790   38.9390  -39.4460 C.3    66  LEU66       0.1596
     20  C         21.3330   39.1890  -39.8810 C.2    66  LEU66       0.2287
     21  O         21.7550   38.6180  -40.9150 O.2    66  LEU66      -0.2864
     22  CB        18.9110   40.0920  -39.7230 C.3    66  LEU66       0.0297
     23  CG        18.8430   40.5040  -41.1850 C.3    66  LEU66       0.0022
     24  CD1       18.3730   39.3410  -42.0530 C.3    66  LEU66       0.0001
     25  CD2       17.9430   41.7260  -41.3120 C.3    66  LEU66       0.0001
     26  N         23.0950   35.8220  -40.1690 N.3    69  GLN69      -0.1231
     27  CA        22.5850   35.0490  -41.3250 C.3    69  GLN69       0.1698
     28  C         23.0700   35.6260  -42.6470 C.2    69  GLN69       0.2592
     29  O         23.4090   34.8310  -43.5220 O.2    69  GLN69      -0.2718
     30  CB        21.0870   34.9750  -41.2390 C.3    69  GLN69       0.0381
     31  CG        20.7290   34.1380  -40.0400 C.3    69  GLN69       0.0905
     32  CD        19.2840   33.7890  -40.1090 C.2    69  GLN69       0.2608
     33  OE1       18.8410   33.1700  -41.0660 O.2    69  GLN69      -0.2717
     34  NE2       18.5610   34.2380  -39.1010 N.am   69  GLN69      -0.0878
     35  N         23.1010   36.9430  -42.7940 N.am   70  LEU70      -0.1980
     36  CA        23.6090   37.5530  -44.0490 C.3    70  LEU70       0.1596
     37  C         25.0990   37.2150  -44.1940 C.2    70  LEU70       0.2287
     38  O         25.5920   36.9870  -45.3120 O.2    70  LEU70      -0.2864
     39  CB        23.3640   39.0620  -43.9850 C.3    70  LEU70       0.0297
     40  CG        21.9020   39.4980  -44.0460 C.3    70  LEU70       0.0022
     41  CD1       21.7760   40.9850  -43.7350 C.3    70  LEU70       0.0001
     42  CD2       21.2900   39.1370  -45.4020 C.3    70  LEU70       0.0001
     43  N         25.3610   33.6290  -45.3840 N.3    73  LEU73      -0.1245
     44  CA        24.9330   33.5470  -46.8030 C.3    73  LEU73       0.1561
     45  C         26.0700   34.0520  -47.6900 C.2    73  LEU73       0.2260
     46  O         26.3910   33.3790  -48.6810 O.2    73  LEU73      -0.2867
     47  CB        23.6580   34.3700  -46.9750 C.3    73  LEU73       0.0270
     48  CG        22.9370   34.2810  -48.3140 C.3    73  LEU73       0.0019
     49  CD1       22.5540   32.8370  -48.6420 C.3    73  LEU73       0.0001
     50  CD2       21.6950   35.1690  -48.3090 C.3    73  LEU73       0.0001
     51  N         14.4950   39.9930  -48.8700 N.3    91  ILE91      -0.1245
     52  CA        14.7970   39.0560  -47.7470 C.3    91  ILE91       0.1561
     53  C         13.8690   39.4130  -46.5740 C.2    91  ILE91       0.2260
     54  O         13.2490   38.5120  -45.9470 O.2    91  ILE91      -0.2867
     55  CB        16.3030   39.1270  -47.3920 C.3    91  ILE91       0.0252
     56  CG1       17.1370   38.4550  -48.4860 C.3    91  ILE91       0.0019
     57  CG2       16.5620   38.5710  -45.9950 C.3    91  ILE91       0.0019
     58  CD1       18.6240   38.7440  -48.4130 C.3    91  ILE91       0.0001
     59  N         10.2910   38.4040  -47.2430 N.3    94  GLN94      -0.1231
     60  CA        10.1900   36.9180  -47.1410 C.3    94  GLN94       0.1698
     61  C         10.0890   36.5530  -45.6610 C.2    94  GLN94       0.2592
     62  O          9.2260   35.7420  -45.2940 O.2    94  GLN94      -0.2718
     63  CB        11.3880   36.2120  -47.7630 C.3    94  GLN94       0.0381
     64  CG        11.1960   34.7130  -47.9810 C.3    94  GLN94       0.0905
     65  CD        11.0760   33.8740  -46.7270 C.2    94  GLN94       0.2608
     66  OE1       11.6930   34.1460  -45.6920 O.2    94  GLN94      -0.2717
     67  NE2       10.2620   32.8280  -46.8090 N.am   94  GLN94      -0.0878
     68  N         10.9260   37.1520  -44.8130 N.am   95  ILE95      -0.1980
     69  CA        10.8660   36.8710  -43.3550 C.3    95  ILE95       0.1595
     70  C          9.4770   37.2780  -42.8540 C.2    95  ILE95       0.2287
     71  O          8.8610   36.5020  -42.0750 O.2    95  ILE95      -0.2864
     72  CB        11.9790   37.5960  -42.5770 C.3    95  ILE95       0.0276
     73  CG1       13.3430   37.0500  -42.9950 C.3    95  ILE95       0.0022
     74  CG2       11.7170   37.4380  -41.0870 C.3    95  ILE95       0.0022
     75  CD1       14.5120   37.9270  -42.5610 C.3    95  ILE95       0.0001
     76  N          6.8050   34.7710  -44.0080 N.3    98  GLN98      -0.1231
     77  CA         7.0000   33.4280  -43.3900 C.3    98  GLN98       0.1698
     78  C          6.4440   33.4250  -41.9630 C.2    98  GLN98       0.2592
     79  O          6.0420   32.3510  -41.4920 O.2    98  GLN98      -0.2718
     80  CB         8.4740   33.0140  -43.4050 C.3    98  GLN98       0.0381
     81  CG         8.7580   31.6870  -42.7030 C.3    98  GLN98       0.0905
     82  CD         8.0660   30.5170  -43.3610 C.2    98  GLN98       0.2608
     83  OE1        8.4340   30.0940  -44.4550 O.2    98  GLN98      -0.2717
     84  NE2        7.0460   29.9840  -42.7040 N.am   98  GLN98      -0.0878
     85  N          6.3990   34.5790  -41.2990 N.am   99  ASN99      -0.1974
     86  CA         5.9610   34.6790  -39.8820 C.3    99  ASN99       0.1688
     87  C          4.4710   35.0400  -39.8170 C.2    99  ASN99       0.2292
     88  O          3.8810   34.7470  -38.7690 O.2    99  ASN99      -0.2864
     89  CB         6.9060   35.5790  -39.0900 C.3    99  ASN99       0.1181
     90  CG         8.2770   34.9460  -38.9210 C.2    99  ASN99       0.2629
     91  OD1        9.2540   35.3940  -39.5250 O.2    99  ASN99      -0.2716
     92  ND2        8.3600   33.8630  -38.1590 N.am   99  ASN99      -0.0877
@<TRIPOS>BOND
     1    51    52    1
     2    46    45    2
     3    49    48    1
     4    56    58    1
     5    56    55    1
     6    48    50    1
     7    48    47    1
     8    64    63    1
     9    64    65    1
    10    63    60    1
    11    52    55    1
    12    52    53    1
    13    45    44    1
    14    55    57    1
    15    59    60    1
    16    60    61    1
    17    47    44    1
    18    67    65   am
    19    44    43    1
    20    65    66    2
    21    53    54    2
    22    61    62    2
    23    61    68   am
    24    42    40    1
    25    38    37    2
    26    68    69    1
    27    83    82    2
    28    37    36    1
    29    36    39    1
    30    36    35    1
    31    40    39    1
    32    40    41    1
    33    76    77    1
    34    29    28    2
    35    80    77    1
    36    80    81    1
    37    77    78    1
    38    82    84   am
    39    82    81    1
    40    69    70    1
    41    69    72    1
    42    73    72    1
    43    73    75    1
    44    70    71    2
    45    35    28   am
    46    28    27    1
    47    72    74    1
    48    24    23    1
    49    78    79    2
    50    78    85   am
    51    27    30    1
    52    27    26    1
    53    25    23    1
    54    85    86    1
    55    30    31    1
    56    23    22    1
    57    33    32    2
    58    21    20    2
    59    32    31    1
    60    32    34   am
    61    86    87    1
    62    86    89    1
    63    20    19    1
    64    87    88    2
    65    22    19    1
    66    91    90    2
    67    19    18    1
    68    11    10   ar
    69    11     9   ar
    70    89    90    1
    71    90    92   am
    72    10     8   ar
    73     9     7   ar
    74    15    14    2
    75    18    14   am
    76     8     6   ar
    77    14    13    1
    78     7     6   ar
    79     6     5    1
    80     4     3    2
    81    17    16    1
    82    13    16    1
    83    13    12    1
    84     3     2    1
    85     5     2    1
    86     2     1    1
