@<TRIPOS>MOLECULE
tmp/6iqmD00.pdb
 223 218 0 0 0
SMALL
GASTEIGER

@<TRIPOS>ATOM
      1  N          6.3930  -14.7620   -6.6070 N.3     8  ASN8       -0.1225
      2  CA         6.1040  -15.5480   -5.4550 C.3     8  ASN8        0.1785
      3  C          7.0030  -16.7340   -5.4540 C.2     8  ASN8        0.2598
      4  O          6.9110  -17.5680   -6.3600 O.2     8  ASN8       -0.2718
      5  CB         4.6410  -16.0340   -5.4100 C.3     8  ASN8        0.1169
      6  CG         4.1860  -16.3810   -3.9930 C.2     8  ASN8        0.2627
      7  OD1        4.6860  -15.7790   -3.0070 O.2     8  ASN8       -0.2716
      8  ND2        3.2110  -17.3260   -3.8470 N.am    8  ASN8       -0.0877
      9  N          7.8530  -16.8050   -4.4640 N.am    9  GLY9       -0.1942
     10  CA         8.8430  -17.8800   -4.3280 C.3     9  GLY9        0.2014
     11  C         10.1370  -17.5010   -4.9830 C.2     9  GLY9        0.2639
     12  O         10.2790  -17.5880   -6.2470 O.2     9  GLY9       -0.2714
     13  N         11.0700  -17.0160   -4.1690 N.am   10  PHE10      -0.1959
     14  CA        12.3760  -16.5430   -4.6690 C.3    10  PHE10       0.1771
     15  C         13.3920  -17.6620   -4.4600 C.2    10  PHE10       0.2620
     16  O         14.4860  -17.4750   -3.8470 O.2    10  PHE10      -0.2715
     17  CB        12.7670  -15.2790   -3.9560 C.3    10  PHE10       0.0574
     18  CG        13.6160  -14.2990   -4.7410 C.ar   10  PHE10      -0.0200
     19  CD1       13.2030  -13.7610   -5.9440 C.ar   10  PHE10      -0.0042
     20  CD2       14.7790  -13.8020   -4.1620 C.ar   10  PHE10      -0.0042
     21  CE1       13.9470  -12.8260   -6.5790 C.ar   10  PHE10      -0.0003
     22  CE2       15.5480  -12.8920   -4.8400 C.ar   10  PHE10      -0.0003
     23  CZ        15.1340  -12.3900   -6.0300 C.ar   10  PHE10      -0.0000
     24  N         13.0420  -18.8160   -5.0560 N.am   11  GLY11      -0.1940
     25  CA        13.8690  -20.0000   -5.0490 C.3    11  GLY11       0.2014
     26  C         14.7600  -20.0100   -6.2570 C.2    11  GLY11       0.2639
     27  O         15.0900  -18.9210   -6.8080 O.2    11  GLY11      -0.2714
     28  N         15.1580  -21.2130   -6.6800 N.am   12  ARG12      -0.1963
     29  CA        16.0450  -21.3650   -7.8350 C.3    12  ARG12       0.1729
     30  C         15.4220  -20.6320   -9.0550 C.2    12  ARG12       0.2616
     31  O         16.0770  -19.7590   -9.6490 O.2    12  ARG12      -0.2715
     32  CB        16.2890  -22.8710   -8.1620 C.3    12  ARG12       0.0348
     33  CG        16.9350  -23.7450   -7.0480 C.3    12  ARG12       0.0492
     34  CD        18.2470  -23.1890   -6.6060 C.3    12  ARG12       0.2205
     35  NE        19.2250  -23.1530   -7.6930 N.pl3  12  ARG12      -0.0865
     36  CZ        20.2120  -22.2950   -7.8060 C.cat  12  ARG12       0.5346
     37  NH1       20.4140  -21.3460   -6.8730 N.pl3  12  ARG12       0.1354
     38  NH2       21.0530  -22.3620   -8.7940 N.pl3  12  ARG12       0.1354
     39  N         14.1350  -20.9430   -9.3620 N.am   13  ILE13      -0.1977
     40  CA        13.4830  -20.4070  -10.5050 C.3    13  ILE13       0.1596
     41  C         13.1540  -18.9070  -10.3140 C.2    13  ILE13       0.2287
     42  O         13.3990  -18.0960  -11.2010 O.2    13  ILE13      -0.2864
     43  CB        12.2640  -21.2130  -10.8930 C.3    13  ILE13       0.0276
     44  CG1       12.6560  -22.6690  -11.2550 C.3    13  ILE13       0.0022
     45  CG2       11.5660  -20.5790  -12.0760 C.3    13  ILE13       0.0022
     46  CD1       13.8330  -22.7890  -12.2580 C.3    13  ILE13       0.0001
     47  N         14.5980  -16.6020   -8.4170 N.3    15  ARG15      -0.1245
     48  CA        15.8400  -15.7710   -8.4770 C.3    15  ARG15       0.1563
     49  C         16.4220  -15.7260   -9.8570 C.2    15  ARG15       0.2260
     50  O         16.9150  -14.6750  -10.3570 O.2    15  ARG15      -0.2867
     51  CB        16.8900  -16.2440   -7.4460 C.3    15  ARG15       0.0307
     52  CG        16.3570  -16.0970   -6.0510 C.3    15  ARG15       0.0489
     53  CD        17.3960  -16.3810   -5.0080 C.3    15  ARG15       0.2205
     54  NE        18.2260  -17.5960   -5.1110 N.pl3  15  ARG15      -0.0865
     55  CZ        17.9650  -18.7780   -4.5570 C.cat  15  ARG15       0.5346
     56  NH1       16.8060  -19.0220   -3.9490 N.pl3  15  ARG15       0.1354
     57  NH2       18.8970  -19.7650   -4.6600 N.pl3  15  ARG15       0.1354
     58  N          7.8740  -12.2900   -2.7240 N.3    37  ASN37      -0.1225
     59  CA         7.3300  -12.8970   -1.5240 C.3    37  ASN37       0.1785
     60  C          8.0390  -14.2370   -1.3210 C.2    37  ASN37       0.2597
     61  O          8.2230  -14.9630   -2.2980 O.2    37  ASN37      -0.2718
     62  CB         5.8370  -13.1520   -1.5910 C.3    37  ASN37       0.1169
     63  CG         5.2960  -13.6830   -0.2640 C.2    37  ASN37       0.2627
     64  OD1        5.4380  -13.0530    0.8240 O.2    37  ASN37      -0.2716
     65  ND2        4.6580  -14.7900   -0.3210 N.am   37  ASN37      -0.0877
     66  N          8.3810  -14.5600   -0.0910 N.am   38  ASP38      -0.1960
     67  CA         8.9850  -15.8950    0.2430 C.3    38  ASP38       0.1840
     68  C          8.7270  -16.1960    1.6910 C.2    38  ASP38       0.2621
     69  O          7.7240  -15.7630    2.2010 O.2    38  ASP38      -0.2715
     70  CB        10.4910  -15.9580   -0.1070 C.3    38  ASP38       0.1450
     71  CG        11.0210  -17.4160   -0.3480 C.2    38  ASP38       0.3671
     72  OD1       11.3950  -18.0940    0.6350 O.co2  38  ASP38      -0.2456
     73  OD2       11.0670  -17.8480   -1.5300 O.co2  38  ASP38      -0.2456
     74  N          9.6250  -16.9000    2.3790 N.am   39  LEU39      -0.1977
     75  CA         9.3640  -17.3460    3.7470 C.3    39  LEU39       0.1596
     76  C         10.5490  -16.9240    4.5800 C.2    39  LEU39       0.2287
     77  O         10.7910  -17.5140    5.6200 O.2    39  LEU39      -0.2864
     78  CB         9.1850  -18.8700    3.8270 C.3    39  LEU39       0.0297
     79  CG         8.1020  -19.4670    2.9210 C.3    39  LEU39       0.0022
     80  CD1        8.1890  -20.9930    3.0920 C.3    39  LEU39       0.0001
     81  CD2        6.7370  -18.8400    3.2590 C.3    39  LEU39       0.0001
     82  N         17.4830  -13.5130    1.1000 N.3    45  LEU45      -0.1245
     83  CA        17.0950  -13.5080   -0.3090 C.3    45  LEU45       0.1561
     84  C         18.1090  -12.7260   -1.1300 C.2    45  LEU45       0.2260
     85  O         18.5110  -13.1400   -2.2060 O.2    45  LEU45      -0.2867
     86  CB        15.7020  -12.8800   -0.4620 C.3    45  LEU45       0.0270
     87  CG        14.5040  -13.6530    0.1560 C.3    45  LEU45       0.0019
     88  CD1       13.2490  -13.0770   -0.4280 C.3    45  LEU45       0.0001
     89  CD2       14.6340  -15.1350   -0.2170 C.3    45  LEU45       0.0001
     90  N          4.7990  -13.8340    3.5220 N.3    81  GLU81      -0.1231
     91  CA         3.3930  -14.1970    3.7260 C.3    81  GLU81       0.1687
     92  C          3.1530  -15.5820    3.0820 C.2    81  GLU81       0.2471
     93  O          3.0360  -15.6630    1.8750 O.2    81  GLU81      -0.2730
     94  CB         2.4840  -13.1640    3.0440 C.3    81  GLU81       0.0402
     95  CG         1.0140  -13.5050    3.1140 C.3    81  GLU81       0.1161
     96  CD         0.5940  -13.8760    4.5390 C.2    81  GLU81       0.3649
     97  OE1        0.2580  -15.0860    4.7840 O.co2  81  GLU81      -0.2457
     98  OE2        0.7630  -12.9630    5.4450 O.co2  81  GLU81      -0.2457
     99  N          3.0660  -16.6540    3.8880 N.am   82  PRO82      -0.2506
    100  CA         2.8250  -17.9700    3.3550 C.3    82  PRO82       0.1487
    101  C          1.5020  -18.1350    2.6030 C.2    82  PRO82       0.2276
    102  O          1.3910  -19.0350    1.7530 O.2    82  PRO82      -0.2865
    103  CB         2.9170  -18.8990    4.5670 C.3    82  PRO82       0.0556
    104  CG         3.2060  -18.0740    5.7890 C.2    82  PRO82      -0.0078
    105  CD         3.1940  -16.6240    5.3760 C.2    82  PRO82       0.0634
    106  N          6.2670  -19.1860   -8.5050 N.3   101  CYS101     -0.1221
    107  CA         7.4520  -20.0730   -8.5330 C.3   101  CYS101      0.1808
    108  C          7.7220  -20.7700   -7.1760 C.2   101  CYS101      0.2602
    109  O          8.8870  -21.2070   -6.8890 O.2   101  CYS101     -0.2717
    110  CB         8.7080  -19.2140   -8.8870 C.3   101  CYS101      0.0970
    111  SG         8.6320  -18.1750  -10.3140 S.3   101  CYS101     -0.0800
    112  N          6.6890  -20.9520   -6.3440 N.am  102  THR102     -0.1939
    113  CA         6.8630  -21.6280   -5.0320 C.3   102  THR102      0.2028
    114  C          6.8630  -23.1560   -5.1020 C.2   102  THR102      0.2643
    115  O          7.4600  -23.8030   -4.2370 O.2   102  THR102     -0.2714
    116  CB         5.8240  -21.2600   -3.9680 C.3   102  THR102      0.1808
    117  OG1        4.5400  -21.6830   -4.3980 O.3   102  THR102     -0.2208
    118  CG2        5.7580  -19.7480   -3.7940 C.3   102  THR102      0.0379
    119  N          6.1510  -23.7050   -6.0870 N.am  103  GLY103     -0.1939
    120  CA         5.8620  -25.1270   -6.0920 C.3   103  GLY103      0.2014
    121  C          4.6120  -25.4690   -5.3140 C.2   103  GLY103      0.2639
    122  O          4.1970  -26.6280   -5.3320 O.2   103  GLY103     -0.2714
    123  N          3.9910  -24.4830   -4.6440 N.am  104  PHE104     -0.1959
    124  CA         2.8300  -24.7520   -3.7470 C.3   104  PHE104      0.1771
    125  C          1.5170  -24.2340   -4.2520 C.2   104  PHE104      0.2620
    126  O          0.5260  -24.3490   -3.5480 O.2   104  PHE104     -0.2715
    127  CB         3.1370  -24.2230   -2.3120 C.3   104  PHE104      0.0574
    128  CG         4.0680  -25.0820   -1.5980 C.ar  104  PHE104     -0.0200
    129  CD1        3.5840  -26.1780   -0.8740 C.ar  104  PHE104     -0.0042
    130  CD2        5.4510  -24.9200   -1.7490 C.ar  104  PHE104     -0.0042
    131  CE1        4.4830  -27.0400   -0.2520 C.ar  104  PHE104     -0.0003
    132  CE2        6.3390  -25.7560   -1.1360 C.ar  104  PHE104     -0.0003
    133  CZ         5.8540  -26.8240   -0.3820 C.ar  104  PHE104     -0.0000
    134  N          1.5000  -23.6550   -5.4450 N.am  105  TYR105     -0.1960
    135  CA         0.3000  -23.0830   -6.0420 C.3   105  TYR105      0.1771
    136  C          0.0540  -23.5680   -7.4700 C.2   105  TYR105      0.2620
    137  O         -0.4870  -22.8160   -8.3110 O.2   105  TYR105     -0.2715
    138  CB         0.2860  -21.5470   -5.9820 C.3   105  TYR105      0.0574
    139  CG         0.2010  -21.0280   -4.5730 C.ar  105  TYR105     -0.0198
    140  CD1       -1.0420  -20.6490   -3.9980 C.ar  105  TYR105     -0.0009
    141  CD2        1.3320  -20.8580   -3.7840 C.ar  105  TYR105     -0.0009
    142  CE1       -1.1110  -20.1590   -2.7030 C.ar  105  TYR105      0.0417
    143  CE2        1.2560  -20.3010   -2.4960 C.ar  105  TYR105      0.0417
    144  CZ         0.0290  -20.0240   -1.9530 C.ar  105  TYR105      0.1957
    145  OH        -0.0180  -19.5030   -0.6850 O.3   105  TYR105     -0.2866
    146  N          0.4290  -24.8330   -7.7450 N.am  106  THR106     -0.1951
    147  CA         0.3930  -25.3550   -9.1160 C.3   106  THR106      0.1897
    148  C         -0.9750  -25.9290   -9.5340 C.2   106  THR106      0.2313
    149  O         -1.0880  -27.1240   -9.9550 O.2   106  THR106     -0.2863
    150  CB         1.4450  -26.4500   -9.2660 C.3   106  THR106      0.1794
    151  OG1        1.2120  -27.4960   -8.3090 O.3   106  THR106     -0.2208
    152  CG2        2.8270  -25.8720   -8.9690 C.3   106  THR106      0.0378
    153  N          5.1650  -21.5040  -12.7590 N.3   125  SER125     -0.1202
    154  CA         6.4660  -21.9810  -13.2010 C.3   125  SER125      0.2020
    155  C          6.5260  -23.5170  -13.1930 C.2   125  SER125      0.2619
    156  O          7.5650  -24.0830  -12.9380 O.2   125  SER125     -0.2717
    157  CB         7.5680  -21.4280  -12.2840 C.3   125  SER125      0.2103
    158  OG         7.6680  -22.1310  -11.0160 O.3   125  SER125     -0.2182
    159  N          5.4260  -24.1940  -13.4920 N.am  126  ALA126     -0.1965
    160  CA         5.3550  -25.6310  -13.4310 C.3   126  ALA126      0.1713
    161  C          4.0870  -26.0650  -14.1480 C.2   126  ALA126      0.2458
    162  O          3.1780  -25.2420  -14.3940 O.2   126  ALA126     -0.2730
    163  CB         5.3360  -26.1300  -11.9640 C.3   126  ALA126      0.0333
    164  N          3.9550  -27.3850  -14.3940 N.am  127  PRO127     -0.2727
    165  CA         2.6600  -27.9200  -14.7760 C.3   127  PRO127      0.1402
    166  C          1.6430  -27.5830  -13.7260 C.2   127  PRO127      0.2269
    167  O          1.9090  -27.6180  -12.4890 O.2   127  PRO127     -0.2865
    168  CB         2.9080  -29.4550  -14.8540 C.3   127  PRO127      0.0296
    169  CG         4.4430  -29.5710  -15.0150 C.3   127  PRO127      0.0237
    170  CD         4.9670  -28.4360  -14.1800 C.3   127  PRO127      0.0939
    171  N          6.7570  -27.7160  -17.4230 N.3   155  SER155     -0.1202
    172  CA         7.9580  -28.0890  -16.6910 C.3   155  SER155      0.2020
    173  C          9.2020  -27.8740  -17.4890 C.2   155  SER155      0.2619
    174  O          9.1820  -27.6330  -18.6950 O.2   155  SER155     -0.2717
    175  CB         7.9080  -29.5540  -16.2650 C.3   155  SER155      0.2103
    176  OG         7.8410  -30.3640  -17.4600 O.3   155  SER155     -0.2182
    177  N         10.3230  -28.0040  -16.7940 N.am  156  CYS156     -0.1969
    178  CA        11.6240  -28.0880  -17.4230 C.3   156  CYS156      0.1712
    179  C         11.6950  -29.1720  -18.4620 C.2   156  CYS156      0.2296
    180  O         12.0700  -28.8840  -19.6400 O.2   156  CYS156     -0.2864
    181  CB        12.7730  -28.0870  -16.3810 C.3   156  CYS156      0.0983
    182  SG        12.6220  -29.3410  -15.0790 S.3   156  CYS156     -0.0798
    183  N         17.2670  -31.9520   -7.8060 N.3   186  THR186     -0.1203
    184  CA        16.5830  -30.6780   -7.5200 C.3   186  THR186      0.1994
    185  C         16.1890  -30.6080   -6.0350 C.2   186  THR186      0.2618
    186  O         16.4200  -31.5400   -5.2660 O.2   186  THR186     -0.2717
    187  CB        15.2860  -30.4810   -8.3350 C.3   186  THR186      0.1784
    188  OG1       14.3280  -31.4340   -7.9000 O.3   186  THR186     -0.2211
    189  CG2       15.5580  -30.6740   -9.8220 C.3   186  THR186      0.0376
    190  N         15.6140  -29.4730   -5.6300 N.am  187  SER187     -0.1951
    191  CA        15.3990  -29.1770   -4.2080 C.3   187  SER187      0.1924
    192  C         14.2700  -29.9800   -3.5520 C.2   187  SER187      0.2314
    193  O         14.1030  -29.9030   -2.3540 O.2   187  SER187     -0.2863
    194  CB        15.0390  -27.6530   -4.1130 C.3   187  SER187      0.2116
    195  OG        16.1590  -26.8550   -4.5560 O.3   187  SER187     -0.2180
    196  N         17.9360  -27.2550  -16.9260 N.3   322  ASN322     -0.1225
    197  CA        16.6340  -27.3420  -16.3310 C.3   322  ASN322      0.1785
    198  C         16.2700  -26.0990  -15.4810 C.2   322  ASN322      0.2597
    199  O         15.1030  -25.7270  -15.4010 O.2   322  ASN322     -0.2718
    200  CB        16.4390  -28.6110  -15.4840 C.3   322  ASN322      0.1169
    201  CG        17.6380  -28.8600  -14.5620 C.2   322  ASN322      0.2627
    202  OD1       18.7220  -29.3490  -15.0550 O.2   322  ASN322     -0.2716
    203  ND2       17.4560  -28.5710  -13.2160 N.am  322  ASN322     -0.0877
    204  N         17.2480  -25.4750  -14.9080 N.am  323  GLU323     -0.1979
    205  CA        17.0800  -24.1640  -14.2400 C.3   323  GLU323      0.1602
    206  C         16.9860  -22.9910  -15.2840 C.2   323  GLU323      0.2287
    207  O         15.8710  -22.4650  -15.5370 O.2   323  GLU323     -0.2864
    208  CB        18.1570  -23.9330  -13.1880 C.3   323  GLU323      0.0415
    209  CG        18.0870  -24.8690  -11.9830 C.3   323  GLU323      0.1163
    210  CD        19.1200  -24.4840  -10.9150 C.2   323  GLU323      0.3649
    211  OE1       20.0730  -23.7530  -11.2260 O.co2 323  GLU323     -0.2457
    212  OE2       18.9580  -24.9400   -9.8010 O.co2 323  GLU323     -0.2457
    213  N         14.9380  -23.4300  -18.9080 N.3   326  PHE326     -0.1241
    214  CA        13.5250  -23.2890  -18.5810 C.3   326  PHE326      0.1605
    215  C         13.1240  -21.8280  -18.2240 C.2   326  PHE326      0.2264
    216  O         12.0500  -21.3520  -18.6010 O.2   326  PHE326     -0.2867
    217  CB        13.1220  -24.2310  -17.4470 C.3   326  PHE326      0.0534
    218  CG        11.7610  -23.9880  -16.9160 C.ar  326  PHE326     -0.0203
    219  CD1       10.6930  -24.5050  -17.5770 C.ar  326  PHE326     -0.0042
    220  CD2       11.5610  -23.1690  -15.7610 C.ar  326  PHE326     -0.0042
    221  CE1        9.4420  -24.2490  -17.1620 C.ar  326  PHE326     -0.0003
    222  CE2       10.2830  -22.8950  -15.3390 C.ar  326  PHE326     -0.0003
    223  CZ         9.2080  -23.4190  -16.0640 C.ar  326  PHE326     -0.0000
@<TRIPOS>BOND
     1   180   179    2
     2   213   214    1
     3   174   173    2
     4   216   215    2
     5   214   215    1
     6   214   217    1
     7   179   178    1
     8   219   221   ar
     9   219   218   ar
    10   173   177   am
    11   173   172    1
    12   176   175    1
    13   217   218    1
    14   178   177    1
    15   178   181    1
    16   171   172    1
    17   221   223   ar
    18   196   197    1
    19   218   220   ar
    20   172   175    1
    21   181   182    1
    22   197   200    1
    23   197   198    1
    24   223   222   ar
    25   220   222   ar
    26   207   206    2
    27   200   201    1
    28   198   199    2
    29   198   204   am
    30   206   205    1
    31   202   201    2
    32   169   168    1
    33   169   170    1
    34   204   205    1
    35   168   165    1
    36   165   164    1
    37   165   166    1
    38   201   203   am
    39   164   170    1
    40   164   161   am
    41   162   161    2
    42   205   208    1
    43   161   160    1
    44   166   167    2
    45   159   160    1
    46   159   155   am
    47   160   163    1
    48   154   155    1
    49   154   153    1
    50   154   157    1
    51   155   156    2
    52   208   209    1
    53   157   158    1
    54    46    44    1
    55    45    43    1
    56   209   210    1
    57    44    43    1
    58   211   210   ar
    59    42    41    2
    60   210   212   ar
    61    43    40    1
    62    40    41    1
    63    40    39    1
    64    50    49    2
    65   111   110    1
    66   149   148    2
    67    49    48    1
    68   189   187    1
    69    31    30    2
    70   148   147    1
    71    39    30   am
    72   150   147    1
    73   150   152    1
    74   150   151    1
    75   147   146    1
    76    30    29    1
    77   110   107    1
    78    38    36    1
    79   107   106    1
    80   107   108    1
    81    48    47    1
    82    48    51    1
    83   187   188    1
    84   187   184    1
    85   137   136    2
    86    32    29    1
    87    32    33    1
    88    29    28    1
    89   183   184    1
    90    36    35    2
    91    36    37    1
    92   146   136   am
    93    35    34    1
    94   184   185    1
    95   136   135    1
    96    51    52    1
    97   108   109    2
    98   108   112   am
    99    33    34    1
   100    27    26    2
   101    28    26   am
   102     1     2    1
   103    21    23   ar
   104    21    19   ar
   105     4     3    2
   106   112   113    1
   107    26    25    1
   108    12    11    2
   109   120   119    1
   110   120   121    1
   111   119   114   am
   112    52    53    1
   113   135   138    1
   114   135   134    1
   115   185   190   am
   116   185   186    2
   117    23    22   ar
   118   138   139    1
   119    19    18   ar
   120   190   191    1
   121     2     3    1
   122     2     5    1
   123     3     9   am
   124   134   125   am
   125     5     6    1
   126   122   121    2
   127   121   123   am
   128    54    53    1
   129    54    55    2
   130   114   113    1
   131   114   115    2
   132    24    25    1
   133    24    15   am
   134   113   116    1
   135    11    10    1
   136    11    13   am
   137    22    20   ar
   138    18    20   ar
   139    18    17    1
   140    14    15    1
   141    14    13    1
   142    14    17    1
   143    57    55    1
   144   123   124    1
   145   139   140   ar
   146   139   141   ar
   147    55    56    1
   148   195   194    1
   149     9    10    1
   150    15    16    2
   151   117   116    1
   152   125   124    1
   153   125   126    2
   154   191   194    1
   155   191   192    1
   156   140   142   ar
   157     6     8   am
   158     6     7    2
   159   116   118    1
   160   141   143   ar
   161   124   127    1
   162   192   193    2
   163    58    59    1
   164   142   144   ar
   165   143   144   ar
   166   127   128    1
   167    61    60    2
   168    85    84    2
   169   144   145    1
   170   130   128   ar
   171   130   132   ar
   172   128   129   ar
   173    62    59    1
   174    62    63    1
   175    73    71   ar
   176    59    60    1
   177    60    66   am
   178   132   133   ar
   179    84    83    1
   180   129   131   ar
   181    86    83    1
   182    86    87    1
   183    88    87    1
   184   133   131   ar
   185    71    70    1
   186    71    72   ar
   187    65    63   am
   188    83    82    1
   189    63    64    2
   190    89    87    1
   191    70    67    1
   192    66    67    1
   193    67    68    1
   194    68    69    2
   195    68    74   am
   196   102   101    2
   197    93    92    2
   198    74    75    1
   199   101   100    1
   200    79    80    1
   201    79    81    1
   202    79    78    1
   203    94    95    1
   204    94    91    1
   205    92    91    1
   206    92    99   am
   207    95    96    1
   208   100    99    1
   209   100   103    1
   210    90    91    1
   211    75    78    1
   212    75    76    1
   213    99   105    1
   214    96    97   ar
   215    96    98   ar
   216   103   104    1
   217    76    77    2
   218   105   104    2
