@<TRIPOS>MOLECULE
tmp/6iqoB00.pdb
 88 83 0 0 0
SMALL
GASTEIGER

@<TRIPOS>ATOM
      1  N        -29.1220  -23.7900    8.6670 N.3    56  LYS56      -0.1231
      2  CA       -28.8650  -25.2160    9.0340 C.3    56  LYS56       0.1678
      3  C        -28.0530  -25.9050    7.9430 C.2    56  LYS56       0.2434
      4  O        -28.6050  -26.6550    7.1490 O.2    56  LYS56      -0.2733
      5  CB       -30.1940  -25.9430    9.2410 C.3    56  LYS56       0.0284
      6  CG       -31.0740  -25.3610   10.3360 C.3    56  LYS56       0.0035
      7  CD       -31.9110  -26.4130   11.0400 C.3    56  LYS56       0.0206
      8  CE       -32.8980  -25.8130   12.0130 C.3    56  LYS56       0.1093
      9  NZ       -34.0300  -26.7310   12.2680 N.3    56  LYS56      -0.1314
     10  N        -26.7490  -25.6080    7.8080 N.am   57  PRO57      -0.2718
     11  CA       -25.9640  -26.0850    6.6600 C.3    57  PRO57       0.1535
     12  C        -25.9040  -27.6130    6.4730 C.2    57  PRO57       0.2598
     13  O        -26.0040  -28.0930    5.3310 O.2    57  PRO57      -0.2715
     14  CB       -24.5540  -25.5140    6.9030 C.3    57  PRO57       0.0310
     15  CG       -24.5480  -25.1380    8.3780 C.3    57  PRO57       0.0237
     16  CD       -25.9770  -24.7420    8.7080 C.3    57  PRO57       0.0939
     17  N        -25.7770  -28.3470    7.5750 N.am   58  GLU58      -0.1964
     18  CA       -25.6860  -29.8320    7.5930 C.3    58  GLU58       0.1733
     19  C        -27.0240  -30.3790    7.0950 C.2    58  GLU58       0.2616
     20  O        -27.0320  -31.2270    6.2030 O.2    58  GLU58      -0.2715
     21  CB       -25.3180  -30.3810    8.9830 C.3    58  GLU58       0.0429
     22  CG       -24.2560  -29.6000    9.7470 C.3    58  GLU58       0.1163
     23  CD       -22.9010  -29.4450    9.0770 C.2    58  GLU58       0.3649
     24  OE1      -22.2990  -30.4830    8.7250 O.co2  58  GLU58      -0.2457
     25  OE2      -22.4350  -28.2780    8.9210 O.co2  58  GLU58      -0.2457
     26  N        -28.1380  -29.8470    7.5940 N.am   59  PHE59      -0.1974
     27  CA       -29.5010  -30.2690    7.1810 C.3    59  PHE59       0.1639
     28  C        -29.7090  -30.0020    5.6790 C.2    59  PHE59       0.2290
     29  O        -30.2920  -30.8440    4.9970 O.2    59  PHE59      -0.2864
     30  CB       -30.5620  -29.5770    8.0390 C.3    59  PHE59       0.0560
     31  CG       -31.9600  -29.8080    7.5470 C.ar   59  PHE59      -0.0200
     32  CD1      -32.5830  -31.0270    7.7380 C.ar   59  PHE59      -0.0042
     33  CD2      -32.6440  -28.8320    6.8550 C.ar   59  PHE59      -0.0042
     34  CE1      -33.8670  -31.2560    7.2610 C.ar   59  PHE59      -0.0003
     35  CE2      -33.9400  -29.0450    6.4030 C.ar   59  PHE59      -0.0003
     36  CZ       -34.5420  -30.2630    6.5910 C.ar   59  PHE59      -0.0000
     37  N        -27.8400  -32.6010    3.4210 N.3    62  SER62      -0.1217
     38  CA       -28.6170  -33.8710    3.4210 C.3    62  SER62       0.1889
     39  C        -29.9250  -33.7250    2.6160 C.2    62  SER62       0.2288
     40  O        -30.3160  -34.6800    1.8750 O.2    62  SER62      -0.2866
     41  CB       -28.8480  -34.3850    4.8230 C.3    62  SER62       0.2089
     42  OG       -29.9090  -33.6900    5.4450 O.3    62  SER62      -0.2183
     43  N        -31.1740  -35.7860   -0.8130 N.3    66  GLN66      -0.1245
     44  CA       -32.5550  -36.3180   -0.9000 C.3    66  GLN66       0.1566
     45  C        -33.1910  -35.8620   -2.2150 C.2    66  GLN66       0.2260
     46  O        -33.7830  -36.7100   -2.9170 O.2    66  GLN66      -0.2867
     47  CB       -33.3350  -35.8780    0.3360 C.3    66  GLN66       0.0367
     48  CG       -34.7550  -36.4300    0.3680 C.3    66  GLN66       0.0905
     49  CD       -34.8070  -37.8790    0.8010 C.2    66  GLN66       0.2608
     50  OE1      -35.1400  -38.7660    0.0190 O.2    66  GLN66      -0.2717
     51  NE2      -34.4690  -38.1270    2.0530 N.am   66  GLN66      -0.0878
     52  N        -34.4810  -38.1310   -5.3040 N.3    70  LEU70      -0.1245
     53  CA       -35.9060  -38.0050   -5.7590 C.3    70  LEU70       0.1561
     54  C        -35.9640  -37.7330   -7.2740 C.2    70  LEU70       0.2260
     55  O        -36.8190  -38.3240   -7.9760 O.2    70  LEU70      -0.2867
     56  CB       -36.6560  -36.9100   -4.9730 C.3    70  LEU70       0.0270
     57  CG       -36.9300  -37.1720   -3.4830 C.3    70  LEU70       0.0019
     58  CD1      -37.6170  -35.9890   -2.7450 C.3    70  LEU70       0.0001
     59  CD2      -37.7450  -38.4400   -3.3000 C.3    70  LEU70       0.0001
     60  N        -39.6320  -40.2420  -10.1110 N.3    75  ARG75      -0.1245
     61  CA       -41.0130  -40.3920   -9.5700 C.3    75  ARG75       0.1563
     62  C        -41.6600  -39.0230   -9.2920 C.2    75  ARG75       0.2260
     63  O        -42.8410  -39.0320   -8.9090 O.2    75  ARG75      -0.2867
     64  CB       -41.0130  -41.2170   -8.2740 C.3    75  ARG75       0.0307
     65  CG       -42.3290  -41.9260   -7.9840 C.3    75  ARG75       0.0489
     66  CD       -42.5550  -42.2000   -6.5060 C.3    75  ARG75       0.2205
     67  NE       -43.9710  -42.1880   -6.1520 N.pl3  75  ARG75      -0.0865
     68  CZ       -44.4560  -42.2390   -4.9060 C.cat  75  ARG75       0.5346
     69  NH1      -43.6400  -42.3090   -3.8660 N.pl3  75  ARG75       0.1354
     70  NH2      -45.7650  -42.2280   -4.7060 N.pl3  75  ARG75       0.1354
     71  N        -43.4000  -33.1780    4.6900 N.3    91  GLN91      -0.1245
     72  CA       -43.3250  -34.6640    4.7860 C.3    91  GLN91       0.1566
     73  C        -42.0860  -35.0970    5.5800 C.2    91  GLN91       0.2260
     74  O        -42.2040  -36.0550    6.3510 O.2    91  GLN91      -0.2867
     75  CB       -43.3030  -35.3060    3.4010 C.3    91  GLN91       0.0367
     76  CG       -43.8810  -36.7120    3.4000 C.3    91  GLN91       0.0905
     77  CD       -43.7260  -37.4100    2.0740 C.2    91  GLN91       0.2608
     78  OE1      -42.8110  -37.1300    1.3070 O.2    91  GLN91      -0.2717
     79  NE2      -44.6310  -38.3340    1.7980 N.am   91  GLN91      -0.0878
     80  N        -40.8720  -36.5250   10.8190 N.3    95  GLN95      -0.1245
     81  CA       -39.8680  -37.4100   11.4950 C.3    95  GLN95       0.1566
     82  C        -39.4900  -36.7540   12.8270 C.2    95  GLN95       0.2260
     83  O        -38.2930  -36.4990   13.0700 O.2    95  GLN95      -0.2867
     84  CB       -38.6890  -37.7800   10.5770 C.3    95  GLN95       0.0367
     85  CG       -37.5450  -36.7740   10.4400 C.3    95  GLN95       0.0905
     86  CD       -36.4620  -37.2590    9.5000 C.2    95  GLN95       0.2608
     87  OE1      -35.3580  -36.7160    9.4410 O.2    95  GLN95      -0.2717
     88  NE2      -36.7540  -38.3090    8.7520 N.am   95  GLN95      -0.0878
@<TRIPOS>BOND
     1    60    61    1
     2    61    62    1
     3    61    64    1
     4    62    63    2
     5    64    65    1
     6    65    66    1
     7    55    54    2
     8    54    53    1
     9    66    67    1
    10    67    68    2
    11    53    52    1
    12    53    56    1
    13    56    57    1
    14    68    70    1
    15    68    69    1
    16    57    59    1
    17    57    58    1
    18    46    45    2
    19    45    44    1
    20    44    43    1
    21    44    47    1
    22    50    49    2
    23    47    48    1
    24    48    49    1
    25    49    51   am
    26    78    77    2
    27    79    77   am
    28    40    39    2
    29    77    76    1
    30    39    38    1
    31    76    75    1
    32    75    72    1
    33    37    38    1
    34    38    41    1
    35    71    72    1
    36    72    73    1
    37    41    42    1
    38    29    28    2
    39    13    12    2
    40    73    74    2
    41    28    27    1
    42    20    19    2
    43    35    36   ar
    44    35    33   ar
    45    12    11    1
    46    12    17   am
    47    36    34   ar
    48    11    14    1
    49    11    10    1
    50    33    31   ar
    51    14    15    1
    52    19    18    1
    53    19    26   am
    54     4     3    2
    55    27    26    1
    56    27    30    1
    57    34    32   ar
    58    31    32   ar
    59    31    30    1
    60    17    18    1
    61    18    21    1
    62    10     3   am
    63    10    16    1
    64     3     2    1
    65    15    16    1
    66     1     2    1
    67    24    23   ar
    68    88    86   am
    69    25    23   ar
    70    21    22    1
    71     2     5    1
    72    23    22    1
    73     5     6    1
    74    87    86    2
    75    86    85    1
    76     6     7    1
    77    85    84    1
    78    84    81    1
    79    80    81    1
    80     7     8    1
    81    81    82    1
    82     8     9    1
    83    82    83    2
