@<TRIPOS>MOLECULE
tmp/6iqwA00.pdb
 178 168 0 0 0
SMALL
GASTEIGER

@<TRIPOS>ATOM
      1  N        146.6020   93.0490  119.3600 N.3   233  ASP233     -0.1239
      2  CA       145.7210   94.1390  119.7270 C.3   233  ASP233      0.1674
      3  C        146.2290   95.4280  119.1120 C.2   233  ASP233      0.2266
      4  O        147.4300   95.7140  119.1420 O.2   233  ASP233     -0.2867
      5  CB       145.6340   94.2910  121.2420 C.3   233  ASP233      0.1410
      6  CG       144.3070   94.8530  121.6940 C.2   233  ASP233      0.3668
      7  OD1      143.4250   95.0570  120.8360 O.co2 233  ASP233     -0.2456
      8  OD2      144.1430   95.0890  122.9080 O.co2 233  ASP233     -0.2456
      9  N        139.2260   85.1360  115.2450 N.3   284  PHE284     -0.1241
     10  CA       138.5140   86.3660  114.9600 C.3   284  PHE284      0.1605
     11  C        139.5240   87.4420  114.6140 C.2   284  PHE284      0.2264
     12  O        140.6450   87.4540  115.1270 O.2   284  PHE284     -0.2867
     13  CB       137.6320   86.8200  116.1290 C.3   284  PHE284      0.0534
     14  CG       138.3350   86.8680  117.4560 C.ar  284  PHE284     -0.0203
     15  CD1      138.9770   88.0200  117.8780 C.ar  284  PHE284     -0.0042
     16  CD2      138.3200   85.7760  118.3000 C.ar  284  PHE284     -0.0042
     17  CE1      139.6120   88.0710  119.0990 C.ar  284  PHE284     -0.0003
     18  CE2      138.9560   85.8220  119.5240 C.ar  284  PHE284     -0.0003
     19  CZ       139.6010   86.9720  119.9210 C.ar  284  PHE284     -0.0000
     20  N        138.6790   91.4450  114.5190 N.3   286  ALA286     -0.1231
     21  CA       137.6670   92.4770  114.6320 C.3   286  ALA286      0.1694
     22  C        138.1310   93.4910  115.6570 C.2   286  ALA286      0.2592
     23  O        138.7670   93.1370  116.6510 O.2   286  ALA286     -0.2718
     24  CB       136.3170   91.8920  115.0400 C.3   286  ALA286      0.0304
     25  N        137.8100   94.7550  115.3960 N.am  287  GLY287     -0.1957
     26  CA       138.1460   95.8270  116.3110 C.3   287  GLY287      0.1869
     27  C        139.6230   96.0480  116.4950 C.2   287  GLY287      0.2309
     28  O        140.0390   96.5640  117.5310 O.2   287  GLY287     -0.2863
     29  N        141.6000   93.6440  117.0250 N.3   289  HIS289     -0.1241
     30  CA       142.0460   92.5230  117.8360 C.3   289  HIS289      0.1621
     31  C        141.8570   91.2480  117.0360 C.2   289  HIS289      0.2264
     32  O        140.7820   91.0200  116.4750 O.2   289  HIS289     -0.2867
     33  CB       141.2680   92.4460  119.1470 C.3   289  HIS289      0.0745
     34  CG       141.9390   91.6210  120.1970 C.ar  289  HIS289      0.0817
     35  ND1      141.4420   90.4080  120.6210 N.ar  289  HIS289     -0.2268
     36  CD2      143.0630   91.8390  120.9170 C.ar  289  HIS289      0.1154
     37  CE1      142.2390   89.9090  121.5500 C.ar  289  HIS289      0.1986
     38  NE2      143.2270   90.7600  121.7510 N.ar  289  HIS289     -0.2212
     39  N        144.1250   81.5750  127.6780 N.3   350  ARG350     -0.1245
     40  CA       143.8050   82.8690  127.0920 C.3   350  ARG350      0.1563
     41  C        144.0180   83.9990  128.0830 C.2   350  ARG350      0.2260
     42  O        144.4240   85.0910  127.6870 O.2   350  ARG350     -0.2867
     43  CB       142.3660   82.8830  126.5920 C.3   350  ARG350      0.0307
     44  CG       142.2090   82.3740  125.1850 C.3   350  ARG350      0.0489
     45  CD       140.9230   82.8720  124.5880 C.3   350  ARG350      0.2205
     46  NE       140.9530   84.3120  124.3870 N.pl3 350  ARG350     -0.0865
     47  CZ       139.9910   85.1360  124.7810 C.cat 350  ARG350      0.5346
     48  NH1      138.9220   84.6580  125.3990 N.pl3 350  ARG350      0.1354
     49  NH2      140.0980   86.4380  124.5580 N.pl3 350  ARG350      0.1354
     50  N        146.5150   87.0150  127.5740 N.3   354  LYS354     -0.1245
     51  CA       146.0470   88.3850  127.7230 C.3   354  LYS354      0.1561
     52  C        146.8660   89.1450  128.7520 C.2   354  LYS354      0.2260
     53  O        147.0650   90.3540  128.6100 O.2   354  LYS354     -0.2867
     54  CB       144.5730   88.3950  128.1070 C.3   354  LYS354      0.0271
     55  CG       143.8420   89.6600  127.7250 C.3   354  LYS354      0.0035
     56  CD       142.5640   89.7980  128.5280 C.3   354  LYS354      0.0206
     57  CE       141.5330   90.6220  127.7870 C.3   354  LYS354      0.1093
     58  NZ       140.2470   90.6740  128.5300 N.3   354  LYS354     -0.1314
     59  N        129.3660  100.5120  123.1780 N.3   515  ASP515     -0.1225
     60  CA       130.2000   99.4050  123.6300 C.3   515  ASP515      0.1805
     61  C        129.2840   98.2890  124.0930 C.2   515  ASP515      0.2598
     62  O        128.2000   98.5490  124.6080 O.2   515  ASP515     -0.2718
     63  CB       131.1340   99.8270  124.7740 C.3   515  ASP515      0.1424
     64  CG       131.9760   98.6820  125.3020 C.2   515  ASP515      0.3668
     65  OD1      132.3620   97.8010  124.5090 O.co2 515  ASP515     -0.2456
     66  OD2      132.2400   98.6480  126.5190 O.co2 515  ASP515     -0.2456
     67  N        129.7140   97.0570  123.8960 N.am  516  VAL516     -0.1966
     68  CA       129.0470   95.9220  124.5170 C.3   516  VAL516      0.1727
     69  C        129.5780   95.7700  125.9330 C.2   516  VAL516      0.2616
     70  O        130.7660   95.9810  126.1900 O.2   516  VAL516     -0.2715
     71  CB       129.2670   94.6580  123.6790 C.3   516  VAL516      0.0290
     72  CG1      128.4480   93.5070  124.1940 C.3   516  VAL516      0.0023
     73  CG2      128.8770   94.9420  122.2730 C.3   516  VAL516      0.0023
     74  N        128.7000   95.4110  126.8610 N.am  517  ASP517     -0.1957
     75  CA       128.9840   95.5010  128.2810 C.3   517  ASP517      0.1840
     76  C        129.4360   94.1560  128.8270 C.2   517  ASP517      0.2622
     77  O        128.7690   93.1410  128.6010 O.2   517  ASP517     -0.2715
     78  CB       127.7270   95.9590  129.0030 C.3   517  ASP517      0.1450
     79  CG       127.1820   97.2370  128.4320 C.2   517  ASP517      0.3671
     80  OD1      127.9670   98.0070  127.8440 O.co2 517  ASP517     -0.2456
     81  OD2      125.9730   97.4940  128.6040 O.co2 517  ASP517     -0.2456
     82  N        130.5520   94.1730  129.5660 N.am  518  ARG518     -0.1963
     83  CA       131.1460   92.9950  130.2090 C.3   518  ARG518      0.1729
     84  C        131.4240   91.8870  129.1990 C.2   518  ARG518      0.2616
     85  O        131.1130   90.7170  129.4220 O.2   518  ARG518     -0.2715
     86  CB       130.2840   92.4790  131.3630 C.3   518  ARG518      0.0348
     87  CG       130.2970   93.3440  132.6080 C.3   518  ARG518      0.0492
     88  CD       129.5880   92.6240  133.7270 C.3   518  ARG518      0.2205
     89  NE       128.2050   92.3460  133.3570 N.pl3 518  ARG518     -0.0865
     90  CZ       127.1860   93.1620  133.5980 C.cat 518  ARG518      0.5346
     91  NH1      127.3910   94.3040  134.2320 N.pl3 518  ARG518      0.1354
     92  NH2      125.9620   92.8300  133.2190 N.pl3 518  ARG518      0.1354
     93  N        132.0050   92.2680  128.0690 N.am  519  LEU519     -0.1963
     94  CA       132.2990   91.2960  127.0290 C.3   519  LEU519      0.1728
     95  C        133.6190   90.5850  127.2570 C.2   519  LEU519      0.2617
     96  O        133.7770   89.4410  126.8180 O.2   519  LEU519     -0.2715
     97  CB       132.3090   91.9720  125.6590 C.3   519  LEU519      0.0311
     98  CG       132.0850   91.0710  124.4480 C.3   519  LEU519      0.0022
     99  CD1      130.9740   90.0900  124.7050 C.3   519  LEU519      0.0001
    100  CD2      131.7700   91.9020  123.2340 C.3   519  LEU519      0.0001
    101  N        134.5710   91.2400  127.9240 N.am  520  GLY520     -0.1940
    102  CA       135.8160   90.5740  128.2590 C.3   520  GLY520      0.2014
    103  C        135.6240   89.4340  129.2320 C.2   520  GLY520      0.2638
    104  O        136.3180   88.4180  129.1500 O.2   520  GLY520     -0.2714
    105  N        134.6680   89.5710  130.1490 N.am  521  GLU521     -0.1977
    106  CA       134.3040   88.4530  131.0040 C.3   521  GLU521      0.1602
    107  C        133.5100   87.4000  130.2490 C.2   521  GLU521      0.2287
    108  O        133.4850   86.2400  130.6670 O.2   521  GLU521     -0.2864
    109  CB       133.5030   88.9500  132.2060 C.3   521  GLU521      0.0415
    110  CG       133.5510   88.0290  133.4090 C.3   521  GLU521      0.1163
    111  CD       132.4030   88.2660  134.3640 C.2   521  GLU521      0.3649
    112  OE1      131.6330   89.2240  134.1430 O.co2 521  GLU521     -0.2457
    113  OE2      132.2670   87.4910  135.3320 O.co2 521  GLU521     -0.2457
    114  N        134.2050   86.2410  127.2760 N.3   523  PHE523     -0.1241
    115  CA       135.1110   85.3880  126.5220 C.3   523  PHE523      0.1605
    116  C        136.1540   84.7240  127.4020 C.2   523  PHE523      0.2264
    117  O        137.0730   84.0860  126.8850 O.2   523  PHE523     -0.2867
    118  CB       135.7950   86.1830  125.4130 C.3   523  PHE523      0.0534
    119  CG       134.8710   86.6020  124.3140 C.ar  523  PHE523     -0.0203
    120  CD1      133.6930   85.9190  124.0820 C.ar  523  PHE523     -0.0042
    121  CD2      135.1820   87.6830  123.5160 C.ar  523  PHE523     -0.0042
    122  CE1      132.8480   86.3090  123.0800 C.ar  523  PHE523     -0.0003
    123  CE2      134.3370   88.0730  122.5160 C.ar  523  PHE523     -0.0003
    124  CZ       133.1700   87.3830  122.2950 C.ar  523  PHE523     -0.0000
    125  N        132.5980   84.9490  118.8890 N.3   536  SER536     -0.1217
    126  CA       133.1560   86.1750  118.3500 C.3   536  SER536      0.1889
    127  C        132.5430   86.5290  117.0110 C.2   536  SER536      0.2288
    128  O        132.2910   87.7070  116.7470 O.2   536  SER536     -0.2866
    129  CB       134.6630   86.0460  118.1940 C.3   536  SER536      0.2089
    130  OG       134.9560   85.1460  117.1470 O.3   536  SER536     -0.2183
    131  N        129.0000   87.8910  117.4020 N.3   539  MET539     -0.1230
    132  CA       129.0330   89.2360  117.9520 C.3   539  MET539      0.1702
    133  C        129.4610   90.2370  116.8940 C.2   539  MET539      0.2592
    134  O        128.8310   91.2860  116.7290 O.2   539  MET539     -0.2718
    135  CB       129.9690   89.2830  119.1540 C.3   539  MET539      0.0401
    136  CG       130.3690   90.6750  119.5660 C.3   539  MET539      0.0596
    137  SD       128.9950   91.5470  120.3160 S.3   539  MET539     -0.1393
    138  CE       128.4880   90.3420  121.5250 C.3   539  MET539      0.0692
    139  N        130.5130   89.9130  116.1430 N.am  540  ASP540     -0.1974
    140  CA       131.0430   90.8370  115.1480 C.3   540  ASP540      0.1709
    141  C        130.0980   91.0180  113.9680 C.2   540  ASP540      0.2293
    142  O        130.1100   92.0720  113.3190 O.2   540  ASP540     -0.2864
    143  CB       132.3990   90.3400  114.6630 C.3   540  ASP540      0.1436
    144  CG       133.0570   91.2990  113.7160 C.2   540  ASP540      0.3671
    145  OD1      133.1840   92.4810  114.0880 O.co2 540  ASP540     -0.2456
    146  OD2      133.4370   90.8780  112.6050 O.co2 540  ASP540     -0.2456
    147  N        133.9440   94.8800  115.8180 N.3   581  GLY581     -0.1210
    148  CA       134.2690   94.2220  117.0610 C.3   581  GLY581      0.1956
    149  C        133.0810   94.2600  117.9900 C.2   581  GLY581      0.2611
    150  O        132.0900   93.5600  117.7730 O.2   581  GLY581     -0.2717
    151  N        133.1650   95.0790  119.0290 N.am  582  ASP582     -0.1973
    152  CA       132.0320   95.3340  119.9010 C.3   582  ASP582      0.1709
    153  C        131.4360   96.7150  119.7120 C.2   582  ASP582      0.2293
    154  O        130.2170   96.8480  119.6390 O.2   582  ASP582     -0.2864
    155  CB       132.4400   95.1600  121.3650 C.3   582  ASP582      0.1436
    156  CG       133.7060   95.9060  121.7100 C.2   582  ASP582      0.3671
    157  OD1      134.3570   96.4270  120.7830 O.co2 582  ASP582     -0.2456
    158  OD2      134.0460   95.9830  122.9090 O.co2 582  ASP582     -0.2456
    159  N        129.5490  104.1150  131.6480 N.3   642  LYS642     -0.1245
    160  CA       130.1280  102.8060  131.8850 C.3   642  LYS642      0.1561
    161  C        130.3710  102.5920  133.3660 C.2   642  LYS642      0.2260
    162  O        130.1010  101.5130  133.9020 O.2   642  LYS642     -0.2867
    163  CB       131.4350  102.7020  131.1050 C.3   642  LYS642      0.0271
    164  CG       132.0290  101.3290  131.0460 C.3   642  LYS642      0.0035
    165  CD       131.1530  100.4250  130.2030 C.3   642  LYS642      0.0206
    166  CE       131.1400  100.8940  128.7670 C.3   642  LYS642      0.1093
    167  NZ       132.4840  100.7400  128.1620 N.3   642  LYS642     -0.1314
    168  N        126.9370  100.4830  134.1910 N.3   646  ARG646     -0.1245
    169  CA       127.4910   99.5640  133.1970 C.3   646  ARG646      0.1563
    170  C        126.5250   99.2260  132.0560 C.2   646  ARG646      0.2260
    171  O        126.9690   98.7970  130.9940 O.2   646  ARG646     -0.2867
    172  CB       127.9920   98.2950  133.9210 C.3   646  ARG646      0.0307
    173  CG       128.6440   97.1900  133.1100 C.3   646  ARG646      0.0489
    174  CD       129.9950   97.5580  132.5750 C.3   646  ARG646      0.2205
    175  NE       130.9370   97.7750  133.6570 N.pl3 646  ARG646     -0.0865
    176  CZ       132.2000   98.1270  133.4830 C.cat 646  ARG646      0.5346
    177  NH1      132.6840   98.2540  132.2630 N.pl3 646  ARG646      0.1354
    178  NH2      132.9840   98.3170  134.5270 N.pl3 646  ARG646      0.1354
@<TRIPOS>BOND
     1   146   144   ar
     2   142   141    2
     3   144   145   ar
     4   144   143    1
     5   141   140    1
     6    20    21    1
     7    11    10    1
     8    11    12    2
     9    21    24    1
    10    21    22    1
    11   143   140    1
    12    10     9    1
    13    10    13    1
    14   140   139    1
    15    25    22   am
    16    25    26    1
    17    22    23    2
    18   147   148    1
    19    13    14    1
    20   139   133   am
    21    26    27    1
    22    32    31    2
    23    27    28    2
    24   134   133    2
    25   128   127    2
    26   133   132    1
    27   127   126    1
    28    29    30    1
    29    31    30    1
    30   148   149    1
    31   130   129    1
    32   131   132    1
    33    14    15   ar
    34    14    16   ar
    35   150   149    2
    36    30    33    1
    37    15    17   ar
    38   132   135    1
    39   149   151   am
    40   129   126    1
    41    16    18   ar
    42   126   125    1
    43   151   152    1
    44    17    19   ar
    45     3     4    2
    46     3     2    1
    47    33    34    1
    48   135   136    1
    49     1     2    1
    50    18    19   ar
    51   136   137    1
    52   154   153    2
    53   153   152    1
    54     2     5    1
    55   152   155    1
    56    34    35   ar
    57    34    36   ar
    58   137   138    1
    59    35    37   ar
    60   157   156   ar
    61     7     6   ar
    62    36    38   ar
    63     5     6    1
    64   155   156    1
    65    37    38   ar
    66     6     8   ar
    67   156   158   ar
    68    73    71    1
    69   124   123   ar
    70   124   122   ar
    71   123   121   ar
    72   122   120   ar
    73    59    60    1
    74   100    98    1
    75   121   119   ar
    76    60    61    1
    77    60    63    1
    78    71    72    1
    79    71    68    1
    80    67    61   am
    81    67    68    1
    82   120   119   ar
    83    61    62    2
    84   119   118    1
    85    46    45    1
    86    46    47    2
    87    98    99    1
    88    98    97    1
    89    65    64   ar
    90    68    69    1
    91    49    47    1
    92    45    44    1
    93    63    64    1
    94    47    48    1
    95    44    43    1
    96    64    66   ar
    97   118   115    1
    98    97    94    1
    99    69    70    2
   100    69    74   am
   101   115   114    1
   102   115   116    1
   103    43    40    1
   104    96    95    2
   105    74    75    1
   106   117   116    2
   107    94    95    1
   108    94    93    1
   109    40    39    1
   110    40    41    1
   111    95   101   am
   112    50    51    1
   113    42    41    2
   114    51    54    1
   115    51    52    1
   116    55    54    1
   117    55    56    1
   118    57    56    1
   119    57    58    1
   120    80    79   ar
   121   101   102    1
   122    93    84   am
   123   167   166    1
   124   102   103    1
   125    75    76    1
   126    75    78    1
   127    79    81   ar
   128    79    78    1
   129    77    76    2
   130    53    52    2
   131   166   165    1
   132    76    82   am
   133   104   103    2
   134    84    85    2
   135    84    83    1
   136   103   105   am
   137    82    83    1
   138   105   106    1
   139   165   164    1
   140    83    86    1
   141   107   108    2
   142   107   106    1
   143   171   170    2
   144   106   109    1
   145   164   163    1
   146   163   160    1
   147    86    87    1
   148   159   160    1
   149   160   161    1
   150   170   169    1
   151   109   110    1
   152   177   176    1
   153   174   173    1
   154   174   175    1
   155    87    88    1
   156   173   172    1
   157   169   172    1
   158   169   168    1
   159    92    90    1
   160    89    90    2
   161    89    88    1
   162   161   162    2
   163   110   111    1
   164   176   175    2
   165   176   178    1
   166    90    91    1
   167   112   111   ar
   168   111   113   ar
