@<TRIPOS>MOLECULE
tmp/6irwA00.pdb
 197 190 0 0 0
SMALL
GASTEIGER

@<TRIPOS>ATOM
      1  N        -24.9290   -3.5410    3.1420 N.3    74  LEU74      -0.1245
      2  CA       -24.6360   -4.1030    4.4560 C.3    74  LEU74       0.1561
      3  C        -23.1530   -4.4180    4.5980 C.2    74  LEU74       0.2260
      4  O        -22.5410   -4.1150    5.6290 O.2    74  LEU74      -0.2867
      5  CB       -25.4710   -5.3630    4.6880 C.3    74  LEU74       0.0270
      6  CG       -26.9830   -5.2000    4.8360 C.3    74  LEU74       0.0019
      7  CD1      -27.6570   -6.5580    4.8670 C.3    74  LEU74       0.0001
      8  CD2      -27.3110   -4.4120    6.0910 C.3    74  LEU74       0.0001
      9  N        -20.9390   -1.2070    4.8830 N.3    77  LYS77      -0.1245
     10  CA       -21.0450   -0.5340    6.1720 C.3    77  LYS77       0.1561
     11  C        -20.2730   -1.2380    7.2800 C.2    77  LYS77       0.2260
     12  O        -20.0570   -0.6340    8.3360 O.2    77  LYS77      -0.2867
     13  CB       -22.5140   -0.3950    6.5640 C.3    77  LYS77       0.0271
     14  CG       -23.1980    0.7830    5.8990 C.3    77  LYS77       0.0035
     15  CD       -22.4390    2.0620    6.2100 C.3    77  LYS77       0.0206
     16  CE       -23.0170    3.2580    5.4770 C.3    77  LYS77       0.1093
     17  NZ       -22.3100    4.5040    5.8780 N.3    77  LYS77      -0.1314
     18  N        -36.0260    3.7190    5.2480 N.3   311  TYR311     -0.1241
     19  CA       -36.2190    2.2830    5.0950 C.3   311  TYR311      0.1605
     20  C        -36.9180    1.9170    3.7930 C.2   311  TYR311      0.2264
     21  O        -37.0000    0.7270    3.4690 O.2   311  TYR311     -0.2867
     22  CB       -36.9880    1.7280    6.2970 C.3   311  TYR311      0.0534
     23  CG       -36.0980    1.5240    7.5040 C.ar  311  TYR311     -0.0201
     24  CD1      -35.8770    2.5500    8.4140 C.ar  311  TYR311     -0.0009
     25  CD2      -35.4540    0.3130    7.7170 C.ar  311  TYR311     -0.0009
     26  CE1      -35.0510    2.3680    9.5080 C.ar  311  TYR311      0.0417
     27  CE2      -34.6270    0.1220    8.8080 C.ar  311  TYR311      0.0417
     28  CZ       -34.4290    1.1520    9.6990 C.ar  311  TYR311      0.1957
     29  OH       -33.6070    0.9680   10.7870 O.3   311  TYR311     -0.2866
     30  N        -33.7730    1.4400    1.6310 N.3   314  MET314     -0.1245
     31  CA       -33.2130    0.1640    2.0530 C.3   314  MET314      0.1570
     32  C        -33.9940   -1.0270    1.5090 C.2   314  MET314      0.2261
     33  O        -33.4790   -2.1500    1.5510 O.2   314  MET314     -0.2867
     34  CB       -33.1710    0.1060    3.5840 C.3   314  MET314      0.0387
     35  CG       -32.1730   -0.8870    4.1650 C.3   314  MET314      0.0595
     36  SD       -30.4590   -0.4010    3.8820 S.3   314  MET314     -0.1393
     37  CE       -29.5870   -1.7070    4.7450 C.3   314  MET314      0.0692
     38  N        -34.0690  -10.0880    7.0930 N.3   316  GLN316     -0.1231
     39  CA       -35.0580  -11.1500    7.2290 C.3   316  GLN316      0.1698
     40  C        -36.2250  -10.6740    8.0900 C.2   316  GLN316      0.2593
     41  O        -36.5480   -9.4870    8.1090 O.2   316  GLN316     -0.2718
     42  CB       -34.4230  -12.4040    7.8370 C.3   316  GLN316      0.0381
     43  CG       -35.0390  -13.7150    7.3630 C.3   316  GLN316      0.0905
     44  CD       -34.9790  -14.8030    8.4200 C.2   316  GLN316      0.2608
     45  OE1      -34.4250  -14.6030    9.5030 O.2   316  GLN316     -0.2717
     46  NE2      -35.5570  -15.9600    8.1140 N.am  316  GLN316     -0.0878
     47  N        -36.8510  -11.6090    8.8060 N.am  317  GLY317     -0.1942
     48  CA       -37.9770  -11.3200    9.6610 C.3   317  GLY317      0.2014
     49  C        -37.6210  -11.3790   11.1390 C.2   317  GLY317      0.2640
     50  O        -36.5090  -11.7130   11.5390 O.2   317  GLY317     -0.2714
     51  N        -38.6160  -11.0470   11.9540 N.am  318  SER318     -0.1935
     52  CA       -38.4470  -10.9310   13.3940 C.3   318  SER318      0.2055
     53  C        -38.9260  -12.1930   14.1030 C.2   318  SER318      0.2642
     54  O        -39.7050  -12.9840   13.5650 O.2   318  SER318     -0.2714
     55  CB       -39.2080   -9.7140   13.9250 C.3   318  SER318      0.2130
     56  OG       -38.8920   -8.5540   13.1760 O.3   318  SER318     -0.2179
     57  N        -38.4430  -12.3720   15.3300 N.am  319  LEU319     -0.1977
     58  CA       -38.8780  -13.4910   16.1450 C.3   319  LEU319      0.1596
     59  C        -40.3270  -13.2870   16.5900 C.2   319  LEU319      0.2287
     60  O        -40.7970  -12.1500   16.6990 O.2   319  LEU319     -0.2864
     61  CB       -37.9810  -13.6440   17.3710 C.3   319  LEU319      0.0297
     62  CG       -36.4730  -13.7750   17.1560 C.3   319  LEU319      0.0022
     63  CD1      -35.7760  -13.9730   18.4920 C.3   319  LEU319      0.0001
     64  CD2      -36.1540  -14.9170   16.2070 C.3   319  LEU319      0.0001
     65  N        -39.9880  -13.5870   22.2070 N.3   324  PHE324     -0.1241
     66  CA       -39.3220  -12.4860   22.8970 C.3   324  PHE324      0.1605
     67  C        -39.7220  -12.4330   24.3680 C.2   324  PHE324      0.2264
     68  O        -38.8920  -12.1290   25.2330 O.2   324  PHE324     -0.2867
     69  CB       -39.6360  -11.1580   22.2070 C.3   324  PHE324      0.0534
     70  CG       -38.6610  -10.7940   21.1220 C.ar  324  PHE324     -0.0203
     71  CD1      -37.3400  -10.5000   21.4300 C.ar  324  PHE324     -0.0042
     72  CD2      -39.0650  -10.7360   19.7980 C.ar  324  PHE324     -0.0042
     73  CE1      -36.4370  -10.1630   20.4380 C.ar  324  PHE324     -0.0003
     74  CE2      -38.1670  -10.3970   18.8000 C.ar  324  PHE324     -0.0003
     75  CZ       -36.8510  -10.1110   19.1210 C.ar  324  PHE324     -0.0000
     76  N        -32.1750   -5.8070   21.5090 N.3   336  GLU336     -0.1231
     77  CA       -32.0020   -6.4440   20.2080 C.3   336  GLU336      0.1699
     78  C        -30.8020   -5.8150   19.5150 C.2   336  GLU336      0.2592
     79  O        -30.8080   -4.6130   19.2280 O.2   336  GLU336     -0.2718
     80  CB       -33.2540   -6.2910   19.3470 C.3   336  GLU336      0.0402
     81  CG       -34.5300   -6.7670   20.0080 C.3   336  GLU336      0.1161
     82  CD       -35.7570   -6.4300   19.1890 C.2   336  GLU336      0.3649
     83  OE1      -35.9040   -6.9790   18.0770 O.co2 336  GLU336     -0.2457
     84  OE2      -36.5650   -5.6010   19.6510 O.co2 336  GLU336     -0.2457
     85  N        -29.7780   -6.6250   19.2430 N.am  337  CYS337     -0.1956
     86  CA       -28.5770   -6.1010   18.6050 C.3   337  CYS337      0.1843
     87  C        -28.7980   -5.7590   17.1390 C.2   337  CYS337      0.2625
     88  O        -27.9990   -5.0130   16.5650 O.2   337  CYS337     -0.2714
     89  CB       -27.4280   -7.1010   18.7390 C.3   337  CYS337      0.0997
     90  SG       -26.8970   -7.3790   20.4450 S.3   337  CYS337     -0.0797
     91  N        -29.8540   -6.2820   16.5210 N.am  338  PHE338     -0.1960
     92  CA       -30.1470   -6.0160   15.1150 C.3   338  PHE338      0.1771
     93  C        -31.6510   -5.8420   14.9780 C.2   338  PHE338      0.2619
     94  O        -32.4010   -6.8210   15.0460 O.2   338  PHE338     -0.2715
     95  CB       -29.6360   -7.1420   14.2150 C.3   338  PHE338      0.0574
     96  CG       -28.1450   -7.3040   14.2450 C.ar  338  PHE338     -0.0200
     97  CD1      -27.5440   -8.1440   15.1680 C.ar  338  PHE338     -0.0042
     98  CD2      -27.3420   -6.6040   13.3600 C.ar  338  PHE338     -0.0042
     99  CE1      -26.1720   -8.2870   15.2040 C.ar  338  PHE338     -0.0003
    100  CE2      -25.9680   -6.7440   13.3900 C.ar  338  PHE338     -0.0003
    101  CZ       -25.3820   -7.5880   14.3130 C.ar  338  PHE338     -0.0000
    102  N        -32.0890   -4.6030   14.7910 N.am  339  ALA339     -0.1963
    103  CA       -33.5130   -4.3110   14.7290 C.3   339  ALA339      0.1728
    104  C        -33.7090   -2.9880   13.9940 C.2   339  ALA339      0.2616
    105  O        -32.8060   -2.5100   13.2980 O.2   339  ALA339     -0.2715
    106  CB       -34.1160   -4.2960   16.1440 C.3   339  ALA339      0.0334
    107  N        -34.8920   -2.4050   14.1470 N.am  340  SER340     -0.1950
    108  CA       -35.2290   -1.1140   13.5690 C.3   340  SER340      0.1924
    109  C        -36.4230   -0.5650   14.3280 C.2   340  SER340      0.2314
    110  O        -37.1520   -1.3310   14.9690 O.2   340  SER340     -0.2863
    111  CB       -35.5570   -1.2400   12.0710 C.3   340  SER340      0.2116
    112  OG       -36.8550   -1.7800   11.8690 O.3   340  SER340     -0.2180
    113  N        -39.4470   -2.8020   13.5560 N.3   343  ASN343     -0.1240
    114  CA       -39.5430   -4.1990   13.9610 C.3   343  ASN343      0.1653
    115  C        -39.0410   -4.4780   15.3750 C.2   343  ASN343      0.2266
    116  O        -39.0590   -5.6400   15.7990 O.2   343  ASN343     -0.2867
    117  CB       -38.7970   -5.1010   12.9590 C.3   343  ASN343      0.1155
    118  CG       -37.2860   -4.8530   12.9220 C.2   343  ASN343      0.2627
    119  OD1      -36.6460   -4.5960   13.9420 O.2   343  ASN343     -0.2716
    120  ND2      -36.7110   -4.9620   11.7320 N.am  343  ASN343     -0.0877
    121  N        -30.2870   -1.8500   18.6490 N.3   350  CYS350     -0.1221
    122  CA       -29.3500   -1.3140   17.6730 C.3   350  CYS350      0.1808
    123  C        -29.9700   -1.3940   16.2860 C.2   350  CYS350      0.2602
    124  O        -30.6640   -2.3630   15.9620 O.2   350  CYS350     -0.2717
    125  CB       -28.0230   -2.0750   17.6980 C.3   350  CYS350      0.0970
    126  SG       -26.9630   -1.7150   19.1170 S.3   350  CYS350     -0.0800
    127  N        -29.7230   -0.3730   15.4680 N.am  351  SER351     -0.1938
    128  CA       -30.2580   -0.3270   14.1160 C.3   351  SER351      0.2055
    129  C        -29.1910    0.2050   13.1680 C.2   351  SER351      0.2642
    130  O        -28.1230    0.6580   13.5840 O.2   351  SER351     -0.2714
    131  CB       -31.5240    0.5330   14.0410 C.3   351  SER351      0.2130
    132  OG       -31.2140    1.8980   14.2360 O.3   351  SER351     -0.2179
    133  N        -29.5010    0.1570   11.8730 N.am  352  ALA352     -0.1977
    134  CA       -28.5250    0.4940   10.8460 C.3   352  ALA352      0.1597
    135  C        -28.2780    1.9920   10.7110 C.2   352  ALA352      0.2287
    136  O        -27.2360    2.3840   10.1750 O.2   352  ALA352     -0.2864
    137  CB       -28.9750   -0.0710    9.4970 C.3   352  ALA352      0.0319
    138  N        -25.5840    1.7100   15.0890 N.3   365  PRO365     -0.2102
    139  CA       -25.1410    0.4210   14.5440 C.3   365  PRO365      0.1504
    140  C        -24.5130   -0.4620   15.6130 C.2   365  PRO365      0.2576
    141  O        -23.8610    0.0170   16.5440 O.2   365  PRO365     -0.2718
    142  CB       -24.1200    0.8250   13.4750 C.3   365  PRO365      0.0282
    143  CG       -24.5490    2.2000   13.0610 C.3   365  PRO365      0.0208
    144  CD       -25.0610    2.8490   14.3160 C.3   365  PRO365      0.0893
    145  N        -24.7190   -1.7740   15.4590 N.am  366  CYS366     -0.1957
    146  CA       -24.3070   -2.7250   16.4890 C.3   366  CYS366      0.1843
    147  C        -22.7970   -2.7300   16.6820 C.2   366  CYS366      0.2625
    148  O        -22.3100   -2.8160   17.8150 O.2   366  CYS366     -0.2714
    149  CB       -24.8020   -4.1270   16.1330 C.3   366  CYS366      0.0997
    150  SG       -24.1710   -5.4310   17.2180 S.3   366  CYS366     -0.0797
    151  N        -22.0360   -2.6410   15.5880 N.am  367  LEU367     -0.1977
    152  CA       -20.5820   -2.6930   15.6930 C.3   367  LEU367      0.1596
    153  C        -20.0020   -1.4800   16.4110 C.2   367  LEU367      0.2287
    154  O        -18.8560   -1.5380   16.8680 O.2   367  LEU367     -0.2864
    155  CB       -19.9610   -2.8350   14.3020 C.3   367  LEU367      0.0297
    156  CG       -20.3310   -4.1140   13.5440 C.3   367  LEU367      0.0022
    157  CD1      -19.6580   -4.1570   12.1810 C.3   367  LEU367      0.0001
    158  CD2      -19.9730   -5.3480   14.3580 C.3   367  LEU367      0.0001
    159  N        -30.1390  -10.1780   22.4550 N.3   377  GLU377     -0.1245
    160  CA       -30.6350  -11.0610   21.4110 C.3   377  GLU377      0.1567
    161  C        -30.1190  -10.5660   20.0670 C.2   377  GLU377      0.2260
    162  O        -30.0990   -9.3590   19.8070 O.2   377  GLU377     -0.2867
    163  CB       -32.1700  -11.1150   21.4120 C.3   377  GLU377      0.0388
    164  CG       -32.7860  -11.9200   20.2750 C.3   377  GLU377      0.1160
    165  CD       -33.0790  -11.0770   19.0480 C.2   377  GLU377      0.3649
    166  OE1      -33.5260  -11.6420   18.0300 O.co2 377  GLU377     -0.2457
    167  OE2      -32.8640   -9.8480   19.1010 O.co2 377  GLU377     -0.2457
    168  N        -30.3940  -11.2710   15.9120 N.3   379  ASN379     -0.1226
    169  CA       -30.9560  -11.8670   14.7000 C.3   379  ASN379      0.1770
    170  C        -30.4960  -11.0130   13.5250 C.2   379  ASN379      0.2439
    171  O        -31.2700  -10.2170   12.9780 O.2   379  ASN379     -0.2733
    172  CB       -32.4810  -11.9540   14.7740 C.3   379  ASN379      0.1168
    173  CG       -33.0900  -12.6440   13.5620 C.2   379  ASN379      0.2627
    174  OD1      -32.4180  -13.3910   12.8510 O.2   379  ASN379     -0.2716
    175  ND2      -34.3720  -12.3950   13.3230 N.am  379  ASN379     -0.0877
    176  N        -29.2400  -11.1550   13.1110 N.am  380  PRO380     -0.2718
    177  CA       -28.6740  -10.2410   12.1130 C.3   380  PRO380      0.1520
    178  C        -29.1760  -10.5610   10.7180 C.2   380  PRO380      0.2440
    179  O        -29.6300  -11.6850   10.4520 O.2   380  PRO380     -0.2731
    180  CB       -27.1640  -10.4930   12.2300 C.3   380  PRO380      0.0310
    181  CG       -27.0720  -11.9140   12.6620 C.3   380  PRO380      0.0237
    182  CD       -28.2560  -12.1520   13.5680 C.3   380  PRO380      0.0939
    183  N        -29.1160   -9.5970    9.7980 N.am  381  PRO381     -0.2727
    184  CA       -29.4350   -9.8940    8.3970 C.3   381  PRO381      0.1402
    185  C        -28.4190  -10.8650    7.8180 C.2   381  PRO381      0.2269
    186  O        -27.2810  -10.9630    8.2810 O.2   381  PRO381     -0.2865
    187  CB       -29.3520   -8.5240    7.7070 C.3   381  PRO381      0.0296
    188  CG       -29.3560   -7.5150    8.8170 C.3   381  PRO381      0.0237
    189  CD       -28.7350   -8.1890    9.9930 C.3   381  PRO381      0.0939
    190  N        -20.9580   -9.0570    7.6960 N.3   386  LEU386     -0.1245
    191  CA       -21.5270   -8.4860    8.9130 C.3   386  LEU386      0.1561
    192  C        -21.6510   -9.5360   10.0090 C.2   386  LEU386      0.2260
    193  O        -21.3750   -9.2550   11.1810 O.2   386  LEU386     -0.2867
    194  CB       -22.8880   -7.8560    8.6160 C.3   386  LEU386      0.0270
    195  CG       -23.7030   -7.3850    9.8250 C.3   386  LEU386      0.0019
    196  CD1      -22.9170   -6.3930   10.6720 C.3   386  LEU386      0.0001
    197  CD2      -25.0220   -6.7750    9.3770 C.3   386  LEU386      0.0001
@<TRIPOS>BOND
     1    32    33    2
     2    32    31    1
     3    30    31    1
     4    31    34    1
     5     1     2    1
     6    21    20    2
     7    34    35    1
     8    20    19    1
     9    36    35    1
    10    36    37    1
    11     2     3    1
    12     2     5    1
    13     3     4    2
    14     5     6    1
    15     6     7    1
    16     6     8    1
    17     9    10    1
    18    19    18    1
    19    19    22    1
    20    16    17    1
    21    16    15    1
    22    14    15    1
    23    14    13    1
    24    10    13    1
    25    10    11    1
    26    22    23    1
    27    38    39    1
    28    39    42    1
    29    39    40    1
    30    11    12    2
    31    43    42    1
    32    43    44    1
    33    23    25   ar
    34    23    24   ar
    35   190   191    1
    36   187   184    1
    37   187   188    1
    38    25    27   ar
    39   185   186    2
    40   185   184    1
    41    40    41    2
    42    40    47   am
    43    46    44   am
    44   184   183    1
    45    24    26   ar
    46    44    45    2
    47   194   191    1
    48   194   195    1
    49    47    48    1
    50    27    28   ar
    51   188   189    1
    52   191   192    1
    53   197   195    1
    54   137   134    1
    55    26    28   ar
    56    48    49    1
    57    28    29    1
    58   183   189    1
    59   183   178   am
    60   195   196    1
    61   192   193    2
    62   136   135    2
    63   179   178    2
    64   135   134    1
    65   178   177    1
    66   134   133    1
    67    49    50    2
    68    49    51   am
    69   120   118   am
    70   112   111    1
    71   133   129   am
    72    51    52    1
    73   111   108    1
    74   177   180    1
    75   177   176    1
    76   157   156    1
    77   180   181    1
    78   181   182    1
    79   174   173    2
    80   118   117    1
    81   118   119    2
    82   117   114    1
    83   171   170    2
    84   143   142    1
    85   143   144    1
    86   176   170   am
    87   176   182    1
    88   129   130    2
    89   129   128    1
    90    56    55    1
    91   105   104    2
    92   175   173   am
    93    98   100   ar
    94    98    96   ar
    95   100   101   ar
    96    52    55    1
    97    52    53    1
    98   142   139    1
    99   170   169    1
   100   156   155    1
   101   156   158    1
   102   113   114    1
   103   173   172    1
   104    54    53    2
   105   108   107    1
   106   108   109    1
   107   114   115    1
   108   104   107   am
   109   104   103    1
   110   131   128    1
   111   131   132    1
   112    53    57   am
   113   128   127    1
   114    95    96    1
   115    95    92    1
   116    96    97   ar
   117   155   152    1
   118   101    99   ar
   119   144   138    1
   120   109   110    2
   121   139   138    1
   122   139   140    1
   123   169   172    1
   124   169   168    1
   125   103   102    1
   126   103   106    1
   127   102    93   am
   128    93    94    2
   129    93    92    1
   130    92    91    1
   131    97    99   ar
   132    57    58    1
   133   115   116    2
   134   145   140   am
   135   145   146    1
   136   127   123   am
   137   151   152    1
   138   151   147   am
   139   140   141    2
   140   152   153    1
   141   124   123    2
   142   149   146    1
   143   149   150    1
   144    58    59    1
   145    58    61    1
   146    64    62    1
   147   123   122    1
   148   153   154    2
   149   146   147    1
   150    91    87   am
   151    88    87    2
   152    59    60    2
   153   147   148    2
   154    87    86    1
   155    62    61    1
   156    62    63    1
   157   122   125    1
   158   122   121    1
   159   125   126    1
   160   166   165   ar
   161    83    82   ar
   162    86    89    1
   163    86    85    1
   164    89    90    1
   165    74    75   ar
   166    74    72   ar
   167   165   167   ar
   168   165   164    1
   169    75    73   ar
   170    82    84   ar
   171    82    81    1
   172    79    78    2
   173    85    78   am
   174    80    81    1
   175    80    77    1
   176    78    77    1
   177    72    70   ar
   178   162   161    2
   179   161   160    1
   180    77    76    1
   181   164   163    1
   182    73    71   ar
   183    70    71   ar
   184    70    69    1
   185   160   163    1
   186   160   159    1
   187    65    66    1
   188    69    66    1
   189    66    67    1
   190    67    68    2
