@<TRIPOS>MOLECULE
tmp/6iryA00.pdb
 217 211 0 0 0
SMALL
GASTEIGER

@<TRIPOS>ATOM
      1  N         50.7530   12.0080   20.2480 N.3    65  LEU65      -0.1245
      2  CA        51.5140   13.2280   19.9910 C.3    65  LEU65       0.1561
      3  C         52.0070   13.8630   21.2870 C.2    65  LEU65       0.2260
      4  O         53.1890   14.2020   21.4160 O.2    65  LEU65      -0.2867
      5  CB        50.6620   14.2230   19.2030 C.3    65  LEU65       0.0270
      6  CG        50.3170   13.8330   17.7630 C.3    65  LEU65       0.0019
      7  CD1       49.2980   14.7910   17.1820 C.3    65  LEU65       0.0001
      8  CD2       51.5900   13.8410   16.9260 C.3    65  LEU65       0.0001
      9  N         54.8440   11.9630   22.8980 N.3    68  LYS68      -0.1245
     10  CA        56.1350   12.0440   22.2310 C.3    68  LYS68       0.1561
     11  C         56.8650   13.3450   22.5260 C.2    68  LYS68       0.2260
     12  O         58.0810   13.4100   22.3260 O.2    68  LYS68      -0.2867
     13  CB        55.9650   11.8560   20.7290 C.3    68  LYS68       0.0271
     14  CG        56.0630   10.4070   20.3240 C.3    68  LYS68       0.0035
     15  CD        57.4760    9.8950   20.5610 C.3    68  LYS68       0.0206
     16  CE        57.5560    8.3800   20.4600 C.3    68  LYS68       0.1093
     17  NZ        58.8000    7.8750   21.1290 N.3    68  LYS68      -0.1314
     18  N         51.9080    4.7110    9.1840 N.3   297  TYR297     -0.1241
     19  CA        50.9700    5.8300    9.1900 C.3   297  TYR297      0.1605
     20  C         49.5180    5.3630    9.3090 C.2   297  TYR297      0.2264
     21  O         48.7070    6.0560    9.9330 O.2   297  TYR297     -0.2867
     22  CB        51.2000    6.7140    7.9500 C.3   297  TYR297      0.0534
     23  CG        52.3360    7.7090    8.1880 C.ar  297  TYR297     -0.0201
     24  CD1       52.0970    8.9150    8.8380 C.ar  297  TYR297     -0.0009
     25  CD2       53.6470    7.4220    7.8050 C.ar  297  TYR297     -0.0009
     26  CE1       53.1210    9.8250    9.0890 C.ar  297  TYR297      0.0417
     27  CE2       54.6920    8.3350    8.0430 C.ar  297  TYR297      0.0417
     28  CZ        54.4160    9.5280    8.7050 C.ar  297  TYR297      0.1957
     29  OH        55.4170   10.4370    8.9620 O.3   297  TYR297     -0.2866
     30  N         49.2800    4.8760   13.0940 N.3   300  MET300     -0.1230
     31  CA        49.2380    6.1780   13.7470 C.3   300  MET300      0.1702
     32  C         47.8410    6.7830   13.6960 C.2   300  MET300      0.2592
     33  O         47.3600    7.3420   14.6890 O.2   300  MET300     -0.2718
     34  CB        50.2470    7.1170   13.0890 C.3   300  MET300      0.0401
     35  CG        50.0940    8.5670   13.4940 C.3   300  MET300      0.0596
     36  SD        50.5470    8.8110   15.2140 S.3   300  MET300     -0.1393
     37  CE        49.1980    9.8670   15.8100 C.3   300  MET300      0.0692
     38  N         47.1650    6.6610   12.5550 N.am  301  PHE301     -0.1976
     39  CA        45.8300    7.2420   12.4120 C.3   301  PHE301      0.1639
     40  C         44.7400    6.3640   13.0080 C.2   301  PHE301      0.2290
     41  O         43.7260    6.8820   13.4960 O.2   301  PHE301     -0.2864
     42  CB        45.5260    7.5050   10.9340 C.3   301  PHE301      0.0560
     43  CG        46.4290    8.5240   10.3090 C.ar  301  PHE301     -0.0200
     44  CD1       47.1000    9.4480   11.0990 C.ar  301  PHE301     -0.0042
     45  CD2       46.6200    8.5540    8.9390 C.ar  301  PHE301     -0.0042
     46  CE1       47.9450   10.3830   10.5350 C.ar  301  PHE301     -0.0003
     47  CE2       47.4620    9.4930    8.3620 C.ar  301  PHE301     -0.0003
     48  CZ        48.1240   10.4090    9.1640 C.ar  301  PHE301     -0.0000
     49  N         44.7450   17.2660   12.0580 N.3   306  GLN306     -0.1231
     50  CA        45.6890   18.0610   11.2870 C.3   306  GLN306      0.1698
     51  C         45.0030   18.5450   10.0190 C.2   306  GLN306      0.2593
     52  O         43.9550   18.0290    9.6220 O.2   306  GLN306     -0.2718
     53  CB        46.9500   17.2540   10.9550 C.3   306  GLN306      0.0381
     54  CG        46.6730   15.9540   10.2090 C.3   306  GLN306      0.0905
     55  CD        47.8110   14.9490   10.3380 C.2   306  GLN306      0.2608
     56  OE1       48.4530   14.8530   11.3880 O.2   306  GLN306     -0.2717
     57  NE2       48.0640   14.1970    9.2680 N.am  306  GLN306     -0.0878
     58  N         45.6070   19.5560    9.3940 N.am  307  GLY307     -0.1942
     59  CA        45.1120   20.0670    8.1330 C.3   307  GLY307      0.2014
     60  C         46.2650   20.3250    7.1830 C.2   307  GLY307      0.2640
     61  O         47.4130   20.4860    7.5990 O.2   307  GLY307     -0.2714
     62  N         45.9410   20.3570    5.8930 N.am  308  SER308     -0.1935
     63  CA        46.9290   20.5660    4.8440 C.3   308  SER308      0.2055
     64  C         46.6990   21.9080    4.1530 C.2   308  SER308      0.2642
     65  O         45.6590   22.5530    4.3230 O.2   308  SER308     -0.2714
     66  CB        46.8930   19.4230    3.8220 C.3   308  SER308      0.2130
     67  OG        48.0620   19.4420    3.0150 O.3   308  SER308     -0.2179
     68  N         47.7170   22.3320    3.3500 N.am  309  LEU309     -0.1977
     69  CA        47.7160   23.6070    2.6440 C.3   309  LEU309      0.1596
     70  C         47.6240   23.4020    1.1370 C.2   309  LEU309      0.2287
     71  O         48.2930   22.5170    0.5870 O.2   309  LEU309     -0.2864
     72  CB        48.9800   24.4230    2.9450 C.3   309  LEU309      0.0297
     73  CG        49.2170   24.9620    4.3550 C.3   309  LEU309      0.0022
     74  CD1       50.4800   25.8120    4.3690 C.3   309  LEU309      0.0001
     75  CD2       48.0240   25.7660    4.8340 C.3   309  LEU309      0.0001
     76  N         51.7050   26.8550   -1.1980 N.3   314  PHE314     -0.1241
     77  CA        53.1150   26.4780   -1.1000 C.3   314  PHE314      0.1605
     78  C         53.9330   27.1270   -2.2080 C.2   314  PHE314      0.2264
     79  O         55.0700   27.5580   -1.9810 O.2   314  PHE314     -0.2867
     80  CB        53.2690   24.9620   -1.1530 C.3   314  PHE314      0.0534
     81  CG        53.1150   24.2890    0.1710 C.ar  314  PHE314     -0.0203
     82  CD1       54.0860   24.4310    1.1520 C.ar  314  PHE314     -0.0042
     83  CD2       52.0190   23.4880    0.4310 C.ar  314  PHE314     -0.0042
     84  CE1       53.9540   23.8020    2.3800 C.ar  314  PHE314     -0.0003
     85  CE2       51.8790   22.8530    1.6620 C.ar  314  PHE314     -0.0003
     86  CZ        52.8490   23.0130    2.6330 C.ar  314  PHE314     -0.0000
     87  N         59.2540   22.0390    5.1220 N.3   326  GLU326     -0.1231
     88  CA        58.0930   21.8990    6.0020 C.3   326  GLU326      0.1699
     89  C         58.5270   21.3740    7.3710 C.2   326  GLU326      0.2592
     90  O         59.0660   20.2680    7.4670 O.2   326  GLU326     -0.2718
     91  CB        57.0630   20.9490    5.3870 C.3   326  GLU326      0.0402
     92  CG        56.2460   21.5400    4.2600 C.3   326  GLU326      0.1161
     93  CD        55.7550   20.4730    3.2990 C.2   326  GLU326      0.3649
     94  OE1       54.5940   20.0180    3.4370 O.co2 326  GLU326     -0.2457
     95  OE2       56.5470   20.0790    2.4150 O.co2 326  GLU326     -0.2457
     96  N         58.2330   22.1400    8.4340 N.am  327  CYS327     -0.1956
     97  CA        58.5600   21.7090    9.7950 C.3   327  CYS327      0.1843
     98  C         57.7220   20.5280   10.2710 C.2   327  CYS327      0.2625
     99  O         58.1640   19.7870   11.1590 O.2   327  CYS327     -0.2714
    100  CB        58.3870   22.8740   10.7750 C.3   327  CYS327      0.0997
    101  SG        59.5630   24.2230   10.5040 S.3   327  CYS327     -0.0797
    102  N         56.5350   20.3330    9.7080 N.am  328  PHE328     -0.1960
    103  CA        55.6210   19.2690   10.1230 C.3   328  PHE328      0.1771
    104  C         55.0420   18.6530    8.8600 C.2   328  PHE328      0.2619
    105  O         54.2580   19.3040    8.1640 O.2   328  PHE328     -0.2715
    106  CB        54.5070   19.8010   11.0290 C.3   328  PHE328      0.0574
    107  CG        55.0100   20.3630   12.3250 C.ar  328  PHE328     -0.0200
    108  CD1       55.2400   19.5360   13.4050 C.ar  328  PHE328     -0.0042
    109  CD2       55.3040   21.7130   12.4400 C.ar  328  PHE328     -0.0042
    110  CE1       55.7440   20.0460   14.5930 C.ar  328  PHE328     -0.0003
    111  CE2       55.7980   22.2360   13.6240 C.ar  328  PHE328     -0.0003
    112  CZ        56.0110   21.4020   14.7060 C.ar  328  PHE328     -0.0000
    113  N         55.4230   17.4130    8.5640 N.am  329  ALA329     -0.1963
    114  CA        54.9560   16.7630    7.3480 C.3   329  ALA329      0.1728
    115  C         55.1230   15.2580    7.5020 C.2   329  ALA329      0.2616
    116  O         55.5770   14.7700    8.5420 O.2   329  ALA329     -0.2715
    117  CB        55.7270   17.2790    6.1290 C.3   329  ALA329      0.0334
    118  N         54.7660   14.5330    6.4460 N.am  330  SER330     -0.1950
    119  CA        55.0520   13.1180    6.2630 C.3   330  SER330      0.1924
    120  C         55.5130   12.9170    4.8330 C.2   330  SER330      0.2314
    121  O         55.2830   13.7830    3.9820 O.2   330  SER330     -0.2863
    122  CB        53.8220   12.2370    6.5040 C.3   330  SER330      0.2116
    123  OG        52.8890   12.3680    5.4470 O.3   330  SER330     -0.2180
    124  N         52.4290   13.4810    2.6460 N.3   333  ASN333     -0.1240
    125  CA        51.7800   14.7770    2.4490 C.3   333  ASN333      0.1653
    126  C         52.7400   15.9270    2.1680 C.2   333  ASN333      0.2266
    127  O         52.2700   17.0480    1.9380 O.2   333  ASN333     -0.2867
    128  CB        50.8590   15.1310    3.6480 C.3   333  ASN333      0.1155
    129  CG        51.6210   15.4370    4.9370 C.2   333  ASN333      0.2627
    130  OD1       52.7090   16.0230    4.9200 O.2   333  ASN333     -0.2716
    131  ND2       51.0190   15.0670    6.0790 N.am  333  ASN333     -0.0877
    132  N         60.5770   17.8510    8.1430 N.3   340  CYS340     -0.1221
    133  CA        60.6070   17.0860    9.3790 C.3   340  CYS340      0.1808
    134  C         59.3430   16.2430    9.4890 C.2   340  CYS340      0.2602
    135  O         58.2980   16.5960    8.9340 O.2   340  CYS340     -0.2717
    136  CB        60.7290   18.0110   10.6030 C.3   340  CYS340      0.0970
    137  SG        62.3610   18.7790   10.7420 S.3   340  CYS340     -0.0800
    138  N         59.4450   15.1230   10.2130 N.am  341  SER341     -0.1938
    139  CA        58.3160   14.2050   10.3480 C.3   341  SER341      0.2055
    140  C         58.4600   13.4300   11.6490 C.2   341  SER341      0.2643
    141  O         59.4950   13.4790   12.3130 O.2   341  SER341     -0.2714
    142  CB        58.2350   13.2340    9.1630 C.3   341  SER341      0.2130
    143  OG        59.2390   12.2430    9.2750 O.3   341  SER341     -0.2179
    144  N         57.4220   12.6710   11.9820 N.am  342  ALA342     -0.1963
    145  CA        57.3530   12.0520   13.3020 C.3   342  ALA342      0.1728
    146  C         58.2550   10.8270   13.4490 C.2   342  ALA342      0.2616
    147  O         58.6540   10.5040   14.5800 O.2   342  ALA342     -0.2715
    148  CB        55.8930   11.6710   13.6110 C.3   342  ALA342      0.0334
    149  N         58.6240   10.1710   12.3440 N.am  343  PHE343     -0.1974
    150  CA        59.1380    8.7990   12.3510 C.3   343  PHE343      0.1639
    151  C         60.4570    8.7210   11.5970 C.2   343  PHE343      0.2290
    152  O         60.5090    8.2140   10.4750 O.2   343  PHE343     -0.2864
    153  CB        58.1160    7.8480   11.7250 C.3   343  PHE343      0.0560
    154  CG        56.7660    7.8920   12.4050 C.ar  343  PHE343     -0.0200
    155  CD1       56.6750    7.7620   13.7700 C.ar  343  PHE343     -0.0042
    156  CD2       55.5990    8.0870   11.6710 C.ar  343  PHE343     -0.0042
    157  CE1       55.4430    7.8200   14.4300 C.ar  343  PHE343     -0.0003
    158  CE2       54.3600    8.1390   12.3160 C.ar  343  PHE343     -0.0003
    159  CZ        54.2860    8.0070   13.6920 C.ar  343  PHE343     -0.0000
    160  N         62.1790   14.3740   13.6760 N.3   355  PRO355     -0.2102
    161  CA        61.1490   15.1790   14.3430 C.3   355  PRO355      0.1504
    162  C         61.6130   16.6160   14.5330 C.2   355  PRO355      0.2576
    163  O         62.8060   16.8950   14.7000 O.2   355  PRO355     -0.2718
    164  CB        60.9470   14.4590   15.6800 C.3   355  PRO355      0.0282
    165  CG        62.2040   13.6780   15.9030 C.3   355  PRO355      0.0208
    166  CD        62.7000   13.2950   14.5300 C.3   355  PRO355      0.0893
    167  N         60.6450   17.5390   14.4820 N.am  356  PHE356     -0.1963
    168  CA        60.9830   18.9590   14.4320 C.3   356  PHE356      0.1771
    169  C         61.7310   19.4160   15.6790 C.2   356  PHE356      0.2619
    170  O         62.6750   20.2070   15.5830 O.2   356  PHE356     -0.2715
    171  CB        59.7340   19.8240   14.2570 C.3   356  PHE356      0.0574
    172  CG        60.0490   21.2890   14.2500 C.ar  356  PHE356     -0.0200
    173  CD1       60.8500   21.8200   13.2420 C.ar  356  PHE356     -0.0042
    174  CD2       59.6140   22.1250   15.2710 C.ar  356  PHE356     -0.0042
    175  CE1       61.1870   23.1650   13.2320 C.ar  356  PHE356     -0.0003
    176  CE2       59.9420   23.4730   15.2670 C.ar  356  PHE356     -0.0003
    177  CZ        60.7300   23.9950   14.2400 C.ar  356  PHE356     -0.0000
    178  N         61.3110   18.9590   16.8600 N.am  357  LEU357     -0.1977
    179  CA        61.9640   19.4200   18.0810 C.3   357  LEU357      0.1596
    180  C         63.4170   18.9760   18.1840 C.2   357  LEU357      0.2287
    181  O         64.1450   19.5070   19.0320 O.2   357  LEU357     -0.2864
    182  CB        61.1890   18.9350   19.3060 C.3   357  LEU357      0.0297
    183  CG        59.7400   19.4370   19.3290 C.3   357  LEU357      0.0022
    184  CD1       58.9850   18.8860   20.5280 C.3   357  LEU357      0.0001
    185  CD2       59.6920   20.9540   19.3080 C.3   357  LEU357      0.0001
    186  N         58.1490   26.6860    6.5520 N.3   367  GLU367     -0.1245
    187  CA        56.7100   26.6830    6.7970 C.3   367  GLU367      0.1567
    188  C         56.4140   25.6960    7.9200 C.2   367  GLU367      0.2260
    189  O         57.0810   24.6620    8.0400 O.2   367  GLU367     -0.2867
    190  CB        55.9440   26.3070    5.5110 C.3   367  GLU367      0.0388
    191  CG        54.4390   26.0910    5.6560 C.3   367  GLU367      0.1160
    192  CD        54.0700   24.6470    5.9760 C.2   367  GLU367      0.3649
    193  OE1       52.8680   24.3530    6.0600 O.co2 367  GLU367     -0.2457
    194  OE2       54.9750   23.8020    6.1500 O.co2 367  GLU367     -0.2457
    195  N         52.9860   23.8530    9.7930 N.3   369  ASN369     -0.1240
    196  CA        51.5530   23.6010    9.9420 C.3   369  ASN369      0.1653
    197  C         51.4020   22.4130   10.8890 C.2   369  ASN369      0.2266
    198  O         51.2100   21.2710   10.4500 O.2   369  ASN369     -0.2867
    199  CB        50.9170   23.3470    8.5740 C.3   369  ASN369      0.1155
    200  CG        49.4400   23.0660    8.6530 C.2   369  ASN369      0.2627
    201  OD1       48.7830   23.3630    9.6530 O.2   369  ASN369     -0.2716
    202  ND2       48.9010   22.4940    7.5900 N.am  369  ASN369     -0.0877
    203  N         50.3240   19.5290   13.7270 N.3   371  PRO371     -0.2116
    204  CA        49.0930   18.8510   14.1460 C.3   371  PRO371      0.1372
    205  C         48.5110   19.5290   15.3720 C.2   371  PRO371      0.2244
    206  O         49.1900   20.2690   16.0910 O.2   371  PRO371     -0.2868
    207  CB        49.5510   17.4210   14.4530 C.3   371  PRO371      0.0268
    208  CG        51.0380   17.5230   14.6820 C.3   371  PRO371      0.0207
    209  CD        51.5230   18.6840   13.8770 C.3   371  PRO371      0.0892
    210  N         52.5190   19.8170   21.8770 N.3   376  LEU376     -0.1245
    211  CA        53.5000   19.9020   20.8040 C.3   376  LEU376      0.1561
    212  C         53.6290   21.3320   20.2890 C.2   376  LEU376      0.2260
    213  O         54.7400   21.8070   20.0240 O.2   376  LEU376     -0.2867
    214  CB        53.1190   18.9460   19.6790 C.3   376  LEU376      0.0270
    215  CG        53.9830   18.9700   18.4200 C.3   376  LEU376      0.0019
    216  CD1       55.4560   18.7260   18.7370 C.3   376  LEU376      0.0001
    217  CD2       53.4740   17.9280   17.4190 C.3   376  LEU376      0.0001
@<TRIPOS>BOND
     1    78    79    2
     2    78    77    1
     3    76    77    1
     4    80    77    1
     5    80    81    1
     6    81    83   ar
     7    81    82   ar
     8    83    85   ar
     9    71    70    2
    10    70    69    1
    11    82    84   ar
    12    85    86   ar
    13   127   126    2
    14   126   125    1
    15    84    86   ar
    16    95    93   ar
    17   125   124    1
    18   125   128    1
    19    69    72    1
    20    69    68    1
    21    72    73    1
    22    67    66    1
    23    93    94   ar
    24    93    92    1
    25    68    64   am
    26   128   129    1
    27    66    63    1
    28   121   120    2
    29    64    65    2
    30    64    63    1
    31    92    91    1
    32    73    74    1
    33    73    75    1
    34   120   119    1
    35    63    62    1
    36   130   129    2
    37   129   131   am
    38    87    88    1
    39    91    88    1
    40   123   122    1
    41   190   191    1
    42   190   187    1
    43   191   192    1
    44    62    60   am
    45   192   193   ar
    46   192   194   ar
    47    88    89    1
    48   117   114    1
    49   119   118    1
    50   119   122    1
    51   118   115   am
    52   186   187    1
    53   187   188    1
    54    60    61    2
    55    60    59    1
    56   114   115    1
    57   114   113    1
    58    89    90    2
    59    89    96   am
    60   115   116    2
    61   202   200   am
    62    25    27   ar
    63    25    23   ar
    64   188   189    2
    65    22    23    1
    66    22    19    1
    67    27    28   ar
    68    59    58    1
    69   132   133    1
    70   105   104    2
    71    23    24   ar
    72    47    45   ar
    73    47    48   ar
    74    96    97    1
    75   113   104   am
    76   199   200    1
    77   199   196    1
    78   200   201    2
    79    28    29    1
    80    28    26   ar
    81    24    26   ar
    82   104   103    1
    83   135   134    2
    84    45    43   ar
    85   142   143    1
    86   142   139    1
    87    48    46   ar
    88    18    19    1
    89    19    20    1
    90    57    55   am
    91    20    21    2
    92   133   134    1
    93   133   136    1
    94    58    51   am
    95   134   138   am
    96    52    51    2
    97   102   103    1
    98   102    98   am
    99   195   196    1
   100    97    98    1
   101    97   100    1
   102   196   197    1
   103    51    50    1
   104   103   106    1
   105    54    55    1
   106    54    53    1
   107   138   139    1
   108    98    99    2
   109    43    42    1
   110    43    44   ar
   111    55    56    2
   112   139   140    1
   113   198   197    2
   114   152   151    2
   115   101   100    1
   116    46    44   ar
   117   136   137    1
   118    42    39    1
   119    53    50    1
   120   106   107    1
   121    50    49    1
   122   151   150    1
   123   140   144   am
   124   140   141    2
   125   156   158   ar
   126   156   154   ar
   127   153   150    1
   128   153   154    1
   129   144   145    1
   130   158   159   ar
   131   107   109   ar
   132   107   108   ar
   133   149   150    1
   134   149   146   am
   135   154   155   ar
   136    39    38    1
   137    39    40    1
   138   109   111   ar
   139    38    32   am
   140    40    41    2
   141    34    35    1
   142    34    31    1
   143    30    31    1
   144   175   173   ar
   145   175   177   ar
   146   173   172   ar
   147   145   146    1
   148   145   148    1
   149   108   110   ar
   150   146   147    2
   151    35    36    1
   152   111   112   ar
   153   160   161    1
   154   160   166    1
   155   159   157   ar
   156    32    31    1
   157    32    33    2
   158   203   209    1
   159   203   204    1
   160   155   157   ar
   161   209   208    1
   162   204   207    1
   163   204   205    1
   164   177   176   ar
   165   172   171    1
   166   172   174   ar
   167   171   168    1
   168   161   162    1
   169   161   164    1
   170   168   167    1
   171   168   169    1
   172   207   208    1
   173   167   162   am
   174   166   165    1
   175   162   163    2
   176   110   112   ar
   177    36    37    1
   178   176   174   ar
   179   205   206    2
   180   170   169    2
   181   169   178   am
   182   164   165    1
   183   178   179    1
   184     8     6    1
   185     7     6    1
   186   217   215    1
   187     6     5    1
   188   179   180    1
   189   179   182    1
   190   180   181    2
   191   215   216    1
   192   215   214    1
   193     5     2    1
   194   182   183    1
   195   185   183    1
   196   183   184    1
   197   214   211    1
   198     2     1    1
   199     2     3    1
   200   213   212    2
   201   212   211    1
   202    14    15    1
   203    14    13    1
   204    16    15    1
   205    16    17    1
   206    13    10    1
   207   211   210    1
   208     3     4    2
   209    10    11    1
   210    10     9    1
   211    12    11    2
