@<TRIPOS>MOLECULE
tmp/6irzA01.pdb
 116 113 0 0 0
SMALL
GASTEIGER

@<TRIPOS>ATOM
      1  N         46.1380   12.0410   19.6130 N.3    62  ARG62      -0.1245
      2  CA        46.7250   13.2090   20.2700 C.3    62  ARG62       0.1563
      3  C         47.5910   12.8170   21.4690 C.2    62  ARG62       0.2260
      4  O         48.5490   13.5240   21.8170 O.2    62  ARG62      -0.2867
      5  CB        45.6230   14.1600   20.7230 C.3    62  ARG62       0.0307
      6  CG        45.9340   15.6100   20.4300 C.3    62  ARG62       0.0489
      7  CD        44.7640   16.5170   20.8260 C.3    62  ARG62       0.2205
      8  NE        43.4580   15.8670   20.6710 N.pl3  62  ARG62      -0.0865
      9  CZ        42.5310   16.2080   19.7840 C.cat  62  ARG62       0.5346
     10  NH1       42.7620   17.1930   18.9270 N.pl3  62  ARG62       0.1354
     11  NH2       41.3700   15.5570   19.7500 N.pl3  62  ARG62       0.1354
     12  N         42.6020   15.9110   30.0570 N.3    92  ARG92      -0.1231
     13  CA        41.7160   16.9460   29.5270 C.3    92  ARG92       0.1694
     14  C         40.5430   16.3830   28.7470 C.2    92  ARG92       0.2591
     15  O         39.3920   16.8120   28.9070 O.2    92  ARG92      -0.2718
     16  CB        42.4960   17.8290   28.5390 C.3    92  ARG92       0.0321
     17  CG        42.9910   19.1160   29.0520 C.3    92  ARG92       0.0489
     18  CD        43.1470   20.0890   27.9090 C.3    92  ARG92       0.2205
     19  NE        43.7900   19.5230   26.7260 N.pl3  92  ARG92      -0.0865
     20  CZ        45.1100   19.3970   26.5660 C.cat  92  ARG92       0.5346
     21  NH1       45.9460   19.7690   27.5340 N.pl3  92  ARG92       0.1354
     22  NH2       45.5990   18.8840   25.4380 N.pl3  92  ARG92       0.1354
     23  N         40.8560   15.5090   27.7950 N.am   93  GLU93      -0.1979
     24  CA        39.8530   15.0970   26.8220 C.3    93  GLU93       0.1602
     25  C         38.8470   14.1370   27.4400 C.2    93  GLU93       0.2287
     26  O         37.6470   14.2320   27.1640 O.2    93  GLU93      -0.2864
     27  CB        40.5340   14.4830   25.5970 C.3    93  GLU93       0.0415
     28  CG        41.2210   15.5710   24.7670 C.3    93  GLU93       0.1163
     29  CD        41.7380   15.0840   23.4130 C.2    93  GLU93       0.3649
     30  OE1       40.9120   14.7220   22.5470 O.co2  93  GLU93      -0.2457
     31  OE2       42.9730   15.0710   23.2360 O.co2  93  GLU93      -0.2457
     32  N         36.4170   16.1010   29.6400 N.3    96  ASN96      -0.1240
     33  CA        35.4230   16.8650   28.8930 C.3    96  ASN96       0.1653
     34  C         34.2240   16.0130   28.4790 C.2    96  ASN96       0.2266
     35  O         33.1620   16.5670   28.2050 O.2    96  ASN96      -0.2867
     36  CB        36.0770   17.5030   27.6560 C.3    96  ASN96       0.1155
     37  CG        35.1740   18.5570   26.9770 C.2    96  ASN96       0.2627
     38  OD1       34.5730   19.4140   27.6440 O.2    96  ASN96      -0.2716
     39  ND2       35.0800   18.4890   25.6430 N.am   96  ASN96      -0.0877
     40  N         41.5900   14.6540   11.1760 N.3   304  GLY304     -0.1225
     41  CA        40.9170   15.5250   12.1280 C.3   304  GLY304      0.1811
     42  C         41.8790   16.1040   13.1500 C.2   304  GLY304      0.2280
     43  O         41.5020   16.8480   14.0620 O.2   304  GLY304     -0.2866
     44  N         47.5320   19.3240   15.5160 N.3   372  PHE372     -0.1241
     45  CA        46.7680   20.0300   16.5470 C.3   372  PHE372      0.1605
     46  C         46.9600   19.3660   17.9070 C.2   372  PHE372      0.2264
     47  O         46.0480   18.7600   18.4790 O.2   372  PHE372     -0.2867
     48  CB        45.2890   20.0910   16.1760 C.3   372  PHE372      0.0534
     49  CG        45.0370   20.6100   14.7790 C.ar  372  PHE372     -0.0203
     50  CD1       45.9200   21.5010   14.1940 C.ar  372  PHE372     -0.0042
     51  CD2       43.9080   20.2150   14.0680 C.ar  372  PHE372     -0.0042
     52  CE1       45.7040   21.9760   12.9020 C.ar  372  PHE372     -0.0003
     53  CE2       43.6680   20.6970   12.7970 C.ar  372  PHE372     -0.0003
     54  CZ        44.5710   21.5800   12.2050 C.ar  372  PHE372     -0.0000
     55  N         48.4160   20.6750   21.5960 N.3   374  GLU374     -0.1245
     56  CA        48.8290   21.8960   22.2820 C.3   374  GLU374      0.1567
     57  C         50.2390   21.7820   22.8440 C.2   374  GLU374      0.2260
     58  O         50.9990   22.7530   22.8030 O.2   374  GLU374     -0.2867
     59  CB        47.8510   22.2440   23.3950 C.3   374  GLU374      0.0388
     60  CG        46.5120   22.7920   22.9270 C.3   374  GLU374      0.1160
     61  CD        45.7280   23.3420   24.0980 C.2   374  GLU374      0.3649
     62  OE1       46.0180   24.4750   24.5300 O.co2 374  GLU374     -0.2457
     63  OE2       44.8490   22.6370   24.6190 O.co2 374  GLU374     -0.2457
     64  N         42.8850   29.5580   17.9910 N.3   404  TRP404     -0.1241
     65  CA        42.2290   29.1300   19.2220 C.3   404  TRP404      0.1605
     66  C         42.2740   30.2710   20.2340 C.2   404  TRP404      0.2264
     67  O         43.3460   30.6130   20.7430 O.2   404  TRP404     -0.2867
     68  CB        42.9150   27.8850   19.7740 C.3   404  TRP404      0.0550
     69  CG        42.6010   26.6120   19.0350 C.ar  404  TRP404      0.0003
     70  CD1       41.5140   26.3660   18.2410 C.ar  404  TRP404      0.0946
     71  CD2       43.3680   25.4030   19.0470 C.ar  404  TRP404      0.0152
     72  NE1       41.5630   25.0810   17.7560 N.ar  404  TRP404     -0.2442
     73  CE2       42.6930   24.4700   18.2310 C.ar  404  TRP404      0.0810
     74  CE3       44.5710   25.0200   19.6550 C.ar  404  TRP404      0.0012
     75  CZ2       43.1860   23.1780   18.0070 C.ar  404  TRP404      0.0191
     76  CZ3       45.0550   23.7300   19.4330 C.ar  404  TRP404      0.0001
     77  CH2       44.3610   22.8300   18.6180 C.ar  404  TRP404      0.0015
     78  N         39.4000   30.6300   22.7550 N.3   406  ASP406     -0.1225
     79  CA        38.4920   30.3500   23.8680 C.3   406  ASP406      0.1790
     80  C         38.6750   28.9060   24.3190 C.2   406  ASP406      0.2440
     81  O         37.9090   28.0200   23.9220 O.2   406  ASP406     -0.2733
     82  CB        37.0410   30.6220   23.4680 C.3   406  ASP406      0.1423
     83  CG        36.0600   30.4360   24.6260 C.2   406  ASP406      0.3668
     84  OD1       35.9680   31.3340   25.4940 O.co2 406  ASP406     -0.2456
     85  OD2       35.3730   29.3900   24.6710 O.co2 406  ASP406     -0.2456
     86  N         39.6950   28.6240   25.1460 N.am  407  PRO407     -0.2718
     87  CA        40.7450   29.5240   25.6330 C.3   407  PRO407      0.1520
     88  C         41.8840   29.6580   24.6160 C.2   407  PRO407      0.2440
     89  O         41.9240   28.9080   23.6340 O.2   407  PRO407     -0.2731
     90  CB        41.2230   28.8220   26.9030 C.3   407  PRO407      0.0310
     91  CG        41.0990   27.3770   26.5550 C.3   407  PRO407      0.0237
     92  CD        39.8640   27.2620   25.6830 C.3   407  PRO407      0.0939
     93  N         42.7990   30.6000   24.8270 N.am  408  PRO408     -0.2716
     94  CA        43.9610   30.6850   23.9380 C.3   408  PRO408      0.1536
     95  C         44.9410   29.5560   24.2210 C.2   408  PRO408      0.2599
     96  O         45.0050   29.0180   25.3300 O.2   408  PRO408     -0.2715
     97  CB        44.5640   32.0540   24.2730 C.3   408  PRO408      0.0310
     98  CG        44.1760   32.2800   25.6950 C.3   408  PRO408      0.0237
     99  CD        42.8180   31.6470   25.8670 C.3   408  PRO408      0.0939
    100  N         45.6980   29.1780   23.1880 N.am  409  THR409     -0.1951
    101  CA        46.6990   28.1710   23.5000 C.3   409  THR409      0.1897
    102  C         48.0340   28.8400   23.8150 C.2   409  THR409      0.2313
    103  O         48.3620   29.8830   23.2450 O.2   409  THR409     -0.2863
    104  CB        46.8530   27.1880   22.3310 C.3   409  THR409      0.1794
    105  OG1       47.5780   26.0290   22.7620 O.3   409  THR409     -0.2208
    106  CG2       47.5600   27.8310   21.1270 C.3   409  THR409      0.0378
    107  N         36.9610   27.6530   12.3420 N.3   436  HIS436     -0.1241
    108  CA        37.8130   28.4860   13.1910 C.3   436  HIS436      0.1621
    109  C         38.4560   29.6870   12.4770 C.2   436  HIS436      0.2264
    110  O         37.9780   30.8210   12.6010 O.2   436  HIS436     -0.2867
    111  CB        38.9120   27.6330   13.8330 C.3   436  HIS436      0.0745
    112  CG        38.6540   27.3170   15.2710 C.ar  436  HIS436      0.0817
    113  ND1       38.1120   26.1190   15.6860 N.ar  436  HIS436     -0.2268
    114  CD2       38.8240   28.0610   16.3900 C.ar  436  HIS436      0.1154
    115  CE1       37.9770   26.1310   17.0010 C.ar  436  HIS436      0.1986
    116  NE2       38.4000   27.2980   17.4520 N.ar  436  HIS436     -0.2212
@<TRIPOS>BOND
     1    40    41    1
     2    41    42    1
     3    54    53   ar
     4    54    52   ar
     5   107   108    1
     6   109   110    2
     7   109   108    1
     8    53    51   ar
     9    52    50   ar
    10    42    43    2
    11   108   111    1
    12   111   112    1
    13    51    49   ar
    14    50    49   ar
    15    49    48    1
    16   112   113   ar
    17   112   114   ar
    18    44    45    1
    19   113   115   ar
    20    48    45    1
    21   114   116   ar
    22    45    46    1
    23   115   116   ar
    24    72    73   ar
    25    72    70   ar
    26    46    47    2
    27    64    65    1
    28    75    73   ar
    29    75    77   ar
    30    73    71   ar
    31    70    69   ar
    32    77    76   ar
    33    10     9    1
    34    69    71   ar
    35    69    68    1
    36    71    74   ar
    37    65    68    1
    38    65    66    1
    39    76    74   ar
    40     1     2    1
    41    11     9    1
    42     9     8    2
    43    66    67    2
    44     2     5    1
    45     2     3    1
    46     6     5    1
    47     6     7    1
    48     8     7    1
    49   106   104    1
    50     3     4    2
    51    55    56    1
    52    56    57    1
    53    56    59    1
    54   104   105    1
    55   104   101    1
    56    30    29   ar
    57    78    79    1
    58    58    57    2
    59    60    59    1
    60    60    61    1
    61   100   101    1
    62   100    95   am
    63    31    29   ar
    64   103   102    2
    65    29    28    1
    66    82    79    1
    67    82    83    1
    68   101   102    1
    69    89    88    2
    70    79    80    1
    71    81    80    2
    72    94    95    1
    73    94    97    1
    74    94    93    1
    75    61    62   ar
    76    61    63   ar
    77    95    96    2
    78    97    98    1
    79    80    86   am
    80    88    93   am
    81    88    87    1
    82    83    85   ar
    83    83    84   ar
    84    28    27    1
    85    93    99    1
    86    86    87    1
    87    86    92    1
    88    22    20    1
    89    27    24    1
    90    87    90    1
    91    39    37   am
    92    92    91    1
    93    98    99    1
    94    91    90    1
    95    20    19    2
    96    20    21    1
    97    19    18    1
    98    24    25    1
    99    24    23    1
   100    37    38    2
   101    37    36    1
   102    26    25    2
   103    36    33    1
   104    23    14   am
   105    18    17    1
   106    35    34    2
   107    34    33    1
   108    16    17    1
   109    16    13    1
   110    14    15    2
   111    14    13    1
   112    33    32    1
   113    13    12    1
