@<TRIPOS>MOLECULE
tmp/6is0A00.pdb
 98 95 0 0 0
SMALL
GASTEIGER

@<TRIPOS>ATOM
      1  N         52.4200   20.0300  -10.1610 N.3     1  VAL1       -0.1231
      2  CA        53.3640   19.0980   -9.5580 C.3     1  VAL1        0.1692
      3  C         53.1520   19.0670   -8.0500 C.2     1  VAL1        0.2592
      4  O         52.5660   19.9930   -7.4830 O.2     1  VAL1       -0.2718
      5  CB        54.8210   19.4600   -9.9050 C.3     1  VAL1        0.0266
      6  CG1       54.9540   19.7550  -11.3930 C.3     1  VAL1        0.0020
      7  CG2       55.3080   20.6410   -9.0690 C.3     1  VAL1        0.0020
      8  N         53.6200   17.9950   -7.4130 N.am    2  TYR2       -0.1976
      9  CA        53.4220   17.7750   -5.9860 C.3     2  TYR2        0.1639
     10  C         54.6660   18.0260   -5.1440 C.2     2  TYR2        0.2290
     11  O         54.5580   18.0830   -3.9120 O.2     2  TYR2       -0.2864
     12  CB        52.9500   16.3420   -5.7350 C.3     2  TYR2        0.0560
     13  CG        51.6970   15.9240   -6.4750 C.ar    2  TYR2       -0.0198
     14  CD1       50.4370   16.1560   -5.9340 C.ar    2  TYR2       -0.0009
     15  CD2       51.7760   15.2720   -7.6980 C.ar    2  TYR2       -0.0009
     16  CE1       49.2850   15.7640   -6.6010 C.ar    2  TYR2        0.0417
     17  CE2       50.6290   14.8770   -8.3750 C.ar    2  TYR2        0.0417
     18  CZ        49.3880   15.1230   -7.8150 C.ar    2  TYR2        0.1957
     19  OH        48.2500   14.7280   -8.4770 O.3     2  TYR2       -0.2866
     20  N         46.6460    2.0270  -10.4240 N.3   250  ASP250     -0.1239
     21  CA        47.6370    3.0340  -10.0300 C.3   250  ASP250      0.1674
     22  C         47.8500    3.0960   -8.5180 C.2   250  ASP250      0.2266
     23  O         48.2460    4.1300   -7.9670 O.2   250  ASP250     -0.2867
     24  CB        47.2670    4.4080  -10.5880 C.3   250  ASP250      0.1410
     25  CG        47.3490    4.4430  -12.0930 C.2   250  ASP250      0.3668
     26  OD1       48.2870    3.8210  -12.6360 O.co2 250  ASP250     -0.2456
     27  OD2       46.4720    5.0610  -12.7330 O.co2 250  ASP250     -0.2456
     28  N         50.7570    5.2250   -6.8290 N.3   265  ARG265     -0.1245
     29  CA        51.8670    5.0960   -7.7670 C.3   265  ARG265      0.1563
     30  C         52.7230    6.3560   -7.7730 C.2   265  ARG265      0.2260
     31  O         53.9590    6.2790   -7.7990 O.2   265  ARG265     -0.2867
     32  CB        51.3410    4.7980   -9.1720 C.3   265  ARG265      0.0307
     33  CG        52.4460    4.5920  -10.1940 C.3   265  ARG265      0.0489
     34  CD        51.9460    4.5760  -11.6290 C.3   265  ARG265      0.2205
     35  NE        51.0080    3.4940  -11.9310 N.pl3 265  ARG265     -0.0865
     36  CZ        51.3720    2.2430  -12.2030 C.cat 265  ARG265      0.5346
     37  NH1       52.6630    1.9080  -12.1990 N.pl3 265  ARG265      0.1354
     38  NH2       50.4500    1.3240  -12.4800 N.pl3 265  ARG265      0.1354
     39  N         56.7480    6.3360   -7.0360 N.3   269  ASN269     -0.1240
     40  CA        57.7840    6.8790   -7.9140 C.3   269  ASN269      0.1653
     41  C         58.6010    7.9580   -7.2060 C.2   269  ASN269      0.2266
     42  O         59.8210    8.0510   -7.3970 O.2   269  ASN269     -0.2867
     43  CB        57.1500    7.4380   -9.1910 C.3   269  ASN269      0.1155
     44  CG        56.5400    6.3470  -10.0590 C.2   269  ASN269      0.2627
     45  OD1       56.8940    5.1750   -9.9300 O.2   269  ASN269     -0.2716
     46  ND2       55.6200    6.7270  -10.9390 N.am  269  ASN269     -0.0877
     47  N         51.3180   23.6190   -3.0750 N.3   310  VAL310     -0.1231
     48  CA        52.5530   23.7040   -3.8620 C.3   310  VAL310      0.1678
     49  C         52.8810   25.1350   -4.2650 C.2   310  VAL310      0.2434
     50  O         54.0610   25.5170   -4.1980 O.2   310  VAL310     -0.2733
     51  CB        52.4830   22.7390   -5.0540 C.3   310  VAL310      0.0265
     52  CG1       53.5480   23.0710   -6.0900 C.3   310  VAL310      0.0020
     53  CG2       52.6370   21.3030   -4.5580 C.3   310  VAL310      0.0020
     54  N         51.9290   25.9760   -4.6910 N.am  311  PRO311     -0.2729
     55  CA        52.2960   27.3690   -4.9980 C.3   311  PRO311      0.1401
     56  C         52.9080   28.1170   -3.8210 C.2   311  PRO311      0.2269
     57  O         53.7160   29.0290   -4.0390 O.2   311  PRO311     -0.2865
     58  CB        50.9630   27.9940   -5.4380 C.3   311  PRO311      0.0296
     59  CG        50.2230   26.8600   -6.0550 C.3   311  PRO311      0.0237
     60  CD        50.5860   25.6480   -5.2180 C.3   311  PRO311      0.0939
     61  N         44.3780   21.2000   -2.0410 N.3   432  GLU432     -0.1231
     62  CA        44.7170   20.2900   -3.1250 C.3   432  GLU432      0.1699
     63  C         44.1290   18.8990   -2.8950 C.2   432  GLU432      0.2592
     64  O         44.0300   18.4240   -1.7590 O.2   432  GLU432     -0.2718
     65  CB        46.2410   20.2040   -3.2740 C.3   432  GLU432      0.0402
     66  CG        46.8860   21.5310   -3.6660 C.3   432  GLU432      0.1161
     67  CD        48.4080   21.4820   -3.6800 C.2   432  GLU432      0.3649
     68  OE1       48.9840   20.4590   -3.2400 O.co2 432  GLU432     -0.2457
     69  OE2       49.0230   22.4750   -4.1270 O.co2 432  GLU432     -0.2457
     70  N         43.7410   18.2510   -3.9930 N.am  433  TYR433     -0.1962
     71  CA        43.2360   16.8850   -3.9770 C.3   433  TYR433      0.1771
     72  C         44.3890   15.9030   -4.1470 C.2   433  TYR433      0.2619
     73  O         45.3400   16.1660   -4.8890 O.2   433  TYR433     -0.2715
     74  CB        42.2070   16.6900   -5.0950 C.3   433  TYR433      0.0574
     75  CG        41.6920   15.2780   -5.2730 C.ar  433  TYR433     -0.0198
     76  CD1       40.8400   14.7030   -4.3400 C.ar  433  TYR433     -0.0009
     77  CD2       42.0260   14.5330   -6.4000 C.ar  433  TYR433     -0.0009
     78  CE1       40.3540   13.4190   -4.5120 C.ar  433  TYR433      0.0417
     79  CE2       41.5480   13.2470   -6.5780 C.ar  433  TYR433      0.0417
     80  CZ        40.7130   12.6930   -5.6310 C.ar  433  TYR433      0.1957
     81  OH        40.2260   11.4130   -5.8080 O.3   433  TYR433     -0.2866
     82  N         44.3010   14.7690   -3.4550 N.am  434  ARG434     -0.1963
     83  CA        45.3330   13.7370   -3.4970 C.3   434  ARG434      0.1729
     84  C         44.7080   12.4220   -3.9460 C.2   434  ARG434      0.2616
     85  O         43.9610   11.7950   -3.1870 O.2   434  ARG434     -0.2715
     86  CB        46.0060   13.5900   -2.1360 C.3   434  ARG434      0.0348
     87  CG        46.9010   14.7570   -1.7760 C.3   434  ARG434      0.0492
     88  CD        48.1160   14.8050   -2.6880 C.3   434  ARG434      0.2205
     89  NE        49.0600   15.8500   -2.3010 N.pl3 434  ARG434     -0.0865
     90  CZ        49.0890   17.0640   -2.8410 C.cat 434  ARG434      0.5346
     91  NH1       48.2240   17.3820   -3.7970 N.pl3 434  ARG434      0.1354
     92  NH2       49.9810   17.9570   -2.4300 N.pl3 434  ARG434      0.1354
     93  N         45.0150   12.0070   -5.1720 N.am  435  SER435     -0.1950
     94  CA        44.5230   10.7400   -5.7030 C.3   435  SER435      0.1924
     95  C         45.3680    9.5720   -5.2050 C.2   435  SER435      0.2314
     96  O         44.8480    8.4970   -4.9120 O.2   435  SER435     -0.2863
     97  CB        44.5140   10.7680   -7.2320 C.3   435  SER435      0.2116
     98  OG        45.8110   11.0330   -7.7380 O.3   435  SER435     -0.2180
@<TRIPOS>BOND
     1    27    25   ar
     2    26    25   ar
     3    38    36    1
     4    36    37    1
     5    36    35    2
     6    25    24    1
     7    35    34    1
     8    34    33    1
     9     6     5    1
    10    46    44   am
    11    24    21    1
    12    20    21    1
    13    33    32    1
    14     1     2    1
    15    44    45    2
    16    44    43    1
    17    21    22    1
    18     5     2    1
    19     5     7    1
    20     2     3    1
    21    43    40    1
    22    32    29    1
    23    22    23    2
    24    19    18    1
    25    17    18   ar
    26    17    15   ar
    27     3     4    2
    28     3     8   am
    29    40    41    1
    30    40    39    1
    31    18    16   ar
    32    31    30    2
    33    30    29    1
    34    29    28    1
    35    98    97    1
    36    15    13   ar
    37     8     9    1
    38    42    41    2
    39    97    94    1
    40    16    14   ar
    41    79    77   ar
    42    79    80   ar
    43    13    14   ar
    44    13    12    1
    45    77    75   ar
    46    52    51    1
    47    59    58    1
    48    59    60    1
    49     9    12    1
    50     9    10    1
    51    81    80    1
    52    94    95    1
    53    94    93    1
    54    80    78   ar
    55    58    55    1
    56    75    74    1
    57    75    76   ar
    58    60    54    1
    59    95    96    2
    60    93    84   am
    61    10    11    2
    62    74    71    1
    63    51    53    1
    64    51    48    1
    65    55    54    1
    66    55    56    1
    67    73    72    2
    68    54    49   am
    69    78    76   ar
    70    49    50    2
    71    49    48    1
    72    72    71    1
    73    72    82   am
    74    69    67   ar
    75    57    56    2
    76    70    71    1
    77    70    63   am
    78    84    83    1
    79    84    85    2
    80    48    47    1
    81    91    90    1
    82    67    66    1
    83    67    68   ar
    84    66    65    1
    85    83    82    1
    86    83    86    1
    87    65    62    1
    88    62    63    1
    89    62    61    1
    90    63    64    2
    91    90    92    1
    92    90    89    2
    93    88    89    1
    94    88    87    1
    95    86    87    1
