@<TRIPOS>MOLECULE
tmp/6is0A03.pdb
 99 97 0 0 0
SMALL
GASTEIGER

@<TRIPOS>ATOM
      1  N         78.9230   18.2690   10.8270 N.3    15  GLU15      -0.1231
      2  CA        78.8930   16.8780   10.3900 C.3    15  GLU15       0.1699
      3  C         78.5890   15.9680   11.5790 C.2    15  GLU15       0.2592
      4  O         78.9990   16.2450   12.7090 O.2    15  GLU15      -0.2718
      5  CB        80.2250   16.4880    9.7410 C.3    15  GLU15       0.0402
      6  CG        81.4280   16.7140   10.6300 C.3    15  GLU15       0.1161
      7  CD        82.7480   16.2860    9.9760 C.2    15  GLU15       0.3649
      8  OE1       82.7400   15.3800    9.1120 O.co2  15  GLU15      -0.2457
      9  OE2       83.7900   16.8710   10.3310 O.co2  15  GLU15      -0.2457
     10  N         77.8630   14.8810   11.3070 N.am   16  ARG16      -0.1966
     11  CA        77.2980   13.9920   12.3200 C.3    16  ARG16       0.1729
     12  C         77.9660   12.6210   12.2890 C.2    16  ARG16       0.2616
     13  O         78.2170   12.0650   11.2140 O.2    16  ARG16      -0.2715
     14  CB        75.7880   13.7700   12.1010 C.3    16  ARG16       0.0348
     15  CG        74.8890   15.0010   11.9930 C.3    16  ARG16       0.0492
     16  CD        73.4350   14.5410   11.7670 C.3    16  ARG16       0.2205
     17  NE        73.4010   13.5550   10.6940 N.pl3  16  ARG16      -0.0865
     18  CZ        72.9500   13.7920    9.4610 C.cat  16  ARG16       0.5346
     19  NH1       72.4560   14.9790    9.1350 N.pl3  16  ARG16       0.1354
     20  NH2       73.0050   12.8410    8.5510 N.pl3  16  ARG16       0.1354
     21  N         78.2290   12.0690   13.4710 N.am   17  ALA17      -0.1964
     22  CA        78.4550   10.6330   13.5760 C.3    17  ALA17       0.1713
     23  C         77.2240    9.8810   13.0720 C.2    17  ALA17       0.2458
     24  O         76.0900   10.3220   13.3050 O.2    17  ALA17      -0.2730
     25  CB        78.7350   10.2310   15.0270 C.3    17  ALA17       0.0333
     26  N         77.3960    8.7440   12.3950 N.am   18  PRO18      -0.2727
     27  CA        76.2220    7.9510   12.0010 C.3    18  PRO18       0.1402
     28  C         75.4320    7.5140   13.2280 C.2    18  PRO18       0.2269
     29  O         76.0050    7.2450   14.2880 O.2    18  PRO18      -0.2865
     30  CB        76.8230    6.7540   11.2570 C.3    18  PRO18       0.0296
     31  CG        78.2540    6.7030   11.6820 C.3    18  PRO18       0.0237
     32  CD        78.6620    8.1200   11.9730 C.3    18  PRO18       0.0939
     33  N         85.7670    9.4810   17.1090 N.3   220  GLU220     -0.1231
     34  CA        85.9690   10.3670   15.9690 C.3   220  GLU220      0.1699
     35  C         85.4540   11.7730   16.2780 C.2   220  GLU220      0.2592
     36  O         84.4430   11.9340   16.9580 O.2   220  GLU220     -0.2718
     37  CB        85.2770    9.8020   14.7290 C.3   220  GLU220      0.0402
     38  CG        85.8710   10.2930   13.4300 C.3   220  GLU220      0.1161
     39  CD        85.6640    9.3210   12.2840 C.2   220  GLU220      0.3649
     40  OE1       84.5610    9.3170   11.6960 O.co2 220  GLU220     -0.2457
     41  OE2       86.6060    8.5570   11.9760 O.co2 220  GLU220     -0.2457
     42  N         86.1610   12.7920   15.7820 N.am  221  VAL221     -0.1966
     43  CA        85.8250   14.1900   16.0370 C.3   221  VAL221      0.1727
     44  C         85.0660   14.7480   14.8420 C.2   221  VAL221      0.2616
     45  O         85.4540   14.5290   13.6880 O.2   221  VAL221     -0.2715
     46  CB        87.0880   15.0230   16.3190 C.3   221  VAL221      0.0290
     47  CG1       86.7170   16.4730   16.5830 C.3   221  VAL221      0.0023
     48  CG2       87.8570   14.4390   17.4960 C.3   221  VAL221      0.0023
     49  N         83.9810   15.4740   15.1180 N.am  222  GLN222     -0.1963
     50  CA        83.1600   16.1190   14.0940 C.3   222  GLN222      0.1733
     51  C         83.3850   17.6230   14.2060 C.2   222  GLN222      0.2616
     52  O         82.8970   18.2610   15.1430 O.2   222  GLN222     -0.2715
     53  CB        81.6910   15.7670   14.2830 C.3   222  GLN222      0.0408
     54  CG        81.4370   14.3040   14.6000 C.3   222  GLN222      0.0908
     55  CD        81.6680   13.3970   13.4140 C.2   222  GLN222      0.2608
     56  OE1       81.6460   13.8390   12.2590 O.2   222  GLN222     -0.2717
     57  NE2       81.8800   12.1120   13.6880 N.am  222  GLN222     -0.0878
     58  N         84.1280   18.1940   13.2550 N.am  223  ASP223     -0.1957
     59  CA        84.6100   19.5610   13.4180 C.3   223  ASP223      0.1840
     60  C         84.4300   20.4280   12.1760 C.2   223  ASP223      0.2621
     61  O         85.0090   21.5190   12.1110 O.2   223  ASP223     -0.2715
     62  CB        86.0860   19.5530   13.8360 C.3   223  ASP223      0.1450
     63  CG        86.9640   18.7380   12.8930 C.2   223  ASP223      0.3671
     64  OD1       86.5530   18.4920   11.7400 O.co2 223  ASP223     -0.2456
     65  OD2       88.0680   18.3340   13.3150 O.co2 223  ASP223     -0.2456
     66  N         83.6660   19.9770   11.1930 N.am  224  ARG224     -0.1977
     67  CA        83.4200   20.7280    9.9740 C.3   224  ARG224      0.1597
     68  C         81.9390   21.0500    9.8540 C.2   224  ARG224      0.2287
     69  O         81.0860   20.2540   10.2570 O.2   224  ARG224     -0.2864
     70  CB        83.8530   19.9310    8.7350 C.3   224  ARG224      0.0334
     71  CG        85.2960   19.4860    8.7240 C.3   224  ARG224      0.0492
     72  CD        85.5400   18.6230    7.4950 C.3   224  ARG224      0.2205
     73  NE        84.6260   17.4850    7.4820 N.pl3 224  ARG224     -0.0865
     74  CZ        84.1310   16.9180    6.3850 C.cat 224  ARG224      0.5346
     75  NH1       84.4550   17.3860    5.1800 N.pl3 224  ARG224      0.1354
     76  NH2       83.3020   15.8850    6.4920 N.pl3 224  ARG224      0.1354
     77  N         72.7580   16.4480    5.0020 N.3   229  TYR229     -0.1241
     78  CA        72.6950   15.1850    4.2820 C.3   229  TYR229      0.1605
     79  C         71.8780   14.2080    5.1140 C.2   229  TYR229      0.2264
     80  O         71.7000   14.4130    6.3210 O.2   229  TYR229     -0.2867
     81  CB        74.1090   14.6500    3.9890 C.3   229  TYR229      0.0534
     82  CG        74.9440   14.4180    5.2360 C.ar  229  TYR229     -0.0201
     83  CD1       75.5860   15.4760    5.8790 C.ar  229  TYR229     -0.0009
     84  CD2       75.0860   13.1420    5.7680 C.ar  229  TYR229     -0.0009
     85  CE1       76.3390   15.2630    7.0290 C.ar  229  TYR229      0.0417
     86  CE2       75.8400   12.9180    6.9130 C.ar  229  TYR229      0.0417
     87  CZ        76.4700   13.9830    7.5330 C.ar  229  TYR229      0.1957
     88  OH        77.2190   13.7440    8.6640 O.3   229  TYR229     -0.2866
     89  N         72.5610    8.7000    8.3020 N.3   232  ARG232     -0.1245
     90  CA        73.1820    7.4160    7.9970 C.3   232  ARG232      0.1563
     91  C         73.1910    6.5530    9.2510 C.2   232  ARG232      0.2260
     92  O         73.3540    7.0680   10.3570 O.2   232  ARG232     -0.2867
     93  CB        74.6290    7.6000    7.5230 C.3   232  ARG232      0.0307
     94  CG        74.8600    8.8030    6.6020 C.3   232  ARG232      0.0489
     95  CD        74.0610    8.7130    5.3290 C.3   232  ARG232      0.2205
     96  NE        74.6920    9.4550    4.2250 N.pl3 232  ARG232     -0.0865
     97  CZ        74.1020    9.6790    3.0560 C.cat 232  ARG232      0.5346
     98  NH1       72.8730    9.2290    2.8440 N.pl3 232  ARG232      0.1354
     99  NH2       74.7370   10.3490    2.1020 N.pl3 232  ARG232      0.1354
@<TRIPOS>BOND
     1    99    97    1
     2    98    97    1
     3    97    96    2
     4    81    78    1
     5    81    82    1
     6    96    95    1
     7    78    77    1
     8    78    79    1
     9    79    80    2
    10    75    74    1
    11    82    84   ar
    12    82    83   ar
    13    95    94    1
    14    84    86   ar
    15    83    85   ar
    16    74    76    1
    17    74    73    2
    18    94    93    1
    19    86    87   ar
    20    85    87   ar
    21    73    72    1
    22    72    71    1
    23    93    90    1
    24    87    88    1
    25    90    89    1
    26    90    91    1
    27    20    18    1
    28    71    70    1
    29    70    67    1
    30     8     7   ar
    31    19    18    1
    32    91    92    2
    33    18    17    2
    34     5     2    1
    35     5     6    1
    36    68    67    1
    37    68    69    2
    38    67    66    1
    39     7     9   ar
    40     7     6    1
    41     2     1    1
    42     2     3    1
    43    17    16    1
    44    66    60   am
    45    13    12    2
    46    30    31    1
    47    30    27    1
    48    10     3   am
    49    10    11    1
    50     3     4    2
    51    31    32    1
    52    40    39   ar
    53    64    63   ar
    54    16    15    1
    55    32    26    1
    56    41    39   ar
    57    15    14    1
    58    27    26    1
    59    27    28    1
    60    14    11    1
    61    61    60    2
    62    60    59    1
    63    56    55    2
    64    39    38    1
    65    12    11    1
    66    12    21   am
    67    26    23   am
    68    63    65   ar
    69    63    62    1
    70    23    24    2
    71    23    22    1
    72    28    29    2
    73    58    59    1
    74    58    51   am
    75    55    57   am
    76    55    54    1
    77    59    62    1
    78    38    37    1
    79    21    22    1
    80    22    25    1
    81    45    44    2
    82    50    51    1
    83    50    53    1
    84    50    49    1
    85    51    52    2
    86    53    54    1
    87    37    34    1
    88    44    49   am
    89    44    43    1
    90    42    43    1
    91    42    35   am
    92    34    35    1
    93    34    33    1
    94    43    46    1
    95    35    36    2
    96    46    47    1
    97    46    48    1
