@<TRIPOS>MOLECULE
tmp/6isdB00.pdb
 179 169 0 0 0
SMALL
GASTEIGER

@<TRIPOS>ATOM
      1  N         20.4160   15.0130  -19.2610 N.3   178  HIS178     -0.1241
      2  CA        20.9430   14.9170  -20.6110 C.3   178  HIS178      0.1621
      3  C         20.2030   13.8180  -21.3450 C.2   178  HIS178      0.2264
      4  O         19.6680   12.9030  -20.7280 O.2   178  HIS178     -0.2867
      5  CB        22.4630   14.6580  -20.6260 C.3   178  HIS178      0.0745
      6  CG        22.8880   13.4700  -19.8210 C.ar  178  HIS178      0.0817
      7  ND1       23.2800   13.5680  -18.5000 N.ar  178  HIS178     -0.2268
      8  CD2       22.9910   12.1580  -20.1460 C.ar  178  HIS178      0.1154
      9  CE1       23.6380   12.3760  -18.0570 C.ar  178  HIS178      0.1986
     10  NE2       23.4570   11.5000  -19.0310 N.ar  178  HIS178     -0.2212
     11  N         20.7710   11.3000  -24.8000 N.3   180  VAL180     -0.1245
     12  CA        21.9410   10.7140  -25.4510 C.3   180  VAL180      0.1561
     13  C         21.4720    9.9550  -26.6780 C.2   180  VAL180      0.2260
     14  O         20.5790    9.1100  -26.5820 O.2   180  VAL180     -0.2867
     15  CB        22.6950    9.7690  -24.4960 C.3   180  VAL180      0.0252
     16  CG1       23.8400    9.0830  -25.2210 C.3   180  VAL180      0.0019
     17  CG2       23.1930   10.5110  -23.2680 C.3   180  VAL180      0.0019
     18  N         32.6970    2.2410  -27.2340 N.3   209  LEU209     -0.1245
     19  CA        32.1080    3.4730  -27.7460 C.3   209  LEU209      0.1561
     20  C         33.1260    4.6040  -27.8260 C.2   209  LEU209      0.2260
     21  O         34.1260    4.6230  -27.1050 O.2   209  LEU209     -0.2867
     22  CB        30.9330    3.9360  -26.8760 C.3   209  LEU209      0.0270
     23  CG        31.1250    4.3990  -25.4360 C.3   209  LEU209      0.0019
     24  CD1       31.1890    5.9220  -25.3570 C.3   209  LEU209      0.0001
     25  CD2       29.9870    3.8700  -24.6030 C.3   209  LEU209      0.0001
     26  N         32.4470    8.7870  -27.5170 N.3   211  SER211     -0.1217
     27  CA        31.3950    9.7240  -27.1620 C.3   211  SER211      0.1889
     28  C         31.9160   11.1550  -27.1930 C.2   211  SER211      0.2288
     29  O         33.1040   11.4070  -26.9960 O.2   211  SER211     -0.2866
     30  CB        30.7930    9.4150  -25.7750 C.3   211  SER211      0.2089
     31  OG        31.7700    9.4500  -24.7520 O.3   211  SER211     -0.2183
     32  N         30.0580   15.1100  -25.9590 N.3   213  VAL213     -0.1245
     33  CA        28.9070   15.8040  -25.4010 C.3   213  VAL213      0.1561
     34  C         28.8250   17.1870  -26.0290 C.2   213  VAL213      0.2260
     35  O         29.8140   17.9330  -26.0280 O.2   213  VAL213     -0.2867
     36  CB        29.0030   15.9080  -23.8700 C.3   213  VAL213      0.0252
     37  CG1       27.7280   16.5160  -23.3050 C.3   213  VAL213      0.0019
     38  CG2       29.3020   14.5440  -23.2630 C.3   213  VAL213      0.0019
     39  N         24.9360   14.4270  -25.2790 N.3   224  PRO224     -0.2116
     40  CA        25.9750   13.4580  -25.6540 C.3   224  PRO224      0.1372
     41  C         25.5990   12.6210  -26.8610 C.2   224  PRO224      0.2244
     42  O         24.4350   12.2640  -27.0620 O.2   224  PRO224     -0.2868
     43  CB        26.0900   12.5660  -24.4170 C.3   224  PRO224      0.0268
     44  CG        25.4710   13.3650  -23.2910 C.3   224  PRO224      0.0207
     45  CD        24.4250   14.2030  -23.9160 C.3   224  PRO224      0.0892
     46  N         26.9920    9.0630  -29.0170 N.3   226  ASN226     -0.1240
     47  CA        27.8270    7.8690  -29.0230 C.3   226  ASN226      0.1653
     48  C         27.9320    7.2670  -30.4130 C.2   226  ASN226      0.2266
     49  O         26.9790    7.2770  -31.1980 O.2   226  ASN226     -0.2867
     50  CB        27.2830    6.7870  -28.1130 C.3   226  ASN226      0.1155
     51  CG        27.2620    7.1910  -26.7060 C.2   226  ASN226      0.2627
     52  OD1       28.1160    7.9330  -26.2570 O.2   226  ASN226     -0.2716
     53  ND2       26.2930    6.6850  -25.9710 N.am  226  ASN226     -0.0877
     54  N         19.3070    7.0590  -27.1540 N.3   249  GLN249     -0.1231
     55  CA        19.7600    5.9260  -26.3620 C.3   249  GLN249      0.1698
     56  C         19.3330    6.0020  -24.9040 C.2   249  GLN249      0.2592
     57  O         18.8100    5.0190  -24.3650 O.2   249  GLN249     -0.2718
     58  CB        21.2780    5.7930  -26.4370 C.3   249  GLN249      0.0381
     59  CG        21.8330    4.5830  -25.6500 C.3   249  GLN249      0.0905
     60  CD        23.0780    4.9460  -24.8490 C.2   249  GLN249      0.2608
     61  OE1       23.1900    6.0550  -24.3170 O.2   249  GLN249     -0.2717
     62  NE2       24.0040    4.0130  -24.7470 N.am  249  GLN249     -0.0878
     63  N         19.5590    7.1220  -24.2300 N.am  250  HIS250     -0.1976
     64  CA        19.0330    7.1990  -22.8770 C.3   250  HIS250      0.1656
     65  C         18.8110    8.6440  -22.4550 C.2   250  HIS250      0.2291
     66  O         19.3520    9.5980  -23.0430 O.2   250  HIS250     -0.2864
     67  CB        19.9250    6.4450  -21.8790 C.3   250  HIS250      0.0771
     68  CG        21.1820    7.1570  -21.4820 C.ar  250  HIS250      0.0820
     69  ND1       22.4010    6.9010  -22.0720 N.ar  250  HIS250     -0.2267
     70  CD2       21.4220    8.0530  -20.4970 C.ar  250  HIS250      0.1154
     71  CE1       23.3300    7.6370  -21.4890 C.ar  250  HIS250      0.1986
     72  NE2       22.7620    8.3430  -20.5280 N.ar  250  HIS250     -0.2212
     73  N         19.9750   -2.5250  -13.9850 N.3   277  MET277     -0.1245
     74  CA        21.1510   -3.2870  -14.3420 C.3   277  MET277      0.1570
     75  C         21.7250   -3.9330  -13.0870 C.2   277  MET277      0.2261
     76  O         21.6320   -3.3640  -11.9930 O.2   277  MET277     -0.2867
     77  CB        22.1890   -2.3860  -14.9960 C.3   277  MET277      0.0387
     78  CG        21.7090   -1.7540  -16.2870 C.3   277  MET277      0.0595
     79  SD        21.7030   -2.8880  -17.6870 S.3   277  MET277     -0.1393
     80  CE        22.8900   -2.0700  -18.7560 C.3   277  MET277      0.0692
     81  N         26.2360    3.7450   -8.6090 N.3   310  LEU310     -0.1245
     82  CA        27.5850    4.0380   -9.0580 C.3   310  LEU310      0.1561
     83  C         27.9530    5.4820   -8.7260 C.2   310  LEU310      0.2260
     84  O         27.1010    6.3770   -8.7030 O.2   310  LEU310     -0.2867
     85  CB        27.7050    3.8000  -10.5630 C.3   310  LEU310      0.0270
     86  CG        27.4390    2.3760  -11.0620 C.3   310  LEU310      0.0019
     87  CD1       27.4480    2.2940  -12.5810 C.3   310  LEU310      0.0001
     88  CD2       28.5040    1.4940  -10.5020 C.3   310  LEU310      0.0001
     89  N         24.8200    7.8050   -9.8220 N.3   321  GLN321     -0.1245
     90  CA        24.1570    7.4230  -11.0590 C.3   321  GLN321      0.1566
     91  C         23.8270    5.9330  -11.0440 C.2   321  GLN321      0.2260
     92  O         24.5650    5.1230  -10.4820 O.2   321  GLN321     -0.2867
     93  CB        25.0200    7.7650  -12.2940 C.3   321  GLN321      0.0367
     94  CG        26.3350    6.9660  -12.4280 C.3   321  GLN321      0.0905
     95  CD        27.0970    7.2170  -13.7370 C.2   321  GLN321      0.2608
     96  OE1       28.1680    6.6480  -13.9730 O.2   321  GLN321     -0.2717
     97  NE2       26.5370    8.0470  -14.5920 N.am  321  GLN321     -0.0878
     98  N         21.6730    2.9130  -13.7450 N.3   323  PHE323     -0.1241
     99  CA        21.0610    2.6800  -15.0380 C.3   323  PHE323      0.1605
    100  C         19.9890    1.5970  -14.9540 C.2   323  PHE323      0.2264
    101  O         20.2130    0.4980  -14.4320 O.2   323  PHE323     -0.2867
    102  CB        22.1220    2.3270  -16.0810 C.3   323  PHE323      0.0534
    103  CG        23.0860    3.4360  -16.3300 C.ar  323  PHE323     -0.0203
    104  CD1       22.8010    4.4290  -17.2660 C.ar  323  PHE323     -0.0042
    105  CD2       24.2820    3.5050  -15.6200 C.ar  323  PHE323     -0.0042
    106  CE1       23.7070    5.4740  -17.4960 C.ar  323  PHE323     -0.0003
    107  CE2       25.1820    4.5380  -15.8580 C.ar  323  PHE323     -0.0003
    108  CZ        24.8770    5.5330  -16.7910 C.ar  323  PHE323     -0.0000
    109  N         16.9080    3.2980  -22.6010 N.3   334  PHE334     -0.1241
    110  CA        16.8580    3.0660  -21.1650 C.3   334  PHE334      0.1605
    111  C         16.9720    4.4090  -20.4580 C.2   334  PHE334      0.2264
    112  O         17.1870    5.4320  -21.0920 O.2   334  PHE334     -0.2867
    113  CB        17.9560    2.0920  -20.7190 C.3   334  PHE334      0.0534
    114  CG        19.3520    2.5580  -21.0160 C.ar  334  PHE334     -0.0203
    115  CD1       19.9280    2.3260  -22.2610 C.ar  334  PHE334     -0.0042
    116  CD2       20.1070    3.2070  -20.0270 C.ar  334  PHE334     -0.0042
    117  CE1       21.2240    2.7390  -22.5230 C.ar  334  PHE334     -0.0003
    118  CE2       21.4080    3.6230  -20.2790 C.ar  334  PHE334     -0.0003
    119  CZ        21.9680    3.3960  -21.5290 C.ar  334  PHE334     -0.0000
    120  N         18.4210    6.6610  -16.8380 N.3   336  GLU336     -0.1245
    121  CA        19.4630    6.8110  -15.8340 C.3   336  GLU336      0.1567
    122  C         18.9420    7.7570  -14.7530 C.2   336  GLU336      0.2260
    123  O         18.2420    8.7350  -15.0540 O.2   336  GLU336     -0.2867
    124  CB        20.7470    7.3440  -16.5120 C.3   336  GLU336      0.0388
    125  CG        21.9180    7.7880  -15.6190 C.3   336  GLU336      0.1160
    126  CD        23.0170    8.5320  -16.4180 C.2   336  GLU336      0.3649
    127  OE1       23.9330    9.1510  -15.8250 O.co2 336  GLU336     -0.2457
    128  OE2       22.9760    8.5010  -17.6670 O.co2 336  GLU336     -0.2457
    129  N         29.8790   12.4960  -16.6670 N.3   354  PHE354     -0.1227
    130  CA        28.8560   11.5890  -17.1830 C.3   354  PHE354      0.1736
    131  C         29.1150   10.1280  -16.8420 C.2   354  PHE354      0.2596
    132  O         28.4280    9.2530  -17.3740 O.2   354  PHE354     -0.2718
    133  CB        28.7190   11.7300  -18.7020 C.3   354  PHE354      0.0547
    134  CG        28.2750   13.0870  -19.1190 C.ar  354  PHE354     -0.0202
    135  CD1       29.2050   14.1120  -19.2840 C.ar  354  PHE354     -0.0042
    136  CD2       26.9130   13.3650  -19.3030 C.ar  354  PHE354     -0.0042
    137  CE1       28.8030   15.3570  -19.6410 C.ar  354  PHE354     -0.0003
    138  CE2       26.4970   14.6190  -19.6700 C.ar  354  PHE354     -0.0003
    139  CZ        27.4350   15.6310  -19.8350 C.ar  354  PHE354     -0.0000
    140  N         30.0720    9.8390  -15.9700 N.am  355  GLY355     -0.1942
    141  CA        30.3110    8.4880  -15.5160 C.3   355  GLY355      0.2014
    142  C         31.2840    7.6770  -16.3460 C.2   355  GLY355      0.2638
    143  O         31.4150    6.4700  -16.0980 O.2   355  GLY355     -0.2714
    144  N         31.9750    8.2990  -17.3100 N.am  356  LYS356     -0.1977
    145  CA        32.8930    7.5740  -18.1850 C.3   356  LYS356      0.1596
    146  C         33.9190    6.7730  -17.3940 C.2   356  LYS356      0.2287
    147  O         34.3140    5.6780  -17.8080 O.2   356  LYS356     -0.2864
    148  CB        33.6060    8.5830  -19.1260 C.3   356  LYS356      0.0298
    149  CG        32.6240    9.4760  -19.8220 C.3   356  LYS356      0.0038
    150  CD        33.2510   10.1930  -20.9700 C.3   356  LYS356      0.0206
    151  CE        32.2980   11.2590  -21.4600 C.3   356  LYS356      0.1093
    152  NZ        31.9350   12.1880  -20.3110 N.3   356  LYS356     -0.1314
    153  N         33.5890    5.1200  -14.7370 N.3   358  ASN358     -0.1225
    154  CA        33.0230    3.9320  -14.1140 C.3   358  ASN358      0.1785
    155  C         33.2120    2.6760  -14.9520 C.2   358  ASN358      0.2597
    156  O         33.0350    1.5700  -14.4260 O.2   358  ASN358     -0.2718
    157  CB        31.5380    4.1600  -13.8320 C.3   358  ASN358      0.1169
    158  CG        31.2550    4.3690  -12.3630 C.2   358  ASN358      0.2627
    159  OD1       31.8680    3.7390  -11.5080 O.2   358  ASN358     -0.2716
    160  ND2       30.3310    5.2680  -12.0630 N.am  358  ASN358     -0.0877
    161  N         33.5580    2.8170  -16.2320 N.am  359  PHE359     -0.1976
    162  CA        33.9340    1.6540  -17.0240 C.3   359  PHE359      0.1639
    163  C         35.1500    0.9620  -16.4230 C.2   359  PHE359      0.2290
    164  O         35.1530   -0.2600  -16.2230 O.2   359  PHE359     -0.2864
    165  CB        34.2240    2.0740  -18.4600 C.3   359  PHE359      0.0560
    166  CG        33.0040    2.4380  -19.2440 C.ar  359  PHE359     -0.0200
    167  CD1       32.4580    3.7040  -19.1500 C.ar  359  PHE359     -0.0042
    168  CD2       32.4020    1.5120  -20.0850 C.ar  359  PHE359     -0.0042
    169  CE1       31.3200    4.0410  -19.8740 C.ar  359  PHE359     -0.0003
    170  CE2       31.2760    1.8360  -20.8120 C.ar  359  PHE359     -0.0003
    171  CZ        30.7270    3.1030  -20.7050 C.ar  359  PHE359     -0.0000
    172  N         34.3280   -0.2110  -12.7260 N.3   362  LEU362     -0.1245
    173  CA        33.5620   -1.4520  -12.7260 C.3   362  LEU362      0.1561
    174  C         34.4250   -2.6360  -13.1340 C.2   362  LEU362      0.2260
    175  O         34.3550   -3.7010  -12.5130 O.2   362  LEU362     -0.2867
    176  CB        32.3650   -1.3320  -13.6580 C.3   362  LEU362      0.0270
    177  CG        31.0670   -1.0940  -12.9120 C.3   362  LEU362      0.0019
    178  CD1       29.9790   -0.7040  -13.8990 C.3   362  LEU362      0.0001
    179  CD2       30.7160   -2.3610  -12.1520 C.3   362  LEU362      0.0001
@<TRIPOS>BOND
     1    49    48    2
     2    48    47    1
     3    47    46    1
     4    47    50    1
     5    50    51    1
     6    20    19    1
     7    20    21    2
     8    19    18    1
     9    19    22    1
    10    26    27    1
    11    28    27    1
    12    28    29    2
    13    27    30    1
    14    54    55    1
    15    42    41    2
    16    22    23    1
    17    41    40    1
    18    51    52    2
    19    51    53   am
    20    13    14    2
    21    13    12    1
    22    58    55    1
    23    58    59    1
    24    55    56    1
    25    34    35    2
    26    34    33    1
    27    32    33    1
    28    30    31    1
    29    40    39    1
    30    40    43    1
    31    59    60    1
    32    12    11    1
    33    12    15    1
    34    23    24    1
    35    23    25    1
    36    33    36    1
    37    39    45    1
    38    16    15    1
    39    56    57    2
    40    56    63   am
    41    60    62   am
    42    60    61    2
    43    15    17    1
    44    43    44    1
    45    63    64    1
    46    45    44    1
    47    36    37    1
    48    36    38    1
    49    66    65    2
    50    64    65    1
    51    64    67    1
    52   109   110    1
    53   117   115   ar
    54   117   119   ar
    55   115   114   ar
    56    69    71   ar
    57    69    68   ar
    58    67    68    1
    59   119   118   ar
    60    71    72   ar
    61    68    70   ar
    62   151   150    1
    63   151   152    1
    64     3     4    2
    65     3     2    1
    66   110   113    1
    67   110   111    1
    68   112   111    2
    69   114   113    1
    70   114   116   ar
    71   150   149    1
    72   170   171   ar
    73   170   168   ar
    74   171   169   ar
    75     5     2    1
    76     5     6    1
    77     2     1    1
    78    72    70   ar
    79   118   116   ar
    80     8     6   ar
    81     8    10   ar
    82   168   166   ar
    83   169   167   ar
    84   139   138   ar
    85   139   137   ar
    86   149   148    1
    87     6     7   ar
    88   138   136   ar
    89   137   135   ar
    90   136   134   ar
    91   135   134   ar
    92   166   167   ar
    93   166   165    1
    94   148   145    1
    95   134   133    1
    96    10     9   ar
    97    80    79    1
    98   133   130    1
    99     7     9   ar
   100   165   162    1
   101   145   146    1
   102   145   144    1
   103   147   146    2
   104    79    78    1
   105   128   126   ar
   106   106   104   ar
   107   106   108   ar
   108   132   131    2
   109   144   142   am
   110   104   103   ar
   111   130   131    1
   112   130   129    1
   113   162   163    1
   114   162   161    1
   115   131   140   am
   116   120   121    1
   117   108   107   ar
   118   124   121    1
   119   124   125    1
   120   163   164    2
   121   126   127   ar
   122   126   125    1
   123   142   143    2
   124   142   141    1
   125   103   102    1
   126   103   105   ar
   127    78    77    1
   128   161   155   am
   129   102    99    1
   130   140   141    1
   131   107   105   ar
   132   121   122    1
   133   123   122    2
   134    99   100    1
   135    99    98    1
   136    77    74    1
   137   100   101    2
   138   155   156    2
   139   155   154    1
   140   153   154    1
   141    97    95   am
   142    74    73    1
   143    74    75    1
   144   154   157    1
   145    96    95    2
   146   178   177    1
   147   157   158    1
   148    95    94    1
   149   176   177    1
   150   176   173    1
   151   174   173    1
   152   174   175    2
   153    75    76    2
   154   177   179    1
   155   173   172    1
   156    87    86    1
   157    94    93    1
   158   158   160   am
   159   158   159    2
   160    93    90    1
   161    86    85    1
   162    86    88    1
   163    90    91    1
   164    90    89    1
   165    91    92    2
   166    85    82    1
   167    82    83    1
   168    82    81    1
   169    83    84    2
