@<TRIPOS>MOLECULE
tmp/6itsA00.pdb
 133 127 0 0 0
SMALL
GASTEIGER

@<TRIPOS>ATOM
      1  N        -10.9090   24.6710  -33.6050 N.3    19  TRP19      -0.1241
      2  CA       -11.7730   25.6010  -32.8730 C.3    19  TRP19       0.1605
      3  C        -12.4550   24.9170  -31.6910 C.2    19  TRP19       0.2264
      4  O        -12.4770   25.4460  -30.5680 O.2    19  TRP19      -0.2867
      5  CB       -12.8210   26.1440  -33.8390 C.3    19  TRP19       0.0550
      6  CG       -13.6320   27.2940  -33.3770 C.ar   19  TRP19       0.0003
      7  CD1      -13.5550   27.9340  -32.1780 C.ar   19  TRP19       0.0946
      8  CD2      -14.6640   27.9550  -34.1240 C.ar   19  TRP19       0.0152
      9  NE1      -14.4740   28.9510  -32.1310 N.ar   19  TRP19      -0.2442
     10  CE2      -15.1690   28.9830  -33.3120 C.ar   19  TRP19       0.0810
     11  CE3      -15.2130   27.7680  -35.4000 C.ar   19  TRP19       0.0012
     12  CZ2      -16.1920   29.8280  -33.7300 C.ar   19  TRP19       0.0191
     13  CZ3      -16.2240   28.6090  -35.8130 C.ar   19  TRP19       0.0001
     14  CH2      -16.7020   29.6300  -34.9810 C.ar   19  TRP19       0.0015
     15  N         -9.8610   24.2410  -29.0110 N.3    22  ASN22      -0.1225
     16  CA        -9.4400   25.4460  -28.3090 C.3    22  ASN22       0.1785
     17  C        -10.5090   25.8940  -27.3230 C.2    22  ASN22       0.2597
     18  O        -10.1900   26.3490  -26.2180 O.2    22  ASN22      -0.2718
     19  CB        -9.1120   26.5680  -29.3000 C.3    22  ASN22       0.1169
     20  CG        -7.8960   26.2580  -30.1780 C.2    22  ASN22       0.2627
     21  OD1       -6.9960   25.5070  -29.7860 O.2    22  ASN22      -0.2716
     22  ND2       -7.8700   26.8410  -31.3730 N.am   22  ASN22      -0.0877
     23  N        -11.7850   25.7810  -27.6950 N.am   23  VAL23      -0.1980
     24  CA       -12.8180   26.1920  -26.7440 C.3    23  VAL23       0.1595
     25  C        -12.7790   25.3000  -25.5140 C.2    23  VAL23       0.2287
     26  O        -13.0000   25.7570  -24.3770 O.2    23  VAL23      -0.2864
     27  CB       -14.2130   26.1940  -27.3980 C.3    23  VAL23       0.0276
     28  CG1      -15.3030   26.3340  -26.3280 C.3    23  VAL23       0.0022
     29  CG2      -14.3220   27.3110  -28.4320 C.3    23  VAL23       0.0022
     30  N        -10.1530   23.9670  -24.1870 N.3    25  VAL25      -0.1231
     31  CA        -9.0680   24.4040  -23.3150 C.3    25  VAL25       0.1692
     32  C         -9.4170   25.7280  -22.6380 C.2    25  VAL25       0.2591
     33  O         -9.0130   25.9860  -21.4930 O.2    25  VAL25      -0.2718
     34  CB        -7.7760   24.5240  -24.1130 C.3    25  VAL25       0.0266
     35  CG1       -6.7550   25.1820  -23.2540 C.3    25  VAL25       0.0020
     36  CG2       -7.3310   23.1490  -24.5680 C.3    25  VAL25       0.0020
     37  N        -10.1480   26.5910  -23.3370 N.am   26  ALA26      -0.1980
     38  CA       -10.5900   27.8410  -22.7340 C.3    26  ALA26       0.1597
     39  C        -11.4770   27.5990  -21.5210 C.2    26  ALA26       0.2287
     40  O        -11.4240   28.3550  -20.5490 O.2    26  ALA26      -0.2864
     41  CB       -11.3320   28.6880  -23.7660 C.3    26  ALA26       0.0319
     42  N         -9.0590   27.0710  -18.7760 N.3    29  ARG29      -0.1245
     43  CA        -8.3440   28.3150  -18.4720 C.3    29  ARG29       0.1563
     44  C         -9.2200   29.3060  -17.6990 C.2    29  ARG29       0.2260
     45  O         -8.7690   29.9270  -16.7320 O.2    29  ARG29      -0.2867
     46  CB        -7.8450   28.9560  -19.7630 C.3    29  ARG29       0.0307
     47  CG        -6.8510   30.1170  -19.5790 C.3    29  ARG29       0.0489
     48  CD        -6.6680   30.8510  -20.9090 C.3    29  ARG29       0.2205
     49  NE        -7.9710   31.1640  -21.4900 N.pl3  29  ARG29      -0.0865
     50  CZ        -8.1950   31.3630  -22.7820 C.cat  29  ARG29       0.5346
     51  NH1       -7.1990   31.2790  -23.6450 N.pl3  29  ARG29       0.1354
     52  NH2       -9.4170   31.6420  -23.2070 N.pl3  29  ARG29       0.1354
     53  N         -5.8790   34.7430  -27.5120 N.3    52  THR52      -0.1203
     54  CA        -6.6250   33.7100  -28.2210 C.3    52  THR52       0.1994
     55  C         -7.9370   34.2510  -28.7820 C.2    52  THR52       0.2618
     56  O         -8.4320   33.7350  -29.7870 O.2    52  THR52      -0.2717
     57  CB        -6.9090   32.5070  -27.3100 C.3    52  THR52       0.1784
     58  OG1       -7.8080   32.8980  -26.2620 O.3    52  THR52      -0.2211
     59  CG2       -5.6250   31.9680  -26.7050 C.3    52  THR52       0.0376
     60  N         -8.5190   35.2840  -28.1660 N.am   53  THR53      -0.1952
     61  CA        -9.7170   35.8870  -28.7520 C.3    53  THR53       0.1897
     62  C         -9.4410   36.4000  -30.1620 C.2    53  THR53       0.2313
     63  O        -10.2220   36.1470  -31.0880 O.2    53  THR53      -0.2863
     64  CB       -10.2520   37.0150  -27.8660 C.3    53  THR53       0.1794
     65  OG1      -10.8060   36.4620  -26.6620 O.3    53  THR53      -0.2208
     66  CG2      -11.3430   37.7840  -28.6100 C.3    53  THR53       0.0378
     67  N         -6.9580   35.4360  -32.1040 N.3    55  SER55      -0.1202
     68  CA        -6.7080   34.2560  -32.9320 C.3    55  SER55       0.2020
     69  C         -8.0190   33.6550  -33.4510 C.2    55  SER55       0.2619
     70  O         -8.1380   33.3020  -34.6350 O.2    55  SER55      -0.2717
     71  CB        -5.9270   33.2180  -32.1260 C.3    55  SER55       0.2103
     72  OG        -5.6230   32.0890  -32.9230 O.3    55  SER55      -0.2182
     73  N         -9.0170   33.5380  -32.5760 N.am   56  THR56      -0.1952
     74  CA       -10.3130   32.9970  -32.9750 C.3    56  THR56       0.1897
     75  C        -11.0280   33.9260  -33.9560 C.2    56  THR56       0.2313
     76  O        -11.5650   33.4660  -34.9640 O.2    56  THR56      -0.2863
     77  CB       -11.1770   32.7470  -31.7350 C.3    56  THR56       0.1794
     78  OG1      -10.6990   31.5800  -31.0610 O.3    56  THR56      -0.2208
     79  CG2      -12.6600   32.5770  -32.0990 C.3    56  THR56       0.0378
     80  N        -21.3760   33.2680  -29.1330 N.3    83  ARG83      -0.1245
     81  CA       -20.0100   33.6990  -28.8650 C.3    83  ARG83       0.1563
     82  C        -19.9910   35.0600  -28.1890 C.2    83  ARG83       0.2260
     83  O        -19.1370   35.3260  -27.3390 O.2    83  ARG83      -0.2867
     84  CB       -19.1970   33.7320  -30.1580 C.3    83  ARG83       0.0307
     85  CG       -17.6870   33.7520  -29.9520 C.3    83  ARG83       0.0489
     86  CD       -16.9000   33.9400  -31.2550 C.3    83  ARG83       0.2205
     87  NE       -15.5060   34.2940  -30.9860 N.pl3  83  ARG83      -0.0865
     88  CZ       -14.9100   35.4020  -31.4220 C.cat  83  ARG83       0.5346
     89  NH1      -15.5850   36.2810  -32.1710 N.pl3  83  ARG83       0.1354
     90  NH2      -13.6340   35.6290  -31.1170 N.pl3  83  ARG83       0.1354
     91  N        -20.7140   34.3520  -24.6960 N.3    86  TYR86      -0.1227
     92  CA       -19.5790   33.6610  -24.0990 C.3    86  TYR86       0.1736
     93  C        -18.4510   34.6300  -23.7600 C.2    86  TYR86       0.2595
     94  O        -17.9080   34.6100  -22.6500 O.2    86  TYR86      -0.2718
     95  CB       -19.1060   32.5700  -25.0680 C.3    86  TYR86       0.0548
     96  CG       -17.7490   31.9620  -24.7520 C.ar   86  TYR86      -0.0200
     97  CD1      -16.5840   32.5200  -25.2670 C.ar   86  TYR86      -0.0009
     98  CD2      -17.6430   30.8390  -23.9650 C.ar   86  TYR86      -0.0009
     99  CE1      -15.3680   31.9940  -24.9980 C.ar   86  TYR86       0.0417
    100  CE2      -16.4090   30.2910  -23.6810 C.ar   86  TYR86       0.0417
    101  CZ       -15.2810   30.8720  -24.2080 C.ar   86  TYR86       0.1957
    102  OH       -14.0520   30.3520  -23.9350 O.3    86  TYR86      -0.2866
    103  N        -18.0660   35.4680  -24.7210 N.am   87  ILE87      -0.1980
    104  CA       -16.9850   36.4140  -24.4920 C.3    87  ILE87       0.1595
    105  C        -17.3470   37.3470  -23.3490 C.2    87  ILE87       0.2287
    106  O        -16.4980   37.6750  -22.5040 O.2    87  ILE87      -0.2864
    107  CB       -16.6670   37.2020  -25.7790 C.3    87  ILE87       0.0276
    108  CG1      -16.0680   36.2810  -26.8530 C.3    87  ILE87       0.0022
    109  CG2      -15.7530   38.3880  -25.4520 C.3    87  ILE87       0.0022
    110  CD1      -14.7300   35.6910  -26.4770 C.3    87  ILE87       0.0001
    111  N        -17.0730   35.3880  -19.9970 N.3    90  ARG90      -0.1245
    112  CA       -15.6700   35.1020  -19.7040 C.3    90  ARG90       0.1563
    113  C        -14.9470   36.3710  -19.2500 C.2    90  ARG90       0.2260
    114  O        -14.2810   36.3860  -18.2040 O.2    90  ARG90      -0.2867
    115  CB       -15.0020   34.5010  -20.9380 C.3    90  ARG90       0.0307
    116  CG       -13.5650   34.1070  -20.7280 C.3    90  ARG90       0.0489
    117  CD       -12.6390   34.9580  -21.5820 C.3    90  ARG90       0.2205
    118  NE       -12.5380   34.4680  -22.9480 N.pl3  90  ARG90      -0.0865
    119  CZ       -12.3410   35.2480  -24.0020 C.cat  90  ARG90       0.5346
    120  NH1      -12.2160   36.5540  -23.8410 N.pl3  90  ARG90       0.1354
    121  NH2      -12.2620   34.7230  -25.2180 N.pl3  90  ARG90       0.1354
    122  N        -21.9770   26.9240  -26.8060 N.3   120  TYR120     -0.1241
    123  CA       -20.9410   27.1270  -27.8100 C.3   120  TYR120      0.1605
    124  C        -20.3930   25.7880  -28.2890 C.2   120  TYR120      0.2264
    125  O        -20.2850   25.5360  -29.4970 O.2   120  TYR120     -0.2867
    126  CB       -19.8560   28.0130  -27.1770 C.3   120  TYR120      0.0534
    127  CG       -18.8140   28.6830  -28.0520 C.ar  120  TYR120     -0.0201
    128  CD1      -18.8970   28.7010  -29.4490 C.ar  120  TYR120     -0.0009
    129  CD2      -17.7040   29.2870  -27.4510 C.ar  120  TYR120     -0.0009
    130  CE1      -17.8830   29.3120  -30.2190 C.ar  120  TYR120      0.0417
    131  CE2      -16.6970   29.9050  -28.1990 C.ar  120  TYR120      0.0417
    132  CZ       -16.7900   29.9200  -29.5680 C.ar  120  TYR120      0.1957
    133  OH       -15.7770   30.5640  -30.2530 O.3   120  TYR120     -0.2866
@<TRIPOS>BOND
     1    13    11   ar
     2    13    14   ar
     3    11     8   ar
     4    14    12   ar
     5    76    75    2
     6    70    69    2
     7     8     6   ar
     8     8    10   ar
     9    75    74    1
    10     5     6    1
    11     5     2    1
    12    12    10   ar
    13     1     2    1
    14    69    68    1
    15    69    73   am
    16     6     7   ar
    17    10     9   ar
    18    74    73    1
    19    74    77    1
    20    68    71    1
    21    68    67    1
    22    72    71    1
    23     2     3    1
    24     7     9   ar
    25    89    88    1
    26    79    77    1
    27    77    78    1
    28     3     4    2
    29    88    90    1
    30    88    87    2
    31    22    20   am
    32    86    87    1
    33    86    85    1
    34    63    62    2
    35   133   132    1
    36   130   132   ar
    37   130   128   ar
    38    20    21    2
    39    20    19    1
    40    62    61    1
    41    84    85    1
    42    84    81    1
    43    56    55    2
    44   132   131   ar
    45   125   124    2
    46   128   127   ar
    47    19    16    1
    48    80    81    1
    49    15    16    1
    50    81    82    1
    51    55    54    1
    52    55    60   am
    53    61    60    1
    54    61    64    1
    55    66    64    1
    56    29    27    1
    57    16    17    1
    58   124   123    1
    59    54    53    1
    60    54    57    1
    61   131   129   ar
    62    82    83    2
    63   127   129   ar
    64   127   126    1
    65    64    65    1
    66   123   126    1
    67   123   122    1
    68    23    17   am
    69    23    24    1
    70    27    24    1
    71    27    28    1
    72    17    18    2
    73    57    59    1
    74    57    58    1
    75   108   110    1
    76   108   107    1
    77    24    25    1
    78   107   109    1
    79   107   104    1
    80    25    26    2
    81    97    99   ar
    82    97    96   ar
    83   121   119    1
    84    95    96    1
    85    95    92    1
    86    99   101   ar
    87    96    98   ar
    88   103   104    1
    89   103    93   am
    90    91    92    1
    91    36    34    1
    92   104   105    1
    93   101   102    1
    94   101   100   ar
    95    30    31    1
    96    34    31    1
    97    34    35    1
    98    92    93    1
    99   119   120    1
   100   119   118    2
   101    98   100   ar
   102    41    38    1
   103    93    94    2
   104    51    50    1
   105   105   106    2
   106    37    38    1
   107    37    32   am
   108    31    32    1
   109    52    50    1
   110   118   117    1
   111    50    49    2
   112    38    39    1
   113    32    33    2
   114   117   116    1
   115    39    40    2
   116    49    48    1
   117   115   116    1
   118   115   112    1
   119    48    47    1
   120   111   112    1
   121    46    47    1
   122    46    43    1
   123   112   113    1
   124   113   114    2
   125    42    43    1
   126    43    44    1
   127    44    45    2
