@<TRIPOS>MOLECULE
tmp/6iubB01.pdb
 155 149 0 0 0
SMALL
GASTEIGER

@<TRIPOS>ATOM
      1  N         48.4670   49.0100   65.7440 N.3    13  GLY13      -0.1210
      2  CA        47.2290   48.2770   65.8740 C.3    13  GLY13       0.1956
      3  C         47.2440   47.2020   66.9450 C.2    13  GLY13       0.2612
      4  O         48.2560   46.5360   67.1620 O.2    13  GLY13      -0.2717
      5  N         46.0990   47.0330   67.5950 N.am   14  GLY14      -0.1942
      6  CA        45.8570   45.9530   68.5350 C.3    14  GLY14       0.2014
      7  C         46.6450   46.0430   69.8260 C.2    14  GLY14       0.2639
      8  O         47.0000   45.0170   70.4120 O.2    14  GLY14      -0.2714
      9  N         46.8420   47.2610   70.3200 N.am   15  VAL15      -0.1963
     10  CA        47.6040   47.4560   71.5490 C.3    15  VAL15       0.1727
     11  C         46.7300   47.7830   72.7670 C.2    15  VAL15       0.2617
     12  O         47.2340   48.1240   73.8470 O.2    15  VAL15      -0.2715
     13  CB        48.6620   48.5460   71.3720 C.3    15  VAL15       0.0290
     14  CG1       49.6050   48.1830   70.2210 C.3    15  VAL15       0.0023
     15  CG2       47.9920   49.9050   71.1460 C.3    15  VAL15       0.0023
     16  N         45.4240   47.6630   72.5940 N.am   16  GLY16      -0.1940
     17  CA        44.5010   47.8340   73.7030 C.3    16  GLY16       0.2014
     18  C         43.9230   49.2320   73.8300 C.2    16  GLY16       0.2639
     19  O         43.4600   49.6120   74.9070 O.2    16  GLY16      -0.2714
     20  N         43.9380   50.0090   72.7460 N.am   17  LYS17      -0.1963
     21  CA        43.2780   51.3230   72.7770 C.3    17  LYS17       0.1728
     22  C         41.8160   51.2350   73.1840 C.2    17  LYS17       0.2617
     23  O         41.3730   51.9170   74.1170 O.2    17  LYS17      -0.2715
     24  CB        43.3630   52.0270   71.4170 C.3    17  LYS17       0.0311
     25  CG        44.7760   52.4210   70.9880 C.3    17  LYS17       0.0038
     26  CD        44.7350   53.1820   69.6690 C.3    17  LYS17       0.0206
     27  CE        44.3710   52.2910   68.4840 C.3    17  LYS17       0.1093
     28  NZ        45.3350   51.1560   68.2980 N.3    17  LYS17      -0.1314
     29  N         41.0510   50.4310   72.4530 N.am   18  THR18      -0.1937
     30  CA        39.6080   50.3300   72.6980 C.3    18  THR18       0.2028
     31  C         39.2940   49.7390   74.0770 C.2    18  THR18       0.2642
     32  O         38.4370   50.2470   74.8100 O.2    18  THR18      -0.2714
     33  CB        38.9120   49.5270   71.5700 C.3    18  THR18       0.1808
     34  OG1       38.9070   50.3160   70.3710 O.3    18  THR18      -0.2208
     35  CG2       37.4570   49.1690   71.9470 C.3    18  THR18       0.0379
     36  N         39.9960   48.6670   74.4240 N.am   19  THR19      -0.1950
     37  CA        39.8180   48.0210   75.7200 C.3    19  THR19       0.1897
     38  C         40.0630   49.0340   76.8420 C.2    19  THR19       0.2313
     39  O         39.3480   49.0820   77.8490 O.2    19  THR19      -0.2863
     40  CB        40.7860   46.8420   75.8550 C.3    19  THR19       0.1794
     41  OG1       40.5490   45.9030   74.7930 O.3    19  THR19      -0.2208
     42  CG2       40.6340   46.1640   77.2140 C.3    19  THR19       0.0378
     43  N         36.7100   55.5670   65.9180 N.3    41  ASP41      -0.1239
     44  CA        37.2420   54.5710   64.9760 C.3    41  ASP41       0.1674
     45  C         36.1070   54.0310   64.1160 C.2    41  ASP41       0.2266
     46  O         35.0710   53.6320   64.6490 O.2    41  ASP41      -0.2867
     47  CB        37.9290   53.4370   65.7610 C.3    41  ASP41       0.1410
     48  CG        38.7020   52.4520   64.8660 C.2    41  ASP41       0.3668
     49  OD1       38.3950   52.3070   63.6640 O.co2  41  ASP41      -0.2456
     50  OD2       39.6300   51.8100   65.3800 O.co2  41  ASP41      -0.2456
     51  N         34.6260   49.4550   67.4190 N.3    45  ASN45      -0.1240
     52  CA        34.7870   48.4220   68.4370 C.3    45  ASN45       0.1653
     53  C         34.3510   48.8340   69.8570 C.2    45  ASN45       0.2266
     54  O         33.8630   48.0040   70.6130 O.2    45  ASN45      -0.2867
     55  CB        36.2170   47.8780   68.4480 C.3    45  ASN45       0.1155
     56  CG        36.5620   47.0930   67.1850 C.2    45  ASN45       0.2627
     57  OD1       35.6790   46.6070   66.4570 O.2    45  ASN45      -0.2716
     58  ND2       37.8440   46.9350   66.9420 N.am   45  ASN45      -0.0877
     59  N         40.7000   56.2930   69.7810 N.3   131  SER131     -0.1217
     60  CA        41.2940   56.6490   68.4950 C.3   131  SER131      0.1889
     61  C         41.5720   55.4180   67.6390 C.2   131  SER131      0.2288
     62  O         41.8380   54.3440   68.1720 O.2   131  SER131     -0.2866
     63  CB        42.6150   57.4020   68.7190 C.3   131  SER131      0.2089
     64  OG        42.4450   58.4970   69.6100 O.3   131  SER131     -0.2183
     65  N         43.9620   53.1970   64.6850 N.3   133  PRO133     -0.2116
     66  CA        45.3880   52.8380   64.5370 C.3   133  PRO133      0.1372
     67  C         46.1710   53.4220   63.3530 C.2   133  PRO133      0.2244
     68  O         46.5670   52.6670   62.4490 O.2   133  PRO133     -0.2868
     69  CB        45.3340   51.3160   64.3380 C.3   133  PRO133      0.0268
     70  CG        44.0120   51.0890   63.6810 C.3   133  PRO133      0.0207
     71  CD        43.0950   52.0350   64.3890 C.3   133  PRO133      0.0892
     72  N         49.8600   47.4200   78.4370 N.3   189  THR189     -0.1203
     73  CA        48.6470   46.6300   78.2640 C.3   189  THR189      0.1994
     74  C         48.9900   45.2010   77.8680 C.2   189  THR189      0.2617
     75  O         50.1180   44.9220   77.4280 O.2   189  THR189     -0.2717
     76  CB        47.7620   47.2260   77.1540 C.3   189  THR189      0.1784
     77  OG1       48.5770   47.4430   75.9910 O.3   189  THR189     -0.2211
     78  CG2       47.1590   48.5650   77.6020 C.3   189  THR189      0.0376
     79  N         48.0220   44.2960   78.0340 N.am  190  MET190     -0.1979
     80  CA        48.2240   42.8850   77.7000 C.3   190  MET190      0.1605
     81  C         49.5340   42.3880   78.2830 C.2   190  MET190      0.2287
     82  O         50.2960   41.6720   77.6290 O.2   190  MET190     -0.2864
     83  CB        48.1990   42.7040   76.1810 C.3   190  MET190      0.0413
     84  CG        46.8020   42.7950   75.6190 C.3   190  MET190      0.0598
     85  SD        46.7840   42.8110   73.8330 S.3   190  MET190     -0.1393
     86  CE        47.0080   44.5640   73.5980 C.3   190  MET190      0.0692
     87  N         48.1580   46.8290   82.7490 N.3   225  ILE225     -0.1231
     88  CA        46.9990   45.9660   82.5180 C.3   225  ILE225      0.1678
     89  C         47.4910   44.5870   82.1290 C.2   225  ILE225      0.2434
     90  O         48.0400   44.4090   81.0460 O.2   225  ILE225     -0.2733
     91  CB        46.0580   46.5010   81.4090 C.3   225  ILE225      0.0265
     92  CG1       45.7900   48.0020   81.5910 C.3   225  ILE225      0.0019
     93  CG2       44.7630   45.6750   81.3630 C.3   225  ILE225      0.0020
     94  CD1       45.1430   48.3750   82.9190 C.3   225  ILE225      0.0001
     95  N         47.2700   43.5950   83.0050 N.am  226  PRO226     -0.2718
     96  CA        47.7520   42.2320   82.7470 C.3   226  PRO226      0.1535
     97  C         46.9850   41.6100   81.5900 C.2   226  PRO226      0.2598
     98  O         45.8080   41.9360   81.4000 O.2   226  PRO226     -0.2715
     99  CB        47.4070   41.4910   84.0390 C.3   226  PRO226      0.0310
    100  CG        46.2020   42.2190   84.5740 C.3   226  PRO226      0.0237
    101  CD        46.3930   43.6620   84.1910 C.3   226  PRO226      0.0939
    102  N         47.6410   40.7360   80.8340 N.am  227  LYS227     -0.1964
    103  CA        46.9420   39.9070   79.8690 C.3   227  LYS227      0.1728
    104  C         45.8960   39.0910   80.6220 C.2   227  LYS227      0.2617
    105  O         46.2010   38.4370   81.6160 O.2   227  LYS227     -0.2715
    106  CB        47.9080   38.9880   79.1130 C.3   227  LYS227      0.0311
    107  CG        47.2160   38.1490   78.0350 C.3   227  LYS227      0.0038
    108  CD        48.1900   37.5550   77.0360 C.3   227  LYS227      0.0206
    109  CE        47.4890   36.5170   76.1500 C.3   227  LYS227      0.1093
    110  NZ        46.2740   37.0670   75.4600 N.3   227  LYS227     -0.1314
    111  N         44.6530   39.1490   80.1690 N.am  228  SER228     -0.1936
    112  CA        43.5590   38.5220   80.9120 C.3   228  SER228      0.2055
    113  C         42.5420   37.9010   79.9920 C.2   228  SER228      0.2642
    114  O         41.9690   38.5990   79.1640 O.2   228  SER228     -0.2714
    115  CB        42.8660   39.5540   81.8140 C.3   228  SER228      0.2130
    116  OG        41.6140   39.0870   82.2870 O.3   228  SER228     -0.2179
    117  N         42.3130   36.6000   80.1490 N.am  229  VAL229     -0.1977
    118  CA        41.2840   35.8930   79.3840 C.3   229  VAL229      0.1596
    119  C         39.9130   36.5700   79.5030 C.2   229  VAL229      0.2287
    120  O         39.1960   36.7580   78.5090 O.2   229  VAL229     -0.2864
    121  CB        41.1790   34.4230   79.8720 C.3   229  VAL229      0.0276
    122  CG1       39.8460   33.7950   79.4640 C.3   229  VAL229      0.0022
    123  CG2       42.3640   33.6020   79.3640 C.3   229  VAL229      0.0022
    124  N         39.2310   39.6580   80.3140 N.3   231  LEU231     -0.1231
    125  CA        39.2250   40.9520   79.6590 C.3   231  LEU231      0.1693
    126  C         38.9070   40.7910   78.1640 C.2   231  LEU231      0.2591
    127  O         38.1340   41.5620   77.5880 O.2   231  LEU231     -0.2718
    128  CB        40.5540   41.6730   79.9110 C.3   231  LEU231      0.0284
    129  CG        40.6070   43.1910   79.8620 C.3   231  LEU231      0.0019
    130  CD1       39.4570   43.8110   80.6620 C.3   231  LEU231      0.0001
    131  CD2       41.9440   43.6570   80.4110 C.3   231  LEU231      0.0001
    132  N         39.5120   39.7940   77.5330 N.am  232  ALA232     -0.1980
    133  CA        39.2080   39.5110   76.1320 C.3   232  ALA232      0.1597
    134  C         37.7480   39.0990   75.9700 C.2   232  ALA232      0.2287
    135  O         37.1060   39.4430   74.9760 O.2   232  ALA232     -0.2864
    136  CB        40.1300   38.4250   75.5860 C.3   232  ALA232      0.0319
    137  N         33.9830   42.1620   75.8110 N.3   235  PRO235     -0.2116
    138  CA        33.1630   42.7640   74.7480 C.3   235  PRO235      0.1372
    139  C         32.1510   41.7900   74.1410 C.2   235  PRO235      0.2244
    140  O         31.1380   42.2370   73.6140 O.2   235  PRO235     -0.2868
    141  CB        34.2000   43.2190   73.6970 C.3   235  PRO235      0.0268
    142  CG        35.4480   42.4620   74.0050 C.3   235  PRO235      0.0207
    143  CD        35.4210   42.1610   75.4770 C.3   235  PRO235      0.0892
    144  N         42.2140   48.3740   85.7230 N.3   254  TYR254     -0.1241
    145  CA        41.5480   49.5660   85.1870 C.3   254  TYR254      0.1605
    146  C         40.9500   50.4820   86.2490 C.2   254  TYR254      0.2264
    147  O         40.8640   51.7050   86.0500 O.2   254  TYR254     -0.2867
    148  CB        40.4990   49.2080   84.1170 C.3   254  TYR254      0.0534
    149  CG        41.1360   48.9410   82.7820 C.ar  254  TYR254     -0.0201
    150  CD1       41.8420   49.9460   82.1210 C.ar  254  TYR254     -0.0009
    151  CD2       41.0710   47.6830   82.1920 C.ar  254  TYR254     -0.0009
    152  CE1       42.4600   49.7020   80.8910 C.ar  254  TYR254      0.0417
    153  CE2       41.6720   47.4340   80.9660 C.ar  254  TYR254      0.0417
    154  CZ        42.3610   48.4550   80.3160 C.ar  254  TYR254      0.1957
    155  OH        42.9740   48.2080   79.0980 O.3   254  TYR254     -0.2866
@<TRIPOS>BOND
     1    68    67    2
     2    67    66    1
     3    49    48   ar
     4    70    69    1
     5    70    71    1
     6    45    46    2
     7    45    44    1
     8    69    66    1
     9    71    65    1
    10    66    65    1
    11    48    50   ar
    12    48    47    1
    13    44    47    1
    14    44    43    1
    15     1     2    1
    16     2     3    1
    17    57    56    2
    18    58    56   am
    19     3     4    2
    20     3     5   am
    21    56    55    1
    22    51    52    1
    23     5     6    1
    24    61    62    2
    25    61    60    1
    26    28    27    1
    27    52    55    1
    28    52    53    1
    29    27    26    1
    30    60    63    1
    31    60    59    1
    32     6     7    1
    33    63    64    1
    34    26    25    1
    35     7     9   am
    36     7     8    2
    37    53    54    2
    38    14    13    1
    39     9    10    1
    40    34    33    1
    41    25    24    1
    42    15    13    1
    43    13    10    1
    44    24    21    1
    45    10    11    1
    46    33    35    1
    47    33    30    1
    48    29    30    1
    49    29    22   am
    50    16    11   am
    51    16    17    1
    52    30    31    1
    53    20    21    1
    54    20    18   am
    55    11    12    2
    56    21    22    1
    57    22    23    2
    58    86    85    1
    59   140   139    2
    60   141   142    1
    61   141   138    1
    62    17    18    1
    63    18    19    2
    64    85    84    1
    65   142   143    1
    66    31    36   am
    67    31    32    2
    68   139   138    1
    69    36    37    1
    70   138   137    1
    71    41    40    1
    72   135   134    2
    73   110   109    1
    74   143   137    1
    75   136   133    1
    76    84    83    1
    77    37    40    1
    78    37    38    1
    79    40    42    1
    80   134   133    1
    81    77    76    1
    82   133   132    1
    83   109   108    1
    84    83    80    1
    85    38    39    2
    86   108   107    1
    87    76    78    1
    88    76    73    1
    89    75    74    2
    90   132   126   am
    91   127   126    2
    92    82    81    2
    93    80    79    1
    94    80    81    1
    95    74    79   am
    96    74    73    1
    97   107   106    1
    98   126   125    1
    99    73    72    1
   100   120   119    2
   101   155   154    1
   102   106   103    1
   103   114   113    2
   104   123   121    1
   105   118   119    1
   106   118   121    1
   107   118   117    1
   108   122   121    1
   109   125   128    1
   110   125   124    1
   111   129   128    1
   112   129   131    1
   113   129   130    1
   114   103   104    1
   115   103   102    1
   116   113   117   am
   117   113   112    1
   118   111   104   am
   119   111   112    1
   120   154   152   ar
   121   154   153   ar
   122   104   105    2
   123   102    97   am
   124   152   150   ar
   125   112   115    1
   126   153   151   ar
   127    90    89    2
   128    93    91    1
   129    98    97    2
   130    91    92    1
   131    91    88    1
   132    97    96    1
   133    92    94    1
   134   115   116    1
   135   150   149   ar
   136    89    88    1
   137    89    95   am
   138   151   149   ar
   139    88    87    1
   140    96    95    1
   141    96    99    1
   142   149   148    1
   143    95   101    1
   144    99   100    1
   145   148   145    1
   146   101   100    1
   147   145   144    1
   148   145   146    1
   149   147   146    2
