@<TRIPOS>MOLECULE
tmp/6iudC00.pdb
 147 142 0 0 0
SMALL
GASTEIGER

@<TRIPOS>ATOM
      1  N          1.3980  104.8130  -67.5850 N.3    13  GLY13      -0.1210
      2  CA         1.0940  105.2310  -66.2410 C.3    13  GLY13       0.1956
      3  C         -0.0650  104.4440  -65.6940 C.2    13  GLY13       0.2612
      4  O         -0.8120  103.8080  -66.4780 O.2    13  GLY13      -0.2717
      5  N         -0.1430  104.4180  -64.3580 N.am   14  GLY14      -0.1942
      6  CA        -1.1720  103.7020  -63.6270 C.3    14  GLY14       0.2014
      7  C         -1.1000  102.1850  -63.6480 C.2    14  GLY14       0.2639
      8  O         -2.1220  101.5180  -63.4400 O.2    14  GLY14      -0.2714
      9  N          0.0640  101.5930  -63.9190 N.am   15  VAL15      -0.1963
     10  CA         0.1330  100.1370  -64.0020 C.3    15  VAL15       0.1727
     11  C          0.7180   99.4970  -62.7450 C.2    15  VAL15       0.2617
     12  O          0.8880   98.2670  -62.7100 O.2    15  VAL15      -0.2715
     13  CB         0.9130   99.6870  -65.2540 C.3    15  VAL15       0.0290
     14  CG1        0.3680  100.4020  -66.4820 C.3    15  VAL15       0.0023
     15  CG2        2.3750   99.9280  -65.0680 C.3    15  VAL15       0.0023
     16  N          1.0030  100.2780  -61.7050 N.am   16  GLY16      -0.1940
     17  CA         1.4980   99.7370  -60.4610 C.3    16  GLY16       0.2014
     18  C          2.9960   99.7890  -60.2300 C.2    16  GLY16       0.2639
     19  O          3.4850   99.0750  -59.3480 O.2    16  GLY16      -0.2714
     20  N          3.7390  100.6270  -60.9580 N.am   17  LYS17      -0.1963
     21  CA         5.1890  100.6590  -60.7630 C.3    17  LYS17       0.1728
     22  C          5.5610  101.0930  -59.3470 C.2    17  LYS17       0.2617
     23  O          6.3590  100.4330  -58.6790 O.2    17  LYS17      -0.2715
     24  CB         5.8580  101.5640  -61.7880 C.3    17  LYS17       0.0311
     25  CG         5.8290  101.0000  -63.2130 C.3    17  LYS17       0.0038
     26  CD         6.4660  102.0010  -64.1830 C.3    17  LYS17       0.0206
     27  CE         6.0700  103.4240  -63.7820 C.3    17  LYS17       0.1093
     28  NZ         4.7000  103.6410  -64.3230 N.3    17  LYS17      -0.1314
     29  N          4.9720  102.1880  -58.8650 N.am   18  THR18      -0.1937
     30  CA         5.3370  102.7110  -57.5560 C.3    18  THR18       0.2028
     31  C          4.8410  101.7910  -56.4530 C.2    18  THR18       0.2642
     32  O          5.5750  101.5070  -55.5100 O.2    18  THR18      -0.2714
     33  CB         4.7620  104.1180  -57.3810 C.3    18  THR18       0.1808
     34  OG1        5.3270  104.9920  -58.3490 O.3    18  THR18      -0.2208
     35  CG2        5.0250  104.6580  -55.9490 C.3    18  THR18       0.0379
     36  N          3.6350  101.2520  -56.5970 N.am   19  THR19      -0.1950
     37  CA         3.1220  100.2840  -55.6360 C.3    19  THR19       0.1897
     38  C          4.0530   99.0940  -55.5420 C.2    19  THR19       0.2313
     39  O          4.4200   98.6860  -54.4460 O.2    19  THR19      -0.2863
     40  CB         1.6960   99.8430  -56.0290 C.3    19  THR19       0.1794
     41  OG1        0.8580  100.9980  -56.1440 O.3    19  THR19      -0.2208
     42  CG2        1.0660   98.9690  -54.9800 C.3    19  THR19       0.0378
     43  N          5.5240  109.8090  -55.9900 N.3    45  ASN45      -0.1240
     44  CA         4.5550  109.0220  -55.2430 C.3    45  ASN45       0.1653
     45  C          5.2180  108.0060  -54.3190 C.2    45  ASN45       0.2266
     46  O          4.6610  107.6880  -53.2730 O.2    45  ASN45      -0.2867
     47  CB         3.6030  108.2980  -56.1920 C.3    45  ASN45       0.1155
     48  CG         2.7080  109.2520  -56.9890 C.2    45  ASN45       0.2627
     49  OD1        2.5800  110.4590  -56.6900 O.2    45  ASN45      -0.2716
     50  ND2        2.1130  108.7150  -58.0560 N.am   45  ASN45      -0.0877
     51  N         10.4090  104.2690  -61.5660 N.3   131  SER131     -0.1217
     52  CA        10.5630  105.0190  -62.7990 C.3   131  SER131      0.1889
     53  C          9.3000  105.8100  -63.1130 C.2   131  SER131      0.2288
     54  O          8.2420  105.5550  -62.5420 O.2   131  SER131     -0.2866
     55  CB        10.8920  104.0560  -63.9380 C.3   131  SER131      0.2089
     56  OG        11.7760  103.0620  -63.4420 O.3   131  SER131     -0.2183
     57  N          6.3740  107.4900  -65.9870 N.3   133  PRO133     -0.2116
     58  CA         5.6300  106.9520  -67.1440 C.3   133  PRO133      0.1372
     59  C          5.9170  107.5400  -68.5230 C.2   133  PRO133      0.2244
     60  O          5.1670  108.3530  -69.0510 O.2   133  PRO133     -0.2868
     61  CB         4.1800  107.2620  -66.7750 C.3   133  PRO133      0.0268
     62  CG         4.2800  108.5410  -66.0500 C.3   133  PRO133      0.0207
     63  CD         5.5390  108.4320  -65.2220 C.3   133  PRO133      0.0892
     64  N         -0.2220   93.0360  -62.5210 N.3   189  THR189     -0.1203
     65  CA        -0.6560   93.8400  -61.3810 C.3   189  THR189      0.1994
     66  C         -2.1500   94.0960  -61.4900 C.2   189  THR189      0.2617
     67  O         -2.7260   94.0140  -62.5730 O.2   189  THR189     -0.2717
     68  CB         0.0660   95.1710  -61.2970 C.3   189  THR189      0.1784
     69  OG1       -0.0060   95.7970  -62.5720 O.3   189  THR189     -0.2211
     70  CG2        1.5330   94.9490  -60.9150 C.3   189  THR189      0.0376
     71  N         -2.7620   94.4330  -60.3540 N.am  190  MET190     -0.1979
     72  CA        -4.1820   94.7120  -60.3020 C.3   190  MET190      0.1605
     73  C         -4.9740   93.6160  -60.9820 C.2   190  MET190      0.2287
     74  O         -5.9740   93.8640  -61.6540 O.2   190  MET190     -0.2864
     75  CB        -4.4890   96.0490  -60.9140 C.3   190  MET190      0.0413
     76  CG        -3.4950   97.0770  -60.4480 C.3   190  MET190      0.0598
     77  SD        -4.3100   98.6180  -60.6420 S.3   190  MET190     -0.1393
     78  CE        -3.3860   99.1530  -61.9860 C.3   190  MET190      0.0692
     79  N         -0.0010   90.2190  -58.5920 N.3   225  ILE225     -0.1231
     80  CA        -0.5730   91.0640  -57.5280 C.3   225  ILE225      0.1678
     81  C         -2.0760   91.2030  -57.7460 C.2   225  ILE225      0.2434
     82  O         -2.5180   91.7600  -58.7730 O.2   225  ILE225     -0.2733
     83  CB         0.0780   92.4500  -57.4890 C.3   225  ILE225      0.0265
     84  CG1        1.5820   92.3320  -57.7050 C.3   225  ILE225      0.0019
     85  CG2       -0.2770   93.1350  -56.1980 C.3   225  ILE225      0.0020
     86  CD1        2.2940   91.5640  -56.5880 C.3   225  ILE225      0.0001
     87  N         -2.8920   90.7340  -56.8070 N.am  226  PRO226     -0.2718
     88  CA        -4.3420   90.8370  -56.9920 C.3   226  PRO226      0.1535
     89  C         -4.7680   92.2840  -56.8910 C.2   226  PRO226      0.2598
     90  O         -4.1450   93.0790  -56.1880 O.2   226  PRO226     -0.2715
     91  CB        -4.9180   90.0000  -55.8460 C.3   226  PRO226      0.0310
     92  CG        -3.8550   90.0510  -54.7810 C.3   226  PRO226      0.0237
     93  CD        -2.5210   90.2560  -55.4600 C.3   226  PRO226      0.0939
     94  N         -5.8490   92.6110  -57.6000 N.am  227  LYS227     -0.1964
     95  CA        -6.4740   93.8970  -57.3880 C.3   227  LYS227      0.1728
     96  C         -7.0640   93.9100  -55.9840 C.2   227  LYS227      0.2617
     97  O         -7.8660   93.0460  -55.6220 O.2   227  LYS227     -0.2715
     98  CB        -7.5530   94.2060  -58.4310 C.3   227  LYS227      0.0311
     99  CG        -8.1900   95.5880  -58.1380 C.3   227  LYS227      0.0038
    100  CD        -8.9520   96.2220  -59.2900 C.3   227  LYS227      0.0206
    101  CE        -8.5720   97.7060  -59.4340 C.3   227  LYS227      0.1093
    102  NZ        -9.7290   98.6460  -59.1980 N.3   227  LYS227     -0.1314
    103  N         -6.6750   94.9120  -55.2020 N.am  228  SER228     -0.1936
    104  CA        -6.9490   94.9230  -53.7710 C.3   228  SER228      0.2055
    105  C         -7.0610   96.3760  -53.3440 C.2   228  SER228      0.2642
    106  O         -6.0800   97.1160  -53.4210 O.2   228  SER228     -0.2714
    107  CB        -5.8350   94.2110  -52.9840 C.3   228  SER228      0.2130
    108  OG        -5.9690   94.4600  -51.5910 O.3   228  SER228     -0.2179
    109  N         -8.2530   96.8020  -52.9210 N.am  229  VAL229     -0.1977
    110  CA        -8.3730   98.1670  -52.4240 C.3   229  VAL229      0.1596
    111  C         -7.4360   98.4440  -51.2300 C.2   229  VAL229      0.2287
    112  O         -7.0680   99.6080  -51.0000 O.2   229  VAL229     -0.2864
    113  CB        -9.8190   98.5140  -52.0470 C.3   229  VAL229      0.0276
    114  CG1      -10.1580   98.0310  -50.6160 C.3   229  VAL229      0.0022
    115  CG2      -10.0180  100.0440  -52.2210 C.3   229  VAL229      0.0022
    116  N         -4.3130   97.7310  -51.0630 N.3   231  LEU231     -0.1231
    117  CA        -3.0670   98.2790  -51.6010 C.3   231  LEU231      0.1693
    118  C         -3.2400   99.7040  -52.0860 C.2   231  LEU231      0.2591
    119  O         -2.2580  100.4350  -52.1960 O.2   231  LEU231     -0.2718
    120  CB        -2.5090   97.4450  -52.7610 C.3   231  LEU231      0.0284
    121  CG        -1.8730   96.1190  -52.3770 C.3   231  LEU231      0.0019
    122  CD1       -1.8550   95.2030  -53.6130 C.3   231  LEU231      0.0001
    123  CD2       -0.4640   96.2990  -51.7680 C.3   231  LEU231      0.0001
    124  N         -4.4400  100.0930  -52.4630 N.am  232  ALA232     -0.1980
    125  CA        -4.6020  101.4840  -52.8460 C.3   232  ALA232      0.1597
    126  C         -4.7550  102.3740  -51.6090 C.2   232  ALA232      0.2287
    127  O         -4.2760  103.5190  -51.6030 O.2   232  ALA232     -0.2864
    128  CB        -5.7600  101.6120  -53.8530 C.3   232  ALA232      0.0319
    129  N         -0.7890  103.8190  -49.3960 N.3   235  PRO235     -0.2116
    130  CA        -0.1020  105.1210  -49.3410 C.3   235  PRO235      0.1372
    131  C         -0.7990  106.1100  -48.4260 C.2   235  PRO235      0.2244
    132  O         -0.1380  107.0010  -47.8750 O.2   235  PRO235     -0.2868
    133  CB        -0.1560  105.5940  -50.7960 C.3   235  PRO235      0.0268
    134  CG        -1.4040  104.9280  -51.3400 C.3   235  PRO235      0.0207
    135  CD        -1.2980  103.5460  -50.7400 C.3   235  PRO235      0.0892
    136  N          3.1130   90.3060  -52.6860 N.3   254  TYR254     -0.1241
    137  CA         4.3960   90.9950  -52.7640 C.3   254  TYR254      0.1605
    138  C          5.4760   90.2810  -51.9680 C.2   254  TYR254      0.2264
    139  O          6.6530   90.2790  -52.3680 O.2   254  TYR254     -0.2867
    140  CB         4.2690   92.4560  -52.3000 C.3   254  TYR254      0.0534
    141  CG         3.8230   93.3610  -53.4310 C.ar  254  TYR254     -0.0201
    142  CD1        2.6160   94.0420  -53.3860 C.ar  254  TYR254     -0.0009
    143  CD2        4.6080   93.5020  -54.5630 C.ar  254  TYR254     -0.0009
    144  CE1        2.2040   94.8700  -54.4580 C.ar  254  TYR254      0.0417
    145  CE2        4.2190   94.2870  -55.6000 C.ar  254  TYR254      0.0417
    146  CZ         3.0240   94.9770  -55.5460 C.ar  254  TYR254      0.1957
    147  OH         2.6990   95.7450  -56.6170 O.3   254  TYR254     -0.2866
@<TRIPOS>BOND
     1    60    59    2
     2    59    58    1
     3     1     2    1
     4    58    61    1
     5    58    57    1
     6    61    62    1
     7    14    13    1
     8     4     3    2
     9     2     3    1
    10    62    63    1
    11    57    63    1
    12     3     5   am
    13    13    15    1
    14    13    10    1
    15     5     6    1
    16    28    27    1
    17    26    27    1
    18    26    25    1
    19    10     9    1
    20    10    11    1
    21    55    56    1
    22    55    52    1
    23     9     7   am
    24     7     6    1
    25     7     8    2
    26    25    24    1
    27    53    52    1
    28    53    54    2
    29    52    51    1
    30    11    12    2
    31    11    16   am
    32    67    66    2
    33    69    68    1
    34    64    65    1
    35    78    77    1
    36    24    21    1
    37    16    17    1
    38    74    73    2
    39    66    65    1
    40    66    71   am
    41    65    68    1
    42    68    70    1
    43    73    72    1
    44    20    21    1
    45    20    18   am
    46    75    76    1
    47    75    72    1
    48    21    22    1
    49    77    76    1
    50    17    18    1
    51    71    72    1
    52    18    19    2
    53   101   100    1
    54   101   102    1
    55    22    29   am
    56    22    23    2
    57   100    99    1
    58    29    30    1
    59    82    81    2
    60    79    80    1
    61    98    99    1
    62    98    95    1
    63    34    33    1
    64    50    48   am
    65    81    80    1
    66    81    87   am
    67    84    83    1
    68    84    86    1
    69    94    95    1
    70    94    89   am
    71    30    33    1
    72    30    31    1
    73    80    83    1
    74    83    85    1
    75    95    96    1
    76    33    35    1
    77    88    89    1
    78    88    87    1
    79    88    91    1
    80    48    49    2
    81    48    47    1
    82    89    90    2
    83    87    93    1
    84   147   146    1
    85    36    31   am
    86    36    37    1
    87    31    32    2
    88    47    44    1
    89    41    40    1
    90    40    37    1
    91    40    42    1
    92    43    44    1
    93    96    97    2
    94    96   103   am
    95    91    92    1
    96    37    38    1
    97   145   146   ar
    98   145   143   ar
    99   146   144   ar
   100    38    39    2
   101    93    92    1
   102    44    45    1
   103   103   104    1
   104   143   141   ar
   105   144   142   ar
   106    45    46    2
   107   128   125    1
   108   104   105    1
   109   104   107    1
   110   122   121    1
   111   141   142   ar
   112   141   140    1
   113   106   105    2
   114   105   109   am
   115   107   108    1
   116   109   110    1
   117   125   124    1
   118   125   126    1
   119   137   136    1
   120   137   140    1
   121   137   138    1
   122   120   121    1
   123   120   117    1
   124   124   118   am
   125   110   113    1
   126   110   111    1
   127   121   123    1
   128   139   138    2
   129   115   113    1
   130   119   118    2
   131   118   117    1
   132   113   114    1
   133   126   127    2
   134   117   116    1
   135   134   133    1
   136   134   135    1
   137   111   112    2
   138   133   130    1
   139   135   129    1
   140   129   130    1
   141   130   131    1
   142   131   132    2
