@<TRIPOS>MOLECULE
tmp/6iujB04.pdb
 107 105 0 0 0
SMALL
GASTEIGER

@<TRIPOS>ATOM
      1  N        -20.4720   -6.5740   28.0040 N.3    13  TYR13      -0.1227
      2  CA       -20.2330   -5.2300   28.5840 C.3    13  TYR13       0.1736
      3  C        -21.5800   -4.6780   29.0680 C.2    13  TYR13       0.2595
      4  O        -22.3410   -5.4310   29.7000 O.2    13  TYR13      -0.2718
      5  CB       -19.4890   -4.3770   27.5540 C.3    13  TYR13       0.0548
      6  CG       -18.1290   -4.9160   27.1980 C.ar   13  TYR13      -0.0200
      7  CD1      -17.0520   -4.7800   28.0690 C.ar   13  TYR13      -0.0009
      8  CD2      -17.9150   -5.5840   26.0000 C.ar   13  TYR13      -0.0009
      9  CE1      -15.7980   -5.2830   27.7530 C.ar   13  TYR13       0.0417
     10  CE2      -16.6720   -6.0980   25.6730 C.ar   13  TYR13       0.0417
     11  CZ       -15.6120   -5.9470   26.5520 C.ar   13  TYR13       0.1957
     12  OH       -14.3860   -6.4360   26.2150 O.3    13  TYR13      -0.2866
     13  N        -21.8840   -3.4150   28.7770 N.am   14  GLN14      -0.1965
     14  CA       -23.0490   -2.7130   29.3710 C.3    14  GLN14       0.1733
     15  C        -24.3460   -3.2150   28.7230 C.2    14  GLN14       0.2617
     16  O        -24.3290   -3.6650   27.5610 O.2    14  GLN14      -0.2715
     17  CB       -22.9090   -1.1920   29.2360 C.3    14  GLN14       0.0408
     18  CG       -23.1740   -0.6490   27.8340 C.3    14  GLN14       0.0908
     19  CD       -21.9400   -0.5410   26.9730 C.2    14  GLN14       0.2608
     20  OE1      -21.0370   -1.3770   27.0250 O.2    14  GLN14      -0.2717
     21  NE2      -21.9010    0.5010   26.1540 N.am   14  GLN14      -0.0878
     22  N        -25.4410   -3.1140   29.4620 N.am   15  SER15      -0.1950
     23  CA       -26.8100   -3.3440   28.9550 C.3    15  SER15       0.1924
     24  C        -27.2600   -2.0820   28.2100 C.2    15  SER15       0.2314
     25  O        -26.6920   -0.9850   28.4640 O.2    15  SER15      -0.2863
     26  CB       -27.7400   -3.6820   30.0820 C.3    15  SER15       0.2116
     27  OG       -28.0180   -2.5010   30.8150 O.3    15  SER15      -0.2180
     28  N        -15.4410    6.3800   29.5300 N.3   267  PRO267     -0.2102
     29  CA       -16.4620    5.9870   30.4930 C.3   267  PRO267      0.1504
     30  C        -16.4970    6.9360   31.6990 C.2   267  PRO267      0.2576
     31  O        -15.4410    7.3140   32.1740 O.2   267  PRO267     -0.2718
     32  CB       -16.0200    4.5730   30.8930 C.3   267  PRO267      0.0282
     33  CG       -14.5200    4.6140   30.7360 C.3   267  PRO267      0.0208
     34  CD       -14.2840    5.4730   29.5080 C.3   267  PRO267      0.0893
     35  N        -17.6920    7.2940   32.1660 N.am  268  LEU268     -0.1966
     36  CA       -17.8520    8.0390   33.4420 C.3   268  LEU268      0.1728
     37  C        -17.5560    7.0570   34.5900 C.2   268  LEU268      0.2617
     38  O        -17.8880    5.8680   34.4720 O.2   268  LEU268     -0.2715
     39  CB       -19.2560    8.6530   33.5450 C.3   268  LEU268      0.0311
     40  CG       -19.7050    9.5490   32.3860 C.3   268  LEU268      0.0022
     41  CD1      -21.1350    9.9980   32.5950 C.3   268  LEU268      0.0001
     42  CD2      -18.7970   10.7590   32.1970 C.3   268  LEU268      0.0001
     43  N        -16.9200    7.5220   35.6600 N.am  269  SER269     -0.1936
     44  CA       -16.4580    6.6600   36.7830 C.3   269  SER269      0.2055
     45  C        -17.5900    6.4600   37.8010 C.2   269  SER269      0.2644
     46  O        -17.3240    6.4750   39.0120 O.2   269  SER269     -0.2714
     47  CB       -15.2280    7.2520   37.4100 C.3   269  SER269      0.2130
     48  OG       -15.4290    8.6360   37.6000 O.3   269  SER269     -0.2179
     49  N        -18.8190    6.2580   37.3290 N.am  270  THR270     -0.1936
     50  CA       -19.9640    5.8630   38.1830 C.3   270  THR270      0.2028
     51  C        -20.1090    4.3370   38.1120 C.2   270  THR270      0.2642
     52  O        -19.6910    3.7450   37.1150 O.2   270  THR270     -0.2714
     53  CB       -21.2430    6.6160   37.7940 C.3   270  THR270      0.1808
     54  OG1      -22.2800    6.1520   38.6640 O.3   270  THR270     -0.2208
     55  CG2      -21.6400    6.4230   36.3420 C.3   270  THR270      0.0379
     56  N        -20.6810    3.7310   39.1480 N.am  271  LYS271     -0.1963
     57  CA       -21.1070    2.3080   39.1510 C.3   271  LYS271      0.1728
     58  C        -22.4740    2.1630   38.4620 C.2   271  LYS271      0.2616
     59  O        -22.8830    1.0280   38.2290 O.2   271  LYS271     -0.2715
     60  CB       -21.1370    1.8020   40.5950 C.3   271  LYS271      0.0311
     61  CG       -22.3130    2.2840   41.4290 C.3   271  LYS271      0.0038
     62  CD       -22.1880    1.8660   42.8770 C.3   271  LYS271      0.0206
     63  CE       -23.5140    1.8660   43.6130 C.3   271  LYS271      0.1093
     64  NZ       -23.3310    1.7790   45.0820 N.3   271  LYS271     -0.1314
     65  N        -23.1570    3.2670   38.1430 N.am  272  ARG272     -0.1963
     66  CA       -24.4810    3.2530   37.4720 C.3   272  ARG272      0.1729
     67  C        -24.3270    3.2570   35.9430 C.2   272  ARG272      0.2616
     68  O        -23.2920    3.6950   35.4340 O.2   272  ARG272     -0.2715
     69  CB       -25.3030    4.4600   37.9170 C.3   272  ARG272      0.0348
     70  CG       -25.5160    4.5360   39.4200 C.3   272  ARG272      0.0492
     71  CD       -26.1130    3.2590   39.9900 C.3   272  ARG272      0.2205
     72  NE       -26.6240    3.4960   41.3350 N.pl3 272  ARG272     -0.0865
     73  CZ       -26.7390    2.5830   42.2970 C.cat 272  ARG272      0.5346
     74  NH1      -26.3970    1.3260   42.0800 N.pl3 272  ARG272      0.1354
     75  NH2      -27.2130    2.9320   43.4800 N.pl3 272  ARG272      0.1354
     76  N        -25.3470    2.7510   35.2500 N.am  273  ARG273     -0.1963
     77  CA       -25.5640    2.9460   33.7990 C.3   273  ARG273      0.1729
     78  C        -25.4620    4.4390   33.4870 C.2   273  ARG273      0.2616
     79  O        -25.8600    5.2600   34.3480 O.2   273  ARG273     -0.2715
     80  CB       -26.9630    2.4810   33.3970 C.3   273  ARG273      0.0348
     81  CG       -27.1320    0.9760   33.3740 C.3   273  ARG273      0.0492
     82  CD       -28.5890    0.6750   33.0960 C.3   273  ARG273      0.2205
     83  NE       -29.3960    0.8910   34.2880 N.pl3 273  ARG273     -0.0865
     84  CZ       -30.6410    1.3530   34.2960 C.cat 273  ARG273      0.5346
     85  NH1      -31.2490    1.7000   33.1740 N.pl3 273  ARG273      0.1354
     86  NH2      -31.2730    1.4810   35.4440 N.pl3 273  ARG273      0.1354
     87  N        -24.9810    4.7710   32.2950 N.am  274  THR274     -0.1951
     88  CA       -24.8530    6.1710   31.8330 C.3   274  THR274      0.1897
     89  C        -25.6660    6.3320   30.5530 C.2   274  THR274      0.2313
     90  O        -25.7450    5.3800   29.7610 O.2   274  THR274     -0.2863
     91  CB       -23.3840    6.5760   31.6470 C.3   274  THR274      0.1794
     92  OG1      -22.7950    5.7390   30.6470 O.3   274  THR274     -0.2208
     93  CG2      -22.5970    6.4950   32.9380 C.3   274  THR274      0.0378
     94  N        -19.1110    3.7620   26.9630 N.3   315  ASN315     -0.1240
     95  CA       -19.7770    2.7570   27.8320 C.3   315  ASN315      0.1653
     96  C        -21.2270    3.1650   28.1330 C.2   315  ASN315      0.2266
     97  O        -21.7160    2.8010   29.2160 O.2   315  ASN315     -0.2867
     98  CB       -19.0080    2.6240   29.1480 C.3   315  ASN315      0.1155
     99  CG       -19.4250    1.4280   29.9670 C.2   315  ASN315      0.2627
    100  OD1      -19.7960    0.3990   29.4120 O.2   315  ASN315     -0.2716
    101  ND2      -19.3730    1.5720   31.2840 N.am  315  ASN315     -0.0877
    102  N        -25.4490    3.3480   27.9960 N.3   317  SER317     -0.1217
    103  CA       -26.5760    2.3870   27.9030 C.3   317  SER317      0.1889
    104  C        -27.6890    2.9550   27.0130 C.2   317  SER317      0.2288
    105  O        -28.5730    2.1870   26.6460 O.2   317  SER317     -0.2866
    106  CB       -27.1050    2.0460   29.2780 C.3   317  SER317      0.2089
    107  OG       -26.1780    1.2490   29.9970 O.3   317  SER317     -0.2183
@<TRIPOS>BOND
     1    10     8   ar
     2    10    11   ar
     3     8     6   ar
     4    21    19   am
     5    12    11    1
     6    11     9   ar
     7   105   104    2
     8    94    95    1
     9    19    20    2
    10    19    18    1
    11   104   103    1
    12     6     5    1
    13     6     7   ar
    14     5     2    1
    15    16    15    2
    16     9     7   ar
    17    95    96    1
    18    95    98    1
    19    18    17    1
    20   103   102    1
    21   103   106    1
    22     1     2    1
    23    96    97    2
    24    24    25    2
    25    24    23    1
    26     2     3    1
    27    15    14    1
    28    15    22   am
    29    13     3   am
    30    13    14    1
    31    23    22    1
    32    23    26    1
    33     3     4    2
    34    98    99    1
    35    17    14    1
    36   106   107    1
    37   100    99    2
    38    34    28    1
    39    34    33    1
    40    28    29    1
    41    90    89    2
    42    99   101   am
    43    26    27    1
    44    29    32    1
    45    29    30    1
    46    89    88    1
    47    92    91    1
    48    33    32    1
    49    91    88    1
    50    91    93    1
    51    30    35   am
    52    30    31    2
    53    88    87    1
    54    35    36    1
    55    42    40    1
    56    87    78   am
    57    40    41    1
    58    40    39    1
    59    82    81    1
    60    82    83    1
    61    85    84    1
    62    81    80    1
    63    80    77    1
    64    36    39    1
    65    36    37    1
    66    78    77    1
    67    78    79    2
    68    77    76    1
    69    83    84    2
    70    84    86    1
    71    38    37    2
    72    37    43   am
    73    76    67   am
    74    68    67    2
    75    43    44    1
    76    67    66    1
    77    55    53    1
    78    44    47    1
    79    44    45    1
    80    52    51    2
    81    49    45   am
    82    49    50    1
    83    47    48    1
    84    66    69    1
    85    66    65    1
    86    53    50    1
    87    53    54    1
    88    45    46    2
    89    69    70    1
    90    51    50    1
    91    51    56   am
    92    65    58   am
    93    59    58    2
    94    58    57    1
    95    56    57    1
    96    57    60    1
    97    70    71    1
    98    71    72    1
    99    60    61    1
   100    72    73    2
   101    61    62    1
   102    74    73    1
   103    73    75    1
   104    62    63    1
   105    63    64    1
