@<TRIPOS>MOLECULE
tmp/6iujB05.pdb
 82 81 0 0 0
SMALL
GASTEIGER

@<TRIPOS>ATOM
      1  N        -44.6740   30.3400   33.3740 N.3    69  ASN69      -0.1240
      2  CA       -46.0270   30.7380   33.8520 C.3    69  ASN69       0.1653
      3  C        -46.8920   31.1600   32.6590 C.2    69  ASN69       0.2266
      4  O        -47.9970   31.6490   32.8890 O.2    69  ASN69      -0.2867
      5  CB       -45.9760   31.8200   34.9370 C.3    69  ASN69       0.1155
      6  CG       -45.1930   33.0540   34.5460 C.2    69  ASN69       0.2627
      7  OD1      -45.2600   33.5160   33.4060 O.2    69  ASN69      -0.2716
      8  ND2      -44.4530   33.5930   35.4980 N.am   69  ASN69      -0.0877
      9  N        -47.5470   27.2520   38.0870 N.3    81  PRO81      -0.2102
     10  CA       -46.9780   28.4290   37.4290 C.3    81  PRO81       0.1504
     11  C        -46.8150   29.6700   38.3250 C.2    81  PRO81       0.2576
     12  O        -45.9840   30.4770   38.0280 O.2    81  PRO81      -0.2718
     13  CB       -47.9850   28.7370   36.3140 C.3    81  PRO81       0.0282
     14  CG       -49.2980   28.1850   36.8390 C.3    81  PRO81       0.0208
     15  CD       -48.9090   26.9530   37.6280 C.3    81  PRO81       0.0893
     16  N        -47.6100   29.7960   39.3860 N.am   82  PHE82      -0.1963
     17  CA       -47.5890   30.9650   40.3070 C.3    82  PHE82       0.1771
     18  C        -47.2720   30.4770   41.7170 C.2    82  PHE82       0.2620
     19  O        -47.6380   29.3360   42.0560 O.2    82  PHE82      -0.2715
     20  CB       -48.9110   31.7290   40.2020 C.3    82  PHE82       0.0574
     21  CG       -49.1860   32.1750   38.7900 C.ar   82  PHE82      -0.0200
     22  CD1      -48.3530   33.0930   38.1720 C.ar   82  PHE82      -0.0042
     23  CD2      -50.2280   31.6350   38.0590 C.ar   82  PHE82      -0.0042
     24  CE1      -48.5790   33.5000   36.8640 C.ar   82  PHE82      -0.0003
     25  CE2      -50.4510   32.0340   36.7480 C.ar   82  PHE82      -0.0003
     26  CZ       -49.6230   32.9590   36.1510 C.ar   82  PHE82      -0.0000
     27  N        -46.5710   31.3030   42.4900 N.am   83  SER83      -0.1950
     28  CA       -46.1300   30.9740   43.8690 C.3    83  SER83       0.1924
     29  C        -47.3400   30.7090   44.7480 C.2    83  SER83       0.2314
     30  O        -48.3330   31.4100   44.6650 O.2    83  SER83      -0.2863
     31  CB       -45.3060   32.0630   44.4850 C.3    83  SER83       0.2116
     32  OG       -45.1100   31.7830   45.8660 O.3    83  SER83      -0.2180
     33  N        -39.6540   30.0590   38.9050 N.3   126  GLY126     -0.1210
     34  CA       -38.8830   31.2450   39.3290 C.3   126  GLY126      0.1956
     35  C        -38.9730   31.5000   40.8240 C.2   126  GLY126      0.2611
     36  O        -37.9340   31.7680   41.4490 O.2   126  GLY126     -0.2717
     37  N        -40.1660   31.3880   41.3960 N.am  127  TYR127     -0.1976
     38  CA       -40.4570   31.7380   42.8110 C.3   127  TYR127      0.1639
     39  C        -39.7170   30.8050   43.7860 C.2   127  TYR127      0.2290
     40  O        -39.6490   31.1670   44.9700 O.2   127  TYR127     -0.2864
     41  CB       -41.9730   31.7710   43.0540 C.3   127  TYR127      0.0560
     42  CG       -42.7010   30.4860   42.7430 C.ar  127  TYR127     -0.0198
     43  CD1      -42.7550   29.4490   43.6660 C.ar  127  TYR127     -0.0009
     44  CD2      -43.3360   30.3050   41.5250 C.ar  127  TYR127     -0.0009
     45  CE1      -43.4140   28.2620   43.3870 C.ar  127  TYR127      0.0417
     46  CE2      -43.9890   29.1190   41.2240 C.ar  127  TYR127      0.0417
     47  CZ       -44.0230   28.0940   42.1540 C.ar  127  TYR127      0.1957
     48  OH       -44.6690   26.9310   41.8540 O.3   127  TYR127     -0.2866
     49  N        -35.2820   34.4840   41.4550 N.3   132  GLN132     -0.1231
     50  CA       -36.7640   34.6280   41.3010 C.3   132  GLN132      0.1698
     51  C        -37.1410   34.6000   39.8070 C.2   132  GLN132      0.2592
     52  O        -38.1380   35.2160   39.4130 O.2   132  GLN132     -0.2718
     53  CB       -37.2510   35.9080   41.9890 C.3   132  GLN132      0.0381
     54  CG       -37.0750   35.8940   43.5020 C.3   132  GLN132      0.0905
     55  CD       -38.0680   34.9810   44.1830 C.2   132  GLN132      0.2608
     56  OE1      -39.2790   35.1690   44.0830 O.2   132  GLN132     -0.2717
     57  NE2      -37.5640   33.9750   44.8860 N.am  132  GLN132     -0.0878
     58  N        -36.3680   33.8830   39.0010 N.am  133  ASP133     -0.1960
     59  CA       -36.5220   33.7960   37.5290 C.3   133  ASP133      0.1840
     60  C        -36.2150   32.3510   37.1080 C.2   133  ASP133      0.2622
     61  O        -35.2190   31.7800   37.6090 O.2   133  ASP133     -0.2715
     62  CB       -35.6040   34.8310   36.8690 C.3   133  ASP133      0.1450
     63  CG       -35.7370   34.9490   35.3610 C.2   133  ASP133      0.3671
     64  OD1      -36.6940   34.3480   34.8050 O.co2 133  ASP133     -0.2456
     65  OD2      -34.8850   35.6520   34.7480 O.co2 133  ASP133     -0.2456
     66  N        -37.0180   31.7850   36.2030 N.am  134  GLU134     -0.1963
     67  CA       -36.7600   30.4580   35.5860 C.3   134  GLU134      0.1733
     68  C        -35.4930   30.5660   34.7180 C.2   134  GLU134      0.2616
     69  O        -34.8500   29.5270   34.4810 O.2   134  GLU134     -0.2715
     70  CB       -37.9880   29.9770   34.8010 C.3   134  GLU134      0.0429
     71  CG       -38.2220   30.7380   33.5040 C.3   134  GLU134      0.1163
     72  CD       -39.4720   30.3680   32.7200 C.2   134  GLU134      0.3649
     73  OE1      -40.1530   31.3020   32.2220 O.co2 134  GLU134     -0.2457
     74  OE2      -39.7450   29.1500   32.5770 O.co2 134  GLU134     -0.2457
     75  N        -35.1360   31.7820   34.2990 N.am  135  ASN135     -0.1972
     76  CA       -34.0430   32.0720   33.3350 C.3   135  ASN135      0.1688
     77  C        -32.7520   32.4400   34.0670 C.2   135  ASN135      0.2292
     78  O        -32.8000   32.6820   35.2930 O.2   135  ASN135     -0.2864
     79  CB       -34.4400   33.1990   32.3820 C.3   135  ASN135      0.1181
     80  CG       -35.7070   32.8620   31.6310 C.2   135  ASN135      0.2629
     81  OD1      -35.8020   31.7710   31.0700 O.2   135  ASN135     -0.2716
     82  ND2      -36.6830   33.7620   31.6450 N.am  135  ASN135     -0.0877
@<TRIPOS>BOND
     1    81    80    2
     2    80    82   am
     3    80    79    1
     4    73    72   ar
     5    79    76    1
     6    74    72   ar
     7     3     4    2
     8     3     2    1
     9    72    71    1
    10    76    77    1
    11    76    75    1
    12     1     2    1
    13     7     6    2
    14    71    70    1
    15     2     5    1
    16    77    78    2
    17    75    68   am
    18    69    68    2
    19     6     5    1
    20     6     8   am
    21    68    67    1
    22    65    63   ar
    23    70    67    1
    24    64    63   ar
    25    63    62    1
    26    67    66    1
    27    26    25   ar
    28    26    24   ar
    29    66    60   am
    30    13    14    1
    31    13    10    1
    32    25    23   ar
    33    14    15    1
    34    24    22   ar
    35    62    59    1
    36    60    59    1
    37    60    61    2
    38    10     9    1
    39    10    11    1
    40    59    58    1
    41    15     9    1
    42    12    11    2
    43    23    21   ar
    44    22    21   ar
    45    11    16   am
    46    21    20    1
    47    33    34    1
    48    58    51   am
    49    34    35    1
    50    16    17    1
    51    52    51    2
    52    51    50    1
    53    20    17    1
    54    17    18    1
    55    35    37   am
    56    35    36    2
    57    46    44   ar
    58    46    47   ar
    59    50    49    1
    60    50    53    1
    61    37    38    1
    62    44    42   ar
    63    18    19    2
    64    18    27   am
    65    48    47    1
    66    53    54    1
    67    47    45   ar
    68    27    28    1
    69    42    41    1
    70    42    43   ar
    71    38    41    1
    72    38    39    1
    73    45    43   ar
    74    54    55    1
    75    39    40    2
    76    28    31    1
    77    28    29    1
    78    56    55    2
    79    55    57   am
    80    31    32    1
    81    30    29    2
