@<TRIPOS>MOLECULE
tmp/6iunB00.pdb
 185 180 0 0 0
SMALL
GASTEIGER

@<TRIPOS>ATOM
      1  N         31.7890  -20.6900  -22.0570 N.3   297  ILE297     -0.1231
      2  CA        30.7420  -21.0510  -23.0160 C.3   297  ILE297      0.1692
      3  C         29.3490  -20.7490  -22.4270 C.2   297  ILE297      0.2593
      4  O         28.7890  -21.5550  -21.6610 O.2   297  ILE297     -0.2718
      5  CB        30.7530  -22.5590  -23.3630 C.3   297  ILE297      0.0266
      6  CG1       32.1770  -23.1250  -23.5900 C.3   297  ILE297      0.0019
      7  CG2       29.8300  -22.8330  -24.5340 C.3   297  ILE297      0.0020
      8  CD1       32.9330  -22.4800  -24.7100 C.3   297  ILE297      0.0001
      9  N         28.7810  -19.5930  -22.7770 N.am  298  GLY298     -0.1942
     10  CA        27.4350  -19.1990  -22.2970 C.3   298  GLY298      0.2014
     11  C         27.4830  -17.7660  -21.8480 C.2   298  GLY298      0.2639
     12  O         28.3320  -17.3960  -21.0420 O.2   298  GLY298     -0.2714
     13  N         26.5890  -16.9470  -22.3970 N.am  299  ALA299     -0.1963
     14  CA        26.5800  -15.4990  -22.1520 C.3   299  ALA299      0.1728
     15  C         25.5750  -15.1370  -21.0780 C.2   299  ALA299      0.2617
     16  O         25.3940  -13.9560  -20.7380 O.2   299  ALA299     -0.2715
     17  CB        26.2660  -14.7440  -23.4290 C.3   299  ALA299      0.0334
     18  N         24.9350  -16.1580  -20.5240 N.am  300  GLY300     -0.1940
     19  CA        23.9630  -15.9450  -19.5090 C.3   300  GLY300      0.2014
     20  C         24.3760  -15.5520  -18.1220 C.2   300  GLY300      0.2640
     21  O         25.4960  -15.0640  -17.8840 O.2   300  GLY300     -0.2714
     22  N         23.4510  -15.7960  -17.1940 N.am  301  THR301     -0.1936
     23  CA        23.5830  -15.2710  -15.8400 C.3   301  THR301      0.2028
     24  C         24.8120  -15.8300  -15.0920 C.2   301  THR301      0.2642
     25  O         25.5670  -15.0820  -14.4660 O.2   301  THR301     -0.2714
     26  CB        22.2430  -15.2470  -15.0310 C.3   301  THR301      0.1808
     27  OG1       22.5440  -15.1960  -13.6400 O.3   301  THR301     -0.2208
     28  CG2       21.2780  -16.4290  -15.2800 C.3   301  THR301      0.0379
     29  N         25.0990  -17.1060  -15.2360 N.am  302  MET302     -0.1962
     30  CA        26.3480  -17.5950  -14.6720 C.3   302  MET302      0.1736
     31  C         27.5150  -17.3460  -15.5910 C.2   302  MET302      0.2617
     32  O         28.5090  -16.8210  -15.0980 O.2   302  MET302     -0.2715
     33  CB        26.3150  -19.0360  -14.2810 C.3   302  MET302      0.0427
     34  CG        25.2200  -19.4070  -13.2390 C.3   302  MET302      0.0599
     35  SD        25.5150  -19.1800  -11.5070 S.3   302  MET302     -0.1393
     36  CE        27.0850  -20.0400  -11.2680 C.3   302  MET302      0.0692
     37  N         27.4050  -17.6970  -16.8840 N.am  303  GLY303     -0.1955
     38  CA        28.3890  -17.2530  -17.8970 C.3   303  GLY303      0.1869
     39  C         28.9760  -15.8620  -17.6230 C.2   303  GLY303      0.2309
     40  O         30.1790  -15.6970  -17.3610 O.2   303  GLY303     -0.2863
     41  N         31.6520  -17.4590  -25.6780 N.3   320  LEU320     -0.1231
     42  CA        31.0630  -18.0700  -26.8730 C.3   320  LEU320      0.1693
     43  C         29.5750  -18.2970  -26.6480 C.2   320  LEU320      0.2592
     44  O         29.1700  -18.6610  -25.5560 O.2   320  LEU320     -0.2718
     45  CB        31.7190  -19.4370  -27.2010 C.3   320  LEU320      0.0284
     46  CG        31.2300  -20.2610  -28.4340 C.3   320  LEU320      0.0019
     47  CD1       32.3680  -21.0720  -29.0220 C.3   320  LEU320      0.0001
     48  CD2       30.0490  -21.2100  -28.2100 C.3   320  LEU320      0.0001
     49  N         28.7720  -18.0940  -27.6970 N.am  321  GLU321     -0.1966
     50  CA        27.3490  -18.5160  -27.7420 C.3   321  GLU321      0.1733
     51  C         27.0330  -18.8850  -29.1640 C.2   321  GLU321      0.2617
     52  O         27.8650  -18.7310  -30.0510 O.2   321  GLU321     -0.2715
     53  CB        26.3900  -17.3610  -27.3610 C.3   321  GLU321      0.0429
     54  CG        26.1650  -17.0720  -25.8730 C.3   321  GLU321      0.1163
     55  CD        24.8910  -17.6850  -25.2940 C.2   321  GLU321      0.3649
     56  OE1       24.3680  -18.6690  -25.8600 O.co2 321  GLU321     -0.2457
     57  OE2       24.4160  -17.1860  -24.2450 O.co2 321  GLU321     -0.2457
     58  N         25.8040  -19.3240  -29.3800 N.am  322  THR322     -0.1951
     59  CA        25.1840  -19.2390  -30.7010 C.3   322  THR322      0.1897
     60  C         24.8760  -17.7740  -31.1500 C.2   322  THR322      0.2313
     61  O         25.5980  -17.2390  -32.0000 O.2   322  THR322     -0.2863
     62  CB        23.9250  -20.1060  -30.7600 C.3   322  THR322      0.1794
     63  OG1       24.1640  -21.3070  -30.0050 O.3   322  THR322     -0.2208
     64  CG2       23.5700  -20.4400  -32.2240 C.3   322  THR322      0.0378
     65  N         22.4690  -12.3340  -28.0060 N.3   326  ALA326     -0.1245
     66  CA        22.7600  -13.0970  -26.7660 C.3   326  ALA326      0.1562
     67  C         24.1010  -12.7260  -26.1060 C.2   326  ALA326      0.2260
     68  O         24.2070  -12.7840  -24.8880 O.2   326  ALA326     -0.2867
     69  CB        22.7050  -14.5900  -27.0140 C.3   326  ALA326      0.0290
     70  N         33.9420  -21.3600  -32.3210 N.3   365  TYR365     -0.1241
     71  CA        34.7330  -22.3200  -31.5160 C.3   365  TYR365      0.1605
     72  C         36.2560  -22.1400  -31.7630 C.2   365  TYR365      0.2264
     73  O         37.0460  -22.1290  -30.8070 O.2   365  TYR365     -0.2867
     74  CB        34.2500  -23.7810  -31.6910 C.3   365  TYR365      0.0534
     75  CG        33.1220  -24.1620  -30.7290 C.ar  365  TYR365     -0.0201
     76  CD1       33.3410  -24.1910  -29.3490 C.ar  365  TYR365     -0.0009
     77  CD2       31.8250  -24.4840  -31.1880 C.ar  365  TYR365     -0.0009
     78  CE1       32.3160  -24.5150  -28.4490 C.ar  365  TYR365      0.0417
     79  CE2       30.7920  -24.8160  -30.2970 C.ar  365  TYR365      0.0417
     80  CZ        31.0420  -24.8290  -28.9200 C.ar  365  TYR365      0.1957
     81  OH        30.0590  -25.1640  -28.0000 O.3   365  TYR365     -0.2866
     82  N         29.1390  -23.2740  -19.2940 N.3   377  ALA377     -0.1231
     83  CA        27.9960  -22.8280  -18.4530 C.3   377  ALA377      0.1694
     84  C         26.7170  -22.7090  -19.2830 C.2   377  ALA377      0.2592
     85  O         26.1580  -21.6340  -19.4080 O.2   377  ALA377     -0.2718
     86  CB        28.3290  -21.4820  -17.8160 C.3   377  ALA377      0.0304
     87  N         26.2820  -23.8200  -19.8670 N.am  378  VAL378     -0.1966
     88  CA        25.1620  -23.8560  -20.8000 C.3   378  VAL378      0.1727
     89  C         24.0330  -24.6620  -20.1550 C.2   378  VAL378      0.2616
     90  O         24.1960  -25.0750  -19.0100 O.2   378  VAL378     -0.2715
     91  CB        25.5680  -24.4740  -22.1750 C.3   378  VAL378      0.0290
     92  CG1       26.7270  -23.6880  -22.7730 C.3   378  VAL378      0.0023
     93  CG2       25.8790  -25.9840  -22.0990 C.3   378  VAL378      0.0023
     94  N         22.9330  -24.9150  -20.8840 N.am  379  PHE379     -0.1960
     95  CA        21.6960  -25.5490  -20.3300 C.3   379  PHE379      0.1771
     96  C         22.0320  -26.8440  -19.5390 C.2   379  PHE379      0.2619
     97  O         22.9860  -27.5220  -19.8980 O.2   379  PHE379     -0.2715
     98  CB        20.6310  -25.7700  -21.4680 C.3   379  PHE379      0.0574
     99  CG        19.1590  -25.6480  -21.0230 C.ar  379  PHE379     -0.0200
    100  CD1       18.6310  -24.4310  -20.5450 C.ar  379  PHE379     -0.0042
    101  CD2       18.2680  -26.7420  -21.1400 C.ar  379  PHE379     -0.0042
    102  CE1       17.2800  -24.3270  -20.1590 C.ar  379  PHE379     -0.0003
    103  CE2       16.9220  -26.6340  -20.7610 C.ar  379  PHE379     -0.0003
    104  CZ        16.4290  -25.4270  -20.2720 C.ar  379  PHE379     -0.0000
    105  N         21.2940  -27.1370  -18.4440 N.am  380  GLU380     -0.1977
    106  CA        21.5060  -28.3270  -17.5410 C.3   380  GLU380      0.1602
    107  C         20.9360  -29.5970  -18.1740 C.2   380  GLU380      0.2287
    108  O         20.0110  -30.2020  -17.6190 O.2   380  GLU380     -0.2864
    109  CB        20.8150  -28.1440  -16.1430 C.3   380  GLU380      0.0415
    110  CG        21.5790  -28.0130  -14.7920 C.3   380  GLU380      0.1163
    111  CD        22.7300  -28.9860  -14.5160 C.2   380  GLU380      0.3649
    112  OE1       23.7880  -28.8740  -15.1270 O.co2 380  GLU380     -0.2457
    113  OE2       22.6180  -29.8390  -13.6180 O.co2 380  GLU380     -0.2457
    114  N         23.1540  -31.7550  -24.1700 N.3   384  VAL384     -0.1231
    115  CA        23.7590  -30.4810  -24.5930 C.3   384  VAL384      0.1692
    116  C         25.2480  -30.3620  -24.1580 C.2   384  VAL384      0.2591
    117  O         26.0830  -29.7910  -24.8540 O.2   384  VAL384     -0.2718
    118  CB        22.9380  -29.2970  -24.0430 C.3   384  VAL384      0.0266
    119  CG1       23.5430  -27.9580  -24.4610 C.3   384  VAL384      0.0020
    120  CG2       21.4950  -29.4020  -24.5200 C.3   384  VAL384      0.0020
    121  N         25.5420  -30.8710  -22.9740 N.am  385  LYS385     -0.1980
    122  CA        26.8890  -30.9610  -22.4550 C.3   385  LYS385      0.1596
    123  C         27.7570  -31.8780  -23.3620 C.2   385  LYS385      0.2287
    124  O         28.9090  -31.5530  -23.6720 O.2   385  LYS385     -0.2864
    125  CB        26.8390  -31.5620  -21.0440 C.3   385  LYS385      0.0298
    126  CG        26.0280  -30.7850  -20.0120 C.3   385  LYS385      0.0038
    127  CD        26.7520  -29.5300  -19.5880 C.3   385  LYS385      0.0206
    128  CE        25.9710  -28.7640  -18.5260 C.3   385  LYS385      0.1093
    129  NZ        26.0980  -27.2740  -18.6250 N.3   385  LYS385     -0.1314
    130  N         27.3970  -32.5060  -26.5760 N.3   387  THR387     -0.1203
    131  CA        27.7120  -31.7130  -27.7510 C.3   387  THR387      0.1994
    132  C         28.8150  -30.7090  -27.5170 C.2   387  THR387      0.2617
    133  O         29.6880  -30.5550  -28.3550 O.2   387  THR387     -0.2717
    134  CB        26.4420  -31.0090  -28.2750 C.3   387  THR387      0.1784
    135  OG1       25.6400  -31.9960  -28.9220 O.3   387  THR387     -0.2211
    136  CG2       26.7370  -29.8680  -29.2420 C.3   387  THR387      0.0376
    137  N         28.7740  -30.0000  -26.4040 N.am  388  VAL388     -0.1979
    138  CA        29.7730  -28.9300  -26.1820 C.3   388  VAL388      0.1595
    139  C         31.1800  -29.4740  -25.8090 C.2   388  VAL388      0.2287
    140  O         32.2070  -28.9160  -26.2020 O.2   388  VAL388     -0.2864
    141  CB        29.2880  -27.9500  -25.1160 C.3   388  VAL388      0.0276
    142  CG1       30.3780  -26.9140  -24.7470 C.3   388  VAL388      0.0022
    143  CG2       28.0130  -27.2620  -25.6240 C.3   388  VAL388      0.0022
    144  N         30.4720  -25.9650  -15.2640 N.3   405  ASN405     -0.1225
    145  CA        29.7900  -25.3430  -14.1150 C.3   405  ASN405      0.1785
    146  C         28.5380  -26.0990  -13.6610 C.2   405  ASN405      0.2598
    147  O         27.7510  -25.5680  -12.9290 O.2   405  ASN405     -0.2718
    148  CB        29.4290  -23.8940  -14.4940 C.3   405  ASN405      0.1169
    149  CG        28.8270  -23.0990  -13.3400 C.2   405  ASN405      0.2627
    150  OD1       29.3950  -23.0170  -12.2370 O.2   405  ASN405     -0.2716
    151  ND2       27.6890  -22.4780  -13.6040 N.am  405  ASN405     -0.0877
    152  N         28.3480  -27.3300  -14.0930 N.am  406  THR406     -0.1939
    153  CA        27.1490  -28.0930  -13.7220 C.3   406  THR406      0.2028
    154  C         26.9790  -28.3190  -12.2140 C.2   406  THR406      0.2642
    155  O         27.9660  -28.4520  -11.4830 O.2   406  THR406     -0.2714
    156  CB        27.0870  -29.4540  -14.4340 C.3   406  THR406      0.1808
    157  OG1       25.8000  -30.0410  -14.2210 O.3   406  THR406     -0.2208
    158  CG2       28.2260  -30.4360  -13.9160 C.3   406  THR406      0.0379
    159  N         25.7220  -28.4050  -11.7880 N.am  407  SER407     -0.1949
    160  CA        25.3670  -28.5340  -10.3760 C.3   407  SER407      0.1924
    161  C         24.7150  -29.8740  -10.0300 C.2   407  SER407      0.2314
    162  O         24.8700  -30.3700   -8.9160 O.2   407  SER407     -0.2863
    163  CB        24.5910  -27.2580   -9.8550 C.3   407  SER407      0.2116
    164  OG        23.4390  -26.9190  -10.5700 O.3   407  SER407     -0.2180
    165  N         32.0550  -25.5050   -9.9630 N.3   428  HIS428     -0.1226
    166  CA        30.6640  -25.1750   -9.6580 C.3   428  HIS428      0.1752
    167  C         30.5760  -23.8720   -8.8090 C.2   428  HIS428      0.2596
    168  O         30.8040  -23.8890   -7.6070 O.2   428  HIS428     -0.2718
    169  CB        30.0280  -26.3930   -8.9840 C.3   428  HIS428      0.0759
    170  CG        28.6320  -26.1880   -8.5180 C.ar  428  HIS428      0.0818
    171  ND1       28.2570  -26.3860   -7.2080 N.ar  428  HIS428     -0.2268
    172  CD2       27.5070  -25.8550   -9.1810 C.ar  428  HIS428      0.1154
    173  CE1       26.9590  -26.1580   -7.0810 C.ar  428  HIS428      0.1986
    174  NE2       26.4830  -25.8210   -8.2600 N.ar  428  HIS428     -0.2212
    175  N         30.2860  -22.7560   -9.4810 N.am  429  PHE429     -0.1976
    176  CA        30.1660  -21.4010   -8.8810 C.3   429  PHE429      0.1639
    177  C         28.7080  -21.2420   -8.4100 C.2   429  PHE429      0.2290
    178  O         27.7900  -21.8210   -9.0090 O.2   429  PHE429     -0.2864
    179  CB        30.4310  -20.2870   -9.9270 C.3   429  PHE429      0.0560
    180  CG        31.8480  -20.1990  -10.3850 C.ar  429  PHE429     -0.0200
    181  CD1       32.3490  -21.0870  -11.3220 C.ar  429  PHE429     -0.0042
    182  CD2       32.6750  -19.1990   -9.9170 C.ar  429  PHE429     -0.0042
    183  CE1       33.6550  -20.9970  -11.7580 C.ar  429  PHE429     -0.0003
    184  CE2       33.9900  -19.1000  -10.3420 C.ar  429  PHE429     -0.0003
    185  CZ        34.4860  -20.0080  -11.2620 C.ar  429  PHE429     -0.0000
@<TRIPOS>BOND
     1    70    71    1
     2    64    62    1
     3    61    60    2
     4    72    71    1
     5    72    73    2
     6    74    71    1
     7    74    75    1
     8    77    75   ar
     9    77    79   ar
    10    60    59    1
    11    62    59    1
    12    62    63    1
    13    75    76   ar
    14    59    58    1
    15    79    80   ar
    16    52    51    2
    17    58    51   am
    18    76    78   ar
    19   136   134    1
    20    51    50    1
    21    47    46    1
    22   135   134    1
    23    80    78   ar
    24    80    81    1
    25    46    48    1
    26    46    45    1
    27   133   132    2
    28   134   131    1
    29    65    66    1
    30   131   132    1
    31   131   130    1
    32    50    49    1
    33    50    53    1
    34    49    43   am
    35   132   137   am
    36    53    54    1
    37    45    42    1
    38    69    66    1
    39    42    43    1
    40    42    41    1
    41    66    67    1
    42    43    44    2
    43   137   138    1
    44   140   139    2
    45   138   139    1
    46   138   141    1
    47    67    68    2
    48    54    55    1
    49    56    55   ar
    50   143   141    1
    51    55    57   ar
    52   141   142    1
    53   117   116    2
    54     8     6    1
    55   115   114    1
    56   115   116    1
    57   115   118    1
    58     7     5    1
    59   120   118    1
    60   119   118    1
    61   116   121   am
    62   124   123    2
    63     6     5    1
    64    17    14    1
    65     5     2    1
    66   123   122    1
    67     2     3    1
    68     2     1    1
    69   121   122    1
    70     9     3   am
    71     9    10    1
    72    92    91    1
    73   122   125    1
    74     3     4    2
    75    13    14    1
    76    13    11   am
    77    10    11    1
    78    91    93    1
    79    91    88    1
    80    14    15    1
    81    11    12    2
    82    98    99    1
    83    98    95    1
    84   101    99   ar
    85   101   103   ar
    86    15    16    2
    87    15    18   am
    88   125   126    1
    89    99   100   ar
    90    94    95    1
    91    94    89   am
    92    88    89    1
    93    88    87    1
    94   103   104   ar
    95   100   102   ar
    96    18    19    1
    97    95    96    1
    98   104   102   ar
    99    89    90    2
   100   126   127    1
   101    97    96    2
   102    87    84   am
   103   127   128    1
   104    96   105   am
   105    19    20    1
   106    85    84    2
   107    82    83    1
   108    84    83    1
   109   129   128    1
   110    83    86    1
   111   105   106    1
   112   107   108    2
   113   107   106    1
   114    20    21    2
   115    20    22   am
   116    38    39    1
   117    38    37    1
   118    39    40    2
   119   106   109    1
   120    22    23    1
   121    37    31   am
   122   109   110    1
   123    23    24    1
   124    23    26    1
   125    31    32    2
   126    31    30    1
   127    28    26    1
   128   144   145    1
   129    29    24   am
   130    29    30    1
   131   112   111   ar
   132    24    25    2
   133    26    27    1
   134   110   111    1
   135    30    33    1
   136   111   113   ar
   137   148   145    1
   138   148   149    1
   139   156   157    1
   140   156   158    1
   141   156   153    1
   142    33    34    1
   143   145   146    1
   144   152   153    1
   145   152   146   am
   146   153   154    1
   147   146   147    2
   148   151   149   am
   149   149   150    2
   150    34    35    1
   151   154   159   am
   152   154   155    2
   153   159   160    1
   154   183   181   ar
   155   183   185   ar
   156    35    36    1
   157   181   180   ar
   158   185   184   ar
   159   164   163    1
   160   180   179    1
   161   180   182   ar
   162   160   161    1
   163   160   163    1
   164   184   182   ar
   165   161   162    2
   166   165   166    1
   167   179   176    1
   168   166   169    1
   169   166   167    1
   170   175   176    1
   171   175   167   am
   172   172   170   ar
   173   172   174   ar
   174   178   177    2
   175   169   170    1
   176   176   177    1
   177   167   168    2
   178   170   171   ar
   179   174   173   ar
   180   171   173   ar
