@<TRIPOS>MOLECULE
tmp/6iv7B00.pdb
 195 191 0 0 0
SMALL
GASTEIGER

@<TRIPOS>ATOM
      1  N         33.4360   42.5160   34.1080 N.3   175  PHE175     -0.1241
      2  CA        34.6860   42.1230   33.4510 C.3   175  PHE175      0.1605
      3  C         35.7030   41.5620   34.4430 C.2   175  PHE175      0.2264
      4  O         36.3570   40.5470   34.1710 O.2   175  PHE175     -0.2867
      5  CB        35.2900   43.3120   32.7030 C.3   175  PHE175      0.0534
      6  CG        34.5850   43.6480   31.4160 C.ar  175  PHE175     -0.0203
      7  CD1       33.4410   44.4350   31.4220 C.ar  175  PHE175     -0.0042
      8  CD2       35.0730   43.1870   30.1980 C.ar  175  PHE175     -0.0042
      9  CE1       32.7890   44.7450   30.2410 C.ar  175  PHE175     -0.0003
     10  CE2       34.4290   43.5000   29.0070 C.ar  175  PHE175     -0.0003
     11  CZ        33.2780   44.2780   29.0350 C.ar  175  PHE175     -0.0000
     12  N         34.0170   31.4970   27.9300 N.3   188  PHE188     -0.1241
     13  CA        34.1000   32.7460   27.1880 C.3   188  PHE188      0.1605
     14  C         35.1150   32.6390   26.0630 C.2   188  PHE188      0.2264
     15  O         34.8890   33.1410   24.9540 O.2   188  PHE188     -0.2867
     16  CB        34.4520   33.8800   28.1430 C.3   188  PHE188      0.0534
     17  CG        34.5270   35.2220   27.4870 C.ar  188  PHE188     -0.0203
     18  CD1       33.3730   35.9550   27.2540 C.ar  188  PHE188     -0.0042
     19  CD2       35.7500   35.7610   27.1160 C.ar  188  PHE188     -0.0042
     20  CE1       33.4290   37.2030   26.6520 C.ar  188  PHE188     -0.0003
     21  CE2       35.8250   37.0060   26.5050 C.ar  188  PHE188     -0.0003
     22  CZ        34.6570   37.7320   26.2740 C.ar  188  PHE188     -0.0000
     23  N         34.5720   33.1170   21.8960 N.3   192  LEU192     -0.1245
     24  CA        35.2770   34.0000   20.9670 C.3   192  LEU192      0.1561
     25  C         35.5840   33.3260   19.6360 C.2   192  LEU192      0.2260
     26  O         35.8600   34.0280   18.6540 O.2   192  LEU192     -0.2867
     27  CB        36.5820   34.5160   21.5970 C.3   192  LEU192      0.0270
     28  CG        36.3940   35.4310   22.8190 C.3   192  LEU192      0.0019
     29  CD1       37.7180   35.6990   23.5400 C.3   192  LEU192      0.0001
     30  CD2       35.7410   36.7310   22.3950 C.3   192  LEU192      0.0001
     31  N         31.1430   35.9740   13.4940 N.3   196  ARG196     -0.1245
     32  CA        29.9220   36.5020   12.9180 C.3   196  ARG196      0.1563
     33  C         30.0930   36.6980   11.4140 C.2   196  ARG196      0.2260
     34  O         31.1820   37.0150   10.9240 O.2   196  ARG196     -0.2867
     35  CB        29.5340   37.8160   13.6060 C.3   196  ARG196      0.0307
     36  CG        28.8850   37.6080   14.9870 C.3   196  ARG196      0.0489
     37  CD        29.0150   38.8150   15.9130 C.3   196  ARG196      0.2205
     38  NE        28.2350   39.9590   15.4440 N.pl3 196  ARG196     -0.0865
     39  CZ        27.3410   40.6150   16.1870 C.cat 196  ARG196      0.5346
     40  NH1       27.1090   40.2490   17.4460 N.pl3 196  ARG196      0.1354
     41  NH2       26.6730   41.6430   15.6720 N.pl3 196  ARG196      0.1354
     42  N         43.6680   46.0590   15.4880 N.3   224  ASP224     -0.1225
     43  CA        42.4100   45.4280   15.9010 C.3   224  ASP224      0.1805
     44  C         42.3680   45.4520   17.4230 C.2   224  ASP224      0.2598
     45  O         42.9670   44.6000   18.0840 O.2   224  ASP224     -0.2718
     46  CB        42.3630   44.0080   15.3530 C.3   224  ASP224      0.1424
     47  CG        40.9770   43.3680   15.4350 C.2   224  ASP224      0.3668
     48  OD1       40.0390   43.9940   15.9910 O.co2 224  ASP224     -0.2456
     49  OD2       40.8410   42.2090   14.9450 O.co2 224  ASP224     -0.2456
     50  N         41.6690   46.4300   17.9820 N.am  225  ILE225     -0.1966
     51  CA        41.7370   46.7040   19.4130 C.3   225  ILE225      0.1727
     52  C         40.6830   45.8740   20.1390 C.2   225  ILE225      0.2617
     53  O         39.4760   46.0330   19.9100 O.2   225  ILE225     -0.2715
     54  CB        41.5600   48.1990   19.6890 C.3   225  ILE225      0.0290
     55  CG1       42.6880   48.9770   19.0040 C.3   225  ILE225      0.0022
     56  CG2       41.5840   48.4690   21.1650 C.3   225  ILE225      0.0023
     57  CD1       42.4520   50.4740   19.0560 C.3   225  ILE225      0.0001
     58  N         41.1420   45.0070   21.0330 N.am  226  GLY226     -0.1940
     59  CA        40.2390   44.0310   21.6170 C.3   226  GLY226      0.2014
     60  C         39.7260   43.0640   20.5680 C.2   226  GLY226      0.2639
     61  O         38.5390   42.7130   20.5800 O.2   226  GLY226     -0.2714
     62  N         40.6050   42.6080   19.6700 N.am  227  GLY227     -0.1939
     63  CA        40.2760   41.8110   18.5070 C.3   227  GLY227      0.2014
     64  C         39.9870   40.3430   18.7520 C.2   227  GLY227      0.2639
     65  O         39.6130   39.6350   17.8140 O.2   227  GLY227     -0.2714
     66  N         40.1540   39.8530   19.9720 N.am  228  GLY228     -0.1939
     67  CA        39.7080   38.4920   20.2640 C.3   228  GLY228      0.2014
     68  C         40.5840   37.4820   19.5590 C.2   228  GLY228      0.2638
     69  O         41.8120   37.5280   19.6730 O.2   228  GLY228     -0.2714
     70  N         39.9580   36.5680   18.8050 N.am  229  MET229     -0.1976
     71  CA        40.7080   35.6120   17.9890 C.3   229  MET229      0.1605
     72  C         41.3290   36.2410   16.7420 C.2   229  MET229      0.2287
     73  O         42.0790   35.5560   16.0320 O.2   229  MET229     -0.2864
     74  CB        39.8090   34.4330   17.5800 C.3   229  MET229      0.0413
     75  CG        39.2610   33.6030   18.7480 C.3   229  MET229      0.0598
     76  SD        40.5250   32.7070   19.6870 S.3   229  MET229     -0.1393
     77  CE        40.6820   33.7700   21.1100 C.3   229  MET229      0.0692
     78  N         39.6210   37.5840   13.9900 N.3   231  HIS231     -0.1241
     79  CA        38.8850   37.3280   12.7480 C.3   231  HIS231      0.1621
     80  C         38.9440   38.5100   11.7810 C.2   231  HIS231      0.2264
     81  O         39.1190   38.3180   10.5770 O.2   231  HIS231     -0.2867
     82  CB        37.4370   36.9620   13.0710 C.3   231  HIS231      0.0745
     83  CG        37.3170   35.6910   13.8440 C.ar  231  HIS231      0.0817
     84  ND1       36.3500   35.4840   14.8020 N.ar  231  HIS231     -0.2268
     85  CD2       38.0660   34.5610   13.8130 C.ar  231  HIS231      0.1154
     86  CE1       36.5020   34.2790   15.3240 C.ar  231  HIS231      0.1986
     87  NE2       37.5450   33.7020   14.7500 N.ar  231  HIS231     -0.2212
     88  N         45.0540   42.3820   22.2400 N.3   251  ASP251     -0.1225
     89  CA        44.1260   41.8630   23.2490 C.3   251  ASP251      0.1805
     90  C         44.9460   41.5750   24.5010 C.2   251  ASP251      0.2597
     91  O         46.1390   41.8970   24.5660 O.2   251  ASP251     -0.2718
     92  CB        43.3690   40.6230   22.7340 C.3   251  ASP251      0.1424
     93  CG        41.9260   40.5020   23.3060 C.2   251  ASP251      0.3668
     94  OD1       41.7530   40.2230   24.5230 O.co2 251  ASP251     -0.2456
     95  OD2       40.9570   40.6640   22.5270 O.co2 251  ASP251     -0.2456
     96  N         44.3100   40.9760   25.4990 N.am  252  LEU252     -0.1979
     97  CA        45.0300   40.5660   26.6960 C.3   252  LEU252      0.1596
     98  C         45.7010   39.2180   26.4630 C.2   252  LEU252      0.2287
     99  O         45.2180   38.4140   25.6610 O.2   252  LEU252     -0.2864
    100  CB        44.0860   40.4780   27.8850 C.3   252  LEU252      0.0297
    101  CG        43.3060   41.7500   28.2080 C.3   252  LEU252      0.0022
    102  CD1       42.0780   41.4070   29.0630 C.3   252  LEU252      0.0001
    103  CD2       44.1610   42.7950   28.9080 C.3   252  LEU252      0.0001
    104  N         43.8870   35.7190   25.9410 N.3   255  VAL255     -0.1245
    105  CA        43.0950   35.6060   24.7230 C.3   255  VAL255      0.1561
    106  C         43.9990   35.4940   23.5080 C.2   255  VAL255      0.2260
    107  O         43.7180   34.7210   22.5860 O.2   255  VAL255     -0.2867
    108  CB        42.1410   36.8090   24.6180 C.3   255  VAL255      0.0252
    109  CG1       41.7150   37.0340   23.1710 C.3   255  VAL255      0.0019
    110  CG2       40.9480   36.6140   25.5380 C.3   255  VAL255      0.0019
    111  N         47.9260   44.2700   24.7700 N.3   273  HIS273     -0.1226
    112  CA        47.6270   45.6650   25.0400 C.3   273  HIS273      0.1752
    113  C         46.2990   45.7580   25.7670 C.2   273  HIS273      0.2596
    114  O         45.3160   45.1370   25.3440 O.2   273  HIS273     -0.2718
    115  CB        47.5840   46.4910   23.7580 C.3   273  HIS273      0.0759
    116  CG        47.2070   47.9130   24.0140 C.ar  273  HIS273      0.0818
    117  ND1       46.1670   48.5430   23.3660 N.ar  273  HIS273     -0.2268
    118  CD2       47.6760   48.7980   24.9180 C.ar  273  HIS273      0.1154
    119  CE1       46.0470   49.7760   23.8280 C.ar  273  HIS273      0.1986
    120  NE2       46.9500   49.9540   24.7750 N.ar  273  HIS273     -0.2212
    121  N         46.2830   46.5210   26.8590 N.am  274  ASN274     -0.1960
    122  CA        45.0640   46.8090   27.5970 C.3   274  ASN274      0.1819
    123  C         44.4710   48.0990   27.0400 C.2   274  ASN274      0.2621
    124  O         45.1090   49.1620   27.1130 O.2   274  ASN274     -0.2715
    125  CB        45.3640   46.9270   29.0910 C.3   274  ASN274      0.1195
    126  CG        44.1050   47.0160   29.9390 C.2   274  ASN274      0.2630
    127  OD1       43.1530   47.6910   29.5740 O.2   274  ASN274     -0.2716
    128  ND2       44.1210   46.3620   31.0950 N.am  274  ASN274     -0.0877
    129  N         43.2540   48.0120   26.4830 N.am  275  PHE275     -0.1960
    130  CA        42.7210   49.1930   25.8140 C.3   275  PHE275      0.1771
    131  C         42.2560   50.2680   26.7980 C.2   275  PHE275      0.2619
    132  O         41.8280   51.3440   26.3630 O.2   275  PHE275     -0.2715
    133  CB        41.6180   48.8280   24.7860 C.3   275  PHE275      0.0574
    134  CG        40.3960   48.0460   25.3310 C.ar  275  PHE275     -0.0200
    135  CD1       39.6500   48.4930   26.3960 C.ar  275  PHE275     -0.0042
    136  CD2       39.9790   46.8800   24.6860 C.ar  275  PHE275     -0.0042
    137  CE1       38.5340   47.7690   26.8540 C.ar  275  PHE275     -0.0003
    138  CE2       38.8660   46.1650   25.1180 C.ar  275  PHE275     -0.0003
    139  CZ        38.1410   46.6120   26.2050 C.ar  275  PHE275     -0.0000
    140  N         42.3810   50.0380   28.1040 N.am  276  HIS276     -0.1973
    141  CA        42.2520   51.1370   29.0500 C.3   276  HIS276      0.1656
    142  C         43.5690   51.9040   29.2490 C.2   276  HIS276      0.2291
    143  O         43.6360   52.7710   30.1320 O.2   276  HIS276     -0.2864
    144  CB        41.7650   50.6190   30.4050 C.3   276  HIS276      0.0771
    145  CG        40.4070   49.9820   30.3640 C.ar  276  HIS276      0.0820
    146  ND1       39.2570   50.6950   30.1190 N.ar  276  HIS276     -0.2267
    147  CD2       40.0210   48.6970   30.5510 C.ar  276  HIS276      0.1154
    148  CE1       38.2150   49.8780   30.1600 C.ar  276  HIS276      0.1986
    149  NE2       38.6540   48.6580   30.4190 N.ar  276  HIS276     -0.2212
    150  N         35.5850   46.6060   17.2360 N.3   290  ARG290     -0.1231
    151  CA        34.3770   45.8480   16.9110 C.3   290  ARG290      0.1694
    152  C         33.7540   45.3160   18.1920 C.2   290  ARG290      0.2592
    153  O         34.3660   44.5010   18.8950 O.2   290  ARG290     -0.2718
    154  CB        34.6630   44.6880   15.9550 C.3   290  ARG290      0.0321
    155  CG        33.3880   43.9570   15.5080 C.3   290  ARG290      0.0489
    156  CD        33.5810   43.2530   14.1860 C.3   290  ARG290      0.2205
    157  NE        34.4440   42.0890   14.3480 N.pl3 290  ARG290     -0.0865
    158  CZ        34.9740   41.3930   13.3470 C.cat 290  ARG290      0.5346
    159  NH1       34.7540   41.7550   12.0930 N.pl3 290  ARG290      0.1354
    160  NH2       35.7160   40.3240   13.6060 N.pl3 290  ARG290      0.1354
    161  N         32.5270   45.7610   18.4780 N.am  291  LEU291     -0.1966
    162  CA        31.7760   45.2750   19.6260 C.3   291  LEU291      0.1728
    163  C         32.5430   45.4840   20.9300 C.2   291  LEU291      0.2616
    164  O         32.5030   44.6530   21.8350 O.2   291  LEU291     -0.2715
    165  CB        31.3890   43.8070   19.4390 C.3   291  LEU291      0.0311
    166  CG        30.5050   43.5570   18.2060 C.3   291  LEU291      0.0022
    167  CD1       30.3270   42.0640   17.9650 C.3   291  LEU291      0.0001
    168  CD2       29.1370   44.2270   18.3290 C.3   291  LEU291      0.0001
    169  N         33.2360   46.6190   21.0380 N.am  292  ILE292     -0.1977
    170  CA        33.9540   46.9410   22.2640 C.3   292  ILE292      0.1596
    171  C         33.1630   47.9900   23.0190 C.2   292  ILE292      0.2287
    172  O         32.8550   47.8320   24.2110 O.2   292  ILE292     -0.2864
    173  CB        35.3740   47.4760   21.9650 C.3   292  ILE292      0.0276
    174  CG1       36.2210   46.4060   21.2830 C.3   292  ILE292      0.0022
    175  CG2       36.0400   47.9500   23.2620 C.3   292  ILE292      0.0022
    176  CD1       36.1760   45.0660   21.9610 C.3   292  ILE292      0.0001
    177  N         30.0220   47.7630   25.2330 N.3   295  ASP295     -0.1225
    178  CA        30.1350   47.1250   26.5360 C.3   295  ASP295      0.1805
    179  C         30.4190   48.1130   27.6550 C.2   295  ASP295      0.2597
    180  O         30.5770   47.6920   28.8040 O.2   295  ASP295     -0.2718
    181  CB        31.2440   46.0660   26.5220 C.3   295  ASP295      0.1424
    182  CG        30.8720   44.8230   25.7270 C.2   295  ASP295      0.3668
    183  OD1       29.6720   44.5930   25.4540 O.co2 295  ASP295     -0.2456
    184  OD2       31.8050   44.0610   25.3910 O.co2 295  ASP295     -0.2456
    185  N         30.4820   49.4070   27.3560 N.am  296  PHE296     -0.1976
    186  CA        30.8750   50.3590   28.3790 C.3   296  PHE296      0.1639
    187  C         29.9070   51.5310   28.4090 C.2   296  PHE296      0.2290
    188  O         29.4570   51.9880   27.3490 O.2   296  PHE296     -0.2864
    189  CB        32.3140   50.8680   28.1190 C.3   296  PHE296      0.0560
    190  CG        33.3470   49.7730   28.1740 C.ar  296  PHE296     -0.0200
    191  CD1       33.8380   49.3410   29.3870 C.ar  296  PHE296     -0.0042
    192  CD2       33.7880   49.1500   27.0180 C.ar  296  PHE296     -0.0042
    193  CE1       34.7560   48.3130   29.4520 C.ar  296  PHE296     -0.0003
    194  CE2       34.6950   48.1260   27.0820 C.ar  296  PHE296     -0.0003
    195  CZ        35.1810   47.7030   28.3080 C.ar  296  PHE296     -0.0000
@<TRIPOS>BOND
     1    81    80    2
     2    34    33    2
     3    33    32    1
     4    80    79    1
     5   159   158    1
     6    79    82    1
     7    79    78    1
     8    32    31    1
     9    32    35    1
    10    82    83    1
    11   158   160    1
    12   158   157    2
    13    35    36    1
    14    85    83   ar
    15    85    87   ar
    16    83    84   ar
    17   156   157    1
    18   156   155    1
    19    87    86   ar
    20    84    86   ar
    21    49    47   ar
    22    36    37    1
    23    46    47    1
    24    46    43    1
    25    47    48   ar
    26    38    37    1
    27    38    39    2
    28    42    43    1
    29   155   154    1
    30    41    39    1
    31    43    44    1
    32   154   151    1
    33    73    72    2
    34    39    40    1
    35    72    71    1
    36   151   150    1
    37   151   152    1
    38    44    50   am
    39    44    45    2
    40    74    71    1
    41    74    75    1
    42    65    64    2
    43   167   166    1
    44    50    51    1
    45    71    70    1
    46   152   161   am
    47   152   153    2
    48   166   168    1
    49   166   165    1
    50   161   162    1
    51    63    64    1
    52    63    62    1
    53    26    25    2
    54    75    76    1
    55    64    66   am
    56    70    68   am
    57    55    57    1
    58    55    54    1
    59    51    54    1
    60    51    52    1
    61   165   162    1
    62    68    69    2
    63    68    67    1
    64   162   163    1
    65    25    24    1
    66    62    60   am
    67    76    77    1
    68    54    56    1
    69    53    52    2
    70    66    67    1
    71    52    58   am
    72    60    61    2
    73    60    59    1
    74   163   169   am
    75   163   164    2
    76    24    27    1
    77    24    23    1
    78    58    59    1
    79   169   170    1
    80   174   176    1
    81   174   173    1
    82    27    28    1
    83   173   170    1
    84   173   175    1
    85    88    89    1
    86   170   171    1
    87    30    28    1
    88    95    93   ar
    89   107   106    2
    90    92    89    1
    91    92    93    1
    92    28    29    1
    93   171   172    2
    94   109   108    1
    95    89    90    1
    96    93    94   ar
    97   117   119   ar
    98   117   116   ar
    99   106   105    1
   100   115   116    1
   101   115   112    1
   102   119   120   ar
   103   116   118   ar
   104    90    91    2
   105    90    96   am
   106   108   105    1
   107   108   110    1
   108   136   138   ar
   109   136   134   ar
   110   105   104    1
   111   111   112    1
   112   120   118   ar
   113   133   134    1
   114   133   130    1
   115    15    14    2
   116   112   113    1
   117   138   139   ar
   118   177   178    1
   119   134   135   ar
   120   114   113    2
   121   184   182   ar
   122   183   182   ar
   123    96    97    1
   124    99    98    2
   125   182   181    1
   126   113   121   am
   127   130   129    1
   128   130   131    1
   129    14    13    1
   130   139   137   ar
   131    22    21   ar
   132    22    20   ar
   133   132   131    2
   134   135   137   ar
   135    98    97    1
   136   129   123   am
   137    21    19   ar
   138   181   178    1
   139   178   179    1
   140    20    18   ar
   141    97   100    1
   142   131   140   am
   143   121   122    1
   144   192   194   ar
   145   192   190   ar
   146   123   124    2
   147   123   122    1
   148   194   195   ar
   149    19    17   ar
   150    13    12    1
   151    13    16    1
   152    18    17   ar
   153   188   187    2
   154   185   179   am
   155   185   186    1
   156    17    16    1
   157   122   125    1
   158   179   180    2
   159   100   101    1
   160   140   141    1
   161   189   190    1
   162   189   186    1
   163   190   191   ar
   164   101   103    1
   165   101   102    1
   166   195   193   ar
   167   186   187    1
   168    10    11   ar
   169    10     8   ar
   170    11     9   ar
   171   141   142    1
   172   141   144    1
   173   125   126    1
   174   142   143    2
   175   191   193   ar
   176   127   126    2
   177   126   128   am
   178   146   148   ar
   179   146   145   ar
   180   148   149   ar
   181     8     6   ar
   182     9     7   ar
   183   145   144    1
   184   145   147   ar
   185   149   147   ar
   186     6     7   ar
   187     6     5    1
   188     5     2    1
   189     2     1    1
   190     2     3    1
   191     4     3    2
