@<TRIPOS>MOLECULE
tmp/6ivxC01.pdb
 223 216 0 0 0
SMALL
GASTEIGER

@<TRIPOS>ATOM
      1  N         13.4160  -23.4560  -26.9850 N.3    21  GLN21      -0.1231
      2  CA        14.8430  -23.7070  -27.3210 C.3    21  GLN21       0.1698
      3  C         14.9130  -24.0070  -28.8170 C.2    21  GLN21       0.2592
      4  O         15.6350  -23.2760  -29.5180 O.2    21  GLN21      -0.2718
      5  CB        15.5150  -24.7870  -26.4400 C.3    21  GLN21       0.0381
      6  CG        17.0350  -24.7500  -26.5360 C.3    21  GLN21       0.0905
      7  CD        17.8050  -25.7030  -25.6500 C.2    21  GLN21       0.2608
      8  OE1       17.2780  -26.3360  -24.7430 O.2    21  GLN21      -0.2717
      9  NE2       19.1130  -25.7570  -25.8670 N.am   21  GLN21      -0.0878
     10  N         14.2560  -25.0610  -29.2950 N.am   22  LEU22      -0.1980
     11  CA        14.1450  -25.3690  -30.7440 C.3    22  LEU22       0.1596
     12  C         12.6620  -25.4350  -31.0860 C.2    22  LEU22       0.2287
     13  O         11.8850  -26.0130  -30.2850 O.2    22  LEU22      -0.2864
     14  CB        14.8790  -26.6530  -31.0570 C.3    22  LEU22       0.0297
     15  CG        16.4050  -26.5980  -30.9860 C.3    22  LEU22       0.0022
     16  CD1       16.9480  -27.9940  -31.1840 C.3    22  LEU22       0.0001
     17  CD2       16.9870  -25.6880  -32.0360 C.3    22  LEU22       0.0001
     18  N         12.7200  -29.7250  -35.3090 N.3    27  LEU27      -0.1245
     19  CA        13.0130  -31.0910  -34.7910 C.3    27  LEU27       0.1561
     20  C         12.3800  -32.1420  -35.7090 C.2    27  LEU27       0.2260
     21  O         13.0590  -33.0970  -36.0210 O.2    27  LEU27      -0.2867
     22  CB        12.5200  -31.2390  -33.3440 C.3    27  LEU27       0.0270
     23  CG        13.3330  -30.4380  -32.3160 C.3    27  LEU27       0.0019
     24  CD1       12.6750  -30.4990  -30.9340 C.3    27  LEU27       0.0001
     25  CD2       14.7630  -30.9400  -32.2670 C.3    27  LEU27       0.0001
     26  N         31.0810  -36.3980  -21.7680 N.3    52  TRP52      -0.1241
     27  CA        30.3290  -35.8620  -20.5960 C.3    52  TRP52       0.1605
     28  C         30.3040  -34.3260  -20.6050 C.2    52  TRP52       0.2264
     29  O         29.2480  -33.7540  -20.1840 O.2    52  TRP52      -0.2867
     30  CB        30.8830  -36.3980  -19.2780 C.3    52  TRP52       0.0550
     31  CG        30.1410  -37.6060  -18.8150 C.ar   52  TRP52       0.0003
     32  CD1       30.6410  -38.8540  -18.6130 C.ar   52  TRP52       0.0946
     33  CD2       28.7430  -37.6820  -18.5160 C.ar   52  TRP52       0.0152
     34  NE1       29.6610  -39.7090  -18.1930 N.ar   52  TRP52      -0.2442
     35  CE2       28.4810  -39.0230  -18.1470 C.ar   52  TRP52       0.0810
     36  CE3       27.6900  -36.7660  -18.5470 C.ar   52  TRP52       0.0012
     37  CZ2       27.1970  -39.4660  -17.8470 C.ar   52  TRP52       0.0191
     38  CZ3       26.4210  -37.2010  -18.2340 C.ar   52  TRP52       0.0001
     39  CH2       26.1870  -38.5350  -17.8720 C.ar   52  TRP52       0.0015
     40  N         27.6180  -33.1540  -23.1960 N.3    55  CYS55      -0.1292
     41  CA        26.2850  -33.4920  -22.6690 C.3    55  CYS55       0.1363
     42  C         25.9160  -32.5550  -21.5060 C.3    55  CYS55       0.2019
     43  O         24.7400  -31.9980  -21.5150 O.3    55  CYS55      -0.2188
     44  CB        26.2680  -34.9570  -22.2580 C.3    55  CYS55       0.0903
     45  SG        26.4020  -36.0720  -23.6810 S.3    55  CYS55      -0.0805
     46  N         27.2050  -29.5490  -20.9860 N.3    57  HIS57      -0.1226
     47  CA        26.9940  -28.2270  -21.6400 C.3    57  HIS57       0.1752
     48  C         25.5470  -28.1280  -22.1710 C.2    57  HIS57       0.2596
     49  O         24.9380  -27.0360  -22.0370 O.2    57  HIS57      -0.2718
     50  CB        28.0560  -27.9460  -22.7120 C.3    57  HIS57       0.0759
     51  CG        27.7040  -26.8110  -23.6150 C.ar   57  HIS57       0.0818
     52  ND1       27.8490  -25.4810  -23.2380 N.ar   57  HIS57      -0.2268
     53  CD2       27.1770  -26.8050  -24.8580 C.ar   57  HIS57       0.1154
     54  CE1       27.4400  -24.7040  -24.2210 C.ar   57  HIS57       0.1986
     55  NE2       27.0150  -25.4900  -25.2220 N.ar   57  HIS57      -0.2212
     56  N         24.9940  -29.2000  -22.7600 N.am   58  HIS58      -0.1961
     57  CA        23.6260  -29.1760  -23.3510 C.3    58  HIS58       0.1787
     58  C         22.5620  -29.1800  -22.2330 C.2    58  HIS58       0.2620
     59  O         21.5630  -28.3960  -22.3320 O.2    58  HIS58      -0.2715
     60  CB        23.4280  -30.3660  -24.3010 C.3    58  HIS58       0.0785
     61  CG        24.2470  -30.2960  -25.5410 C.ar   58  HIS58       0.0821
     62  ND1       24.3110  -29.1660  -26.3060 N.ar   58  HIS58      -0.2267
     63  CD2       25.0210  -31.2090  -26.1550 C.ar   58  HIS58       0.1154
     64  CE1       25.0990  -29.3720  -27.3470 C.ar   58  HIS58       0.1986
     65  NE2       25.5230  -30.6260  -27.2840 N.ar   58  HIS58      -0.2212
     66  N         22.7630  -30.0220  -21.2000 N.am   59  LEU59      -0.1977
     67  CA        21.8760  -30.0470  -20.0190 C.3    59  LEU59       0.1596
     68  C         21.8070  -28.6510  -19.3720 C.2    59  LEU59       0.2287
     69  O         20.6590  -28.1830  -19.0600 O.2    59  LEU59      -0.2864
     70  CB        22.3620  -31.1000  -19.0160 C.3    59  LEU59       0.0297
     71  CG        22.0240  -32.5540  -19.3670 C.3    59  LEU59       0.0022
     72  CD1       22.6770  -33.5080  -18.3930 C.3    59  LEU59       0.0001
     73  CD2       20.5350  -32.7940  -19.3740 C.3    59  LEU59       0.0001
     74  N         22.5800  -25.6560  -20.7530 N.3    61  GLU61      -0.1231
     75  CA        21.8720  -24.7840  -21.7080 C.3    61  GLU61       0.1699
     76  C         20.3670  -25.0250  -21.5030 C.2    61  GLU61       0.2592
     77  O         19.5990  -24.0200  -21.3940 O.2    61  GLU61      -0.2718
     78  CB        22.3880  -25.0690  -23.1200 C.3    61  GLU61       0.0402
     79  CG        22.0140  -24.0430  -24.1940 C.3    61  GLU61       0.1161
     80  CD        22.7130  -22.6870  -24.2220 C.2    61  GLU61       0.3649
     81  OE1       23.2000  -22.2250  -23.1710 O.co2  61  GLU61      -0.2457
     82  OE2       22.7730  -22.0950  -25.3190 O.co2  61  GLU61      -0.2457
     83  N         19.9510  -26.2990  -21.3780 N.am   62  ALA62      -0.1980
     84  CA        18.5190  -26.6380  -21.3310 C.3    62  ALA62       0.1597
     85  C         17.9440  -26.0590  -20.0400 C.2    62  ALA62       0.2287
     86  O         16.8670  -25.5080  -20.0540 O.2    62  ALA62      -0.2864
     87  CB        18.3280  -28.1360  -21.4610 C.3    62  ALA62       0.0319
     88  N         13.3390  -30.3380  -18.1580 N.3    96  VAL96      -0.1245
     89  CA        14.2830  -30.7010  -19.2610 C.3    96  VAL96       0.1561
     90  C         13.9280  -32.1150  -19.7550 C.2    96  VAL96       0.2260
     91  O         13.5970  -32.2540  -20.9600 O.2    96  VAL96      -0.2867
     92  CB        15.7680  -30.5520  -18.8330 C.3    96  VAL96       0.0252
     93  CG1       16.7270  -31.0110  -19.9160 C.3    96  VAL96       0.0019
     94  CG2       16.1250  -29.0950  -18.4840 C.3    96  VAL96       0.0019
     95  N         12.7040  -32.8370  -23.5570 N.3   100  MET100     -0.1245
     96  CA        13.5020  -33.7700  -24.4240 C.3   100  MET100      0.1570
     97  C         12.6420  -34.6930  -25.3200 C.2   100  MET100      0.2261
     98  O         13.0490  -34.8800  -26.4970 O.2   100  MET100     -0.2867
     99  CB        14.4770  -34.5770  -23.5710 C.3   100  MET100      0.0387
    100  CG        15.6810  -33.7810  -23.1300 C.3   100  MET100      0.0595
    101  SD        16.6670  -34.5210  -21.7920 S.3   100  MET100     -0.1393
    102  CE        16.8060  -36.2260  -22.3470 C.3   100  MET100      0.0692
    103  N         12.3550  -34.2550  -29.1450 N.3   103  ALA103     -0.1231
    104  CA        13.5570  -34.4580  -29.9650 C.3   103  ALA103      0.1694
    105  C         13.8440  -35.9500  -30.0950 C.2   103  ALA103      0.2592
    106  O         14.9760  -36.2690  -30.5700 O.2   103  ALA103     -0.2718
    107  CB        14.7230  -33.7360  -29.3420 C.3   103  ALA103      0.0304
    108  N         12.8710  -36.7820  -29.7160 N.am  104  TYR104     -0.1976
    109  CA        12.9270  -38.2670  -29.7490 C.3   104  TYR104      0.1639
    110  C         12.0290  -38.7370  -30.9020 C.2   104  TYR104      0.2290
    111  O         10.8500  -38.3210  -30.9710 O.2   104  TYR104     -0.2864
    112  CB        12.4810  -38.8570  -28.4120 C.3   104  TYR104      0.0560
    113  CG        12.4420  -40.3690  -28.4090 C.ar  104  TYR104     -0.0198
    114  CD1       13.5830  -41.1100  -28.1880 C.ar  104  TYR104     -0.0009
    115  CD2       11.2690  -41.0700  -28.6720 C.ar  104  TYR104     -0.0009
    116  CE1       13.5680  -42.4940  -28.2460 C.ar  104  TYR104      0.0417
    117  CE2       11.2360  -42.4500  -28.6860 C.ar  104  TYR104      0.0417
    118  CZ        12.3970  -43.1670  -28.4950 C.ar  104  TYR104      0.1957
    119  OH        12.3740  -44.5320  -28.5430 O.3   104  TYR104     -0.2866
    120  N         17.4540  -39.7660  -31.3340 N.3   111  VAL111     -0.1231
    121  CA        17.3140  -38.4730  -30.6310 C.3   111  VAL111      0.1692
    122  C         18.1330  -37.4480  -31.4100 C.2   111  VAL111      0.2592
    123  O         19.1660  -37.8780  -32.0280 O.2   111  VAL111     -0.2718
    124  CB        17.7610  -38.6030  -29.1610 C.3   111  VAL111      0.0266
    125  CG1       16.9440  -39.6450  -28.4190 C.3   111  VAL111      0.0020
    126  CG2       19.2610  -38.8990  -29.0340 C.3   111  VAL111      0.0020
    127  N         17.6560  -36.1820  -31.4100 N.am  112  PHE112     -0.1962
    128  CA        18.4160  -35.0440  -32.0020 C.3   112  PHE112      0.1771
    129  C         19.5970  -34.7280  -31.0880 C.2   112  PHE112      0.2620
    130  O         19.3530  -34.4010  -29.9250 O.2   112  PHE112     -0.2715
    131  CB        17.5600  -33.8040  -32.1810 C.3   112  PHE112      0.0574
    132  CG        18.2470  -32.6550  -32.8610 C.ar  112  PHE112     -0.0200
    133  CD1       18.4500  -32.6430  -34.2350 C.ar  112  PHE112     -0.0042
    134  CD2       18.6240  -31.5360  -32.1420 C.ar  112  PHE112     -0.0042
    135  CE1       19.0780  -31.5810  -34.8710 C.ar  112  PHE112     -0.0003
    136  CE2       19.2500  -30.4630  -32.7660 C.ar  112  PHE112     -0.0003
    137  CZ        19.4600  -30.4810  -34.1360 C.ar  112  PHE112     -0.0000
    138  N         20.8190  -34.7870  -31.6110 N.am  113  PHE113     -0.1960
    139  CA        22.0590  -34.4790  -30.8490 C.3   113  PHE113      0.1771
    140  C         23.0520  -33.7860  -31.7870 C.2   113  PHE113      0.2619
    141  O         23.5120  -34.4620  -32.7270 O.2   113  PHE113     -0.2715
    142  CB        22.6380  -35.7830  -30.2850 C.3   113  PHE113      0.0574
    143  CG        23.8530  -35.5990  -29.4250 C.ar  113  PHE113     -0.0200
    144  CD1       23.7230  -35.1610  -28.1070 C.ar  113  PHE113     -0.0042
    145  CD2       25.1180  -35.8580  -29.9220 C.ar  113  PHE113     -0.0042
    146  CE1       24.8410  -35.0090  -27.3100 C.ar  113  PHE113     -0.0003
    147  CE2       26.2400  -35.7010  -29.1240 C.ar  113  PHE113     -0.0003
    148  CZ        26.0950  -35.2790  -27.8200 C.ar  113  PHE113     -0.0000
    149  N         23.2830  -32.4740  -31.5990 N.am  114  GLU114     -0.1977
    150  CA        24.3270  -31.6690  -32.2780 C.3   114  GLU114      0.1602
    151  C         24.1770  -31.7620  -33.8050 C.2   114  GLU114      0.2287
    152  O         25.1980  -32.0800  -34.4990 O.2   114  GLU114     -0.2864
    153  CB        25.7290  -32.1540  -31.8690 C.3   114  GLU114      0.0415
    154  CG        25.9580  -32.2110  -30.3660 C.3   114  GLU114      0.1163
    155  CD        27.3630  -32.5520  -29.9160 C.2   114  GLU114      0.3649
    156  OE1       28.1480  -33.0960  -30.7360 O.co2 114  GLU114     -0.2457
    157  OE2       27.6850  -32.2480  -28.7530 O.co2 114  GLU114     -0.2457
    158  N         26.0880  -42.6260  -27.4600 N.3   123  PHE123     -0.1241
    159  CA        26.4800  -42.2670  -26.0630 C.3   123  PHE123      0.1605
    160  C         27.3110  -43.3770  -25.3780 C.2   123  PHE123      0.2264
    161  O         27.4450  -43.3160  -24.1740 O.2   123  PHE123     -0.2867
    162  CB        25.1920  -41.9270  -25.2870 C.3   123  PHE123      0.0534
    163  CG        24.3650  -40.8420  -25.9280 C.ar  123  PHE123     -0.0203
    164  CD1       24.8390  -39.5350  -26.0060 C.ar  123  PHE123     -0.0042
    165  CD2       23.1390  -41.1330  -26.5190 C.ar  123  PHE123     -0.0042
    166  CE1       24.0810  -38.5260  -26.6020 C.ar  123  PHE123     -0.0003
    167  CE2       22.3890  -40.1300  -27.1270 C.ar  123  PHE123     -0.0003
    168  CZ        22.8740  -38.8280  -27.1880 C.ar  123  PHE123     -0.0000
    169  N         29.9930  -42.4420  -22.5550 N.3   126  LEU126     -0.1245
    170  CA        29.5690  -42.0020  -21.2030 C.3   126  LEU126      0.1561
    171  C         29.6440  -43.1710  -20.2070 C.2   126  LEU126      0.2260
    172  O         29.5630  -42.8740  -19.0140 O.2   126  LEU126     -0.2867
    173  CB        28.1450  -41.4510  -21.2680 C.3   126  LEU126      0.0270
    174  CG        27.8920  -40.2910  -22.2190 C.3   126  LEU126      0.0019
    175  CD1       26.4560  -39.8770  -22.0900 C.3   126  LEU126      0.0001
    176  CD2       28.8260  -39.0990  -21.9630 C.3   126  LEU126      0.0001
    177  N         21.5150  -45.8040  -17.5580 N.3   131  LEU131     -0.1231
    178  CA        20.9400  -44.4280  -17.5230 C.3   131  LEU131      0.1693
    179  C         20.4700  -44.0250  -18.9230 C.2   131  LEU131      0.2591
    180  O         19.3000  -43.5710  -19.0460 O.2   131  LEU131     -0.2718
    181  CB        21.9920  -43.4330  -17.0080 C.3   131  LEU131      0.0284
    182  CG        21.5360  -41.9680  -17.0090 C.3   131  LEU131      0.0019
    183  CD1       20.2630  -41.8000  -16.1950 C.3   131  LEU131      0.0001
    184  CD2       22.6250  -41.0540  -16.5180 C.3   131  LEU131      0.0001
    185  N         21.3140  -44.2340  -19.9430 N.am  132  ILE132     -0.1980
    186  CA        20.9390  -43.9190  -21.3580 C.3   132  ILE132      0.1595
    187  C         19.6150  -44.6160  -21.7200 C.2   132  ILE132      0.2287
    188  O         18.6500  -43.9130  -22.1260 O.2   132  ILE132     -0.2864
    189  CB        22.0890  -44.2510  -22.3360 C.3   132  ILE132      0.0276
    190  CG1       23.3080  -43.3560  -22.1080 C.3   132  ILE132      0.0022
    191  CG2       21.6330  -44.1750  -23.7950 C.3   132  ILE132      0.0022
    192  CD1       23.0090  -41.8680  -22.1910 C.3   132  ILE132      0.0001
    193  N         16.4640  -43.0640  -20.0040 N.3   135  ILE135     -0.1231
    194  CA        16.0500  -41.7380  -20.5670 C.3   135  ILE135      0.1692
    195  C         15.3770  -41.9840  -21.9240 C.2   135  ILE135      0.2588
    196  O         14.4030  -41.2380  -22.2820 O.2   135  ILE135     -0.2718
    197  CB        17.2200  -40.7460  -20.6850 C.3   135  ILE135      0.0266
    198  CG1       17.9990  -40.6020  -19.3780 C.3   135  ILE135      0.0019
    199  CG2       16.7420  -39.4040  -21.2210 C.3   135  ILE135      0.0020
    200  CD1       17.3380  -39.7370  -18.3730 C.3   135  ILE135      0.0001
    201  N         15.8580  -42.9870  -22.6700 N.am  136  PHE136     -0.2029
    202  CA        15.2530  -43.4040  -23.9700 C.3   136  PHE136      0.1325
    203  C         13.8450  -43.9610  -23.7090 C.3   136  PHE136      0.2039
    204  O         12.8650  -43.4650  -24.3840 O.3   136  PHE136     -0.2185
    205  CB        16.1870  -44.3450  -24.7370 C.3   136  PHE136      0.0507
    206  CG        17.1180  -43.6520  -25.7020 C.ar  136  PHE136     -0.0204
    207  CD1       16.8860  -43.6710  -27.0740 C.ar  136  PHE136     -0.0042
    208  CD2       18.2160  -42.9350  -25.2380 C.ar  136  PHE136     -0.0042
    209  CE1       17.7400  -43.0070  -27.9500 C.ar  136  PHE136     -0.0003
    210  CE2       19.0720  -42.2770  -26.1150 C.ar  136  PHE136     -0.0003
    211  CZ        18.8380  -42.3150  -27.4860 C.ar  136  PHE136     -0.0000
    212  N         11.4590  -41.0950  -22.7630 N.3   139  SER139     -0.1217
    213  CA        11.1270  -40.2430  -23.9370 C.3   139  SER139      0.1889
    214  C         10.1600  -41.0000  -24.8610 C.2   139  SER139      0.2288
    215  O          9.2030  -40.3600  -25.4000 O.2   139  SER139     -0.2866
    216  CB        12.3630  -39.8230  -24.6790 C.3   139  SER139      0.2089
    217  OG        13.2200  -39.0590  -23.8630 O.3   139  SER139     -0.2183
    218  N         20.9220  -37.1750  -13.5760 N.3   211  CYS211     -0.1235
    219  CA        21.3700  -36.1330  -14.5540 C.3   211  CYS211      0.1677
    220  C         21.9250  -34.8960  -13.8250 C.2   211  CYS211      0.2270
    221  O         22.9810  -34.3970  -14.2250 O.2   211  CYS211     -0.2867
    222  CB        20.2260  -35.7220  -15.4710 C.3   211  CYS211      0.0956
    223  SG        19.8140  -37.0230  -16.6620 S.3   211  CYS211     -0.0801
@<TRIPOS>BOND
     1    21    20    2
     2    20    19    1
     3    18    19    1
     4   135   133   ar
     5   135   137   ar
     6    19    22    1
     7   152   151    2
     8   133   132   ar
     9   137   136   ar
    10   151   150    1
    11    22    23    1
    12   132   131    1
    13   132   134   ar
    14   136   134   ar
    15   141   140    2
    16    23    25    1
    17    23    24    1
    18   150   153    1
    19   150   149    1
    20   131   128    1
    21    17    15    1
    22   123   122    2
    23   128   127    1
    24   128   129    1
    25   153   154    1
    26   140   149   am
    27   140   139    1
    28   138   129   am
    29   138   139    1
    30   127   122   am
    31   122   121    1
    32   120   121    1
    33    16    15    1
    34   129   130    2
    35    12    11    1
    36    12    13    2
    37    14    15    1
    38    14    11    1
    39   111   110    2
    40   110   109    1
    41   139   142    1
    42    11    10    1
    43   156   155   ar
    44   121   124    1
    45   106   105    2
    46   154   155    1
    47   142   143    1
    48   105   104    1
    49   105   108   am
    50   104   107    1
    51   104   103    1
    52   145   143   ar
    53   145   147   ar
    54   155   157   ar
    55   109   108    1
    56   109   112    1
    57     4     3    2
    58   143   144   ar
    59    10     3   am
    60   124   126    1
    61   124   125    1
    62   147   148   ar
    63     3     2    1
    64   117   115   ar
    65   117   118   ar
    66   115   113   ar
    67   119   118    1
    68   118   116   ar
    69   112   113    1
    70   113   114   ar
    71   116   114   ar
    72   144   146   ar
    73   209   211   ar
    74   209   207   ar
    75   148   146   ar
    76   211   210   ar
    77   158   159    1
    78    64    65   ar
    79    64    62   ar
    80     2     1    1
    81     2     5    1
    82    65    63   ar
    83   168   167   ar
    84   168   166   ar
    85   167   165   ar
    86   207   206   ar
    87   166   164   ar
    88     6     5    1
    89     6     7    1
    90   165   163   ar
    91    98    97    2
    92    62    61   ar
    93    63    61   ar
    94   210   208   ar
    95   159   160    1
    96   159   162    1
    97   164   163   ar
    98   163   162    1
    99     9     7   am
   100   206   208   ar
   101   206   205    1
   102     7     8    2
   103    61    60    1
   104   215   214    2
   105   160   161    2
   106    97    96    1
   107    82    80   ar
   108    55    53   ar
   109    55    54   ar
   110   214   213    1
   111    53    51   ar
   112   205   202    1
   113   216   213    1
   114   216   217    1
   115    96    99    1
   116    96    95    1
   117   204   203    1
   118    60    57    1
   119    80    79    1
   120    80    81   ar
   121    54    52   ar
   122    79    78    1
   123   202   203    1
   124   202   201    1
   125   213   212    1
   126   191   189    1
   127    45    44    1
   128    51    52   ar
   129    51    50    1
   130    99   100    1
   131    57    56    1
   132    57    58    1
   133    40    41    1
   134   100   101    1
   135    78    75    1
   136    56    48   am
   137    50    47    1
   138   201   195   am
   139    41    44    1
   140    41    42    1
   141   169   170    1
   142   102   101    1
   143   189   190    1
   144   189   186    1
   145    59    58    2
   146   196   195    2
   147    58    66   am
   148   174   175    1
   149   174   176    1
   150   174   173    1
   151   192   190    1
   152    48    49    2
   153    48    47    1
   154   188   187    2
   155   195   194    1
   156    26    27    1
   157   187   186    1
   158    75    76    1
   159    75    74    1
   160    47    46    1
   161    43    42    1
   162    76    77    2
   163    76    83   am
   164    87    84    1
   165    83    84    1
   166   186   185    1
   167    84    85    1
   168   173   170    1
   169   199   197    1
   170   170   171    1
   171    66    67    1
   172    91    90    2
   173   197   194    1
   174   197   198    1
   175    28    27    1
   176    28    29    2
   177    27    30    1
   178   194   193    1
   179   171   172    2
   180    86    85    2
   181    67    68    1
   182    67    70    1
   183   185   179   am
   184    93    92    1
   185    90    89    1
   186   198   200    1
   187    73    71    1
   188    68    69    2
   189    71    70    1
   190    71    72    1
   191    30    31    1
   192    89    92    1
   193    89    88    1
   194   180   179    2
   195   179   178    1
   196    92    94    1
   197    31    32   ar
   198    31    33   ar
   199    32    34   ar
   200    36    33   ar
   201    36    38   ar
   202    33    35   ar
   203    38    39   ar
   204    34    35   ar
   205    35    37   ar
   206    39    37   ar
   207   177   178    1
   208   178   181    1
   209   182   181    1
   210   182   184    1
   211   182   183    1
   212   223   222    1
   213   222   219    1
   214   219   220    1
   215   219   218    1
   216   221   220    2
