@<TRIPOS>MOLECULE
tmp/6iwrD00.pdb
 131 128 0 0 0
SMALL
GASTEIGER

@<TRIPOS>ATOM
      1  N         70.0330  167.9310   25.8610 N.3   169  LEU169     -0.1245
      2  CA        71.3010  168.2680   26.5020 C.3   169  LEU169      0.1561
      3  C         71.8240  169.6310   26.0720 C.2   169  LEU169      0.2260
      4  O         72.4250  170.3530   26.8750 O.2   169  LEU169     -0.2867
      5  CB        72.3420  167.1900   26.2200 C.3   169  LEU169      0.0270
      6  CG        72.6980  166.9940   24.7540 C.3   169  LEU169      0.0019
      7  CD1       74.2020  166.9900   24.5460 C.3   169  LEU169      0.0001
      8  CD2       72.0500  165.7130   24.1690 C.3   169  LEU169      0.0001
      9  N         72.1380  172.3920   28.8660 N.3   173  ARG173     -0.1245
     10  CA        73.3750  173.0980   29.1770 C.3   173  ARG173      0.1563
     11  C         73.1390  174.5970   29.2990 C.2   173  ARG173      0.2260
     12  O         73.7600  175.2690   30.1370 O.2   173  ARG173     -0.2867
     13  CB        74.4180  172.8160   28.1020 C.3   173  ARG173      0.0307
     14  CG        75.1690  171.5310   28.2990 C.3   173  ARG173      0.0489
     15  CD        76.4660  171.5530   27.5340 C.3   173  ARG173      0.2205
     16  NE        76.8930  170.1980   27.2020 N.pl3 173  ARG173     -0.0865
     17  CZ        76.8910  169.6940   25.9700 C.cat 173  ARG173      0.5346
     18  NH1       76.5060  170.4280   24.9410 N.pl3 173  ARG173      0.1354
     19  NH2       77.2950  168.4570   25.7630 N.pl3 173  ARG173      0.1354
     20  N         80.2900  165.9680   31.4880 N.3   190  ASP190     -0.1239
     21  CA        79.3190  164.9180   31.2790 C.3   190  ASP190      0.1674
     22  C         79.0590  164.2220   32.6120 C.2   190  ASP190      0.2266
     23  O         79.8910  164.2500   33.5160 O.2   190  ASP190     -0.2867
     24  CB        79.8350  163.9360   30.2370 C.3   190  ASP190      0.1410
     25  CG        79.1030  164.0480   28.9050 C.2   190  ASP190      0.3668
     26  OD1       78.7670  165.1690   28.4870 O.co2 190  ASP190     -0.2456
     27  OD2       78.8570  163.0040   28.2780 O.co2 190  ASP190     -0.2456
     28  N         90.4020  164.8280   26.6710 N.3   219  ILE219     -0.1245
     29  CA        89.3970  163.8940   27.1420 C.3   219  ILE219      0.1561
     30  C         89.9730  162.5000   26.9900 C.2   219  ILE219      0.2260
     31  O         90.3590  162.1020   25.8860 O.2   219  ILE219     -0.2867
     32  CB        88.0860  164.0500   26.3620 C.3   219  ILE219      0.0252
     33  CG1       87.5770  165.4890   26.5060 C.3   219  ILE219      0.0019
     34  CG2       87.0740  163.0030   26.8150 C.3   219  ILE219      0.0019
     35  CD1       86.2750  165.7530   25.8050 C.3   219  ILE219      0.0001
     36  N         82.2370  164.7700   13.6270 N.3   251  TRP251     -0.1241
     37  CA        83.4180  165.0300   14.4320 C.3   251  TRP251      0.1605
     38  C         84.6060  164.1650   14.0110 C.2   251  TRP251      0.2264
     39  O         84.4770  162.9560   13.7940 O.2   251  TRP251     -0.2867
     40  CB        83.0710  164.7870   15.8900 C.3   251  TRP251      0.0550
     41  CG        84.2280  164.7720   16.7750 C.ar  251  TRP251      0.0003
     42  CD1       84.8580  163.6620   17.2890 C.ar  251  TRP251      0.0946
     43  CD2       84.9250  165.9120   17.2880 C.ar  251  TRP251      0.0152
     44  NE1       85.8950  164.0510   18.1070 N.ar  251  TRP251     -0.2442
     45  CE2       85.9630  165.4230   18.1180 C.ar  251  TRP251      0.0810
     46  CE3       84.7700  167.2960   17.1360 C.ar  251  TRP251      0.0012
     47  CZ2       86.8550  166.2660   18.7690 C.ar  251  TRP251      0.0191
     48  CZ3       85.6470  168.1300   17.7850 C.ar  251  TRP251      0.0001
     49  CH2       86.6870  167.6130   18.5930 C.ar  251  TRP251      0.0015
     50  N         85.0090  168.8050   21.3350 N.3   277  ALA277     -0.1231
     51  CA        84.1230  167.6530   21.2160 C.3   277  ALA277      0.1694
     52  C         82.7010  168.0150   21.6170 C.2   277  ALA277      0.2593
     53  O         81.7390  167.5920   20.9690 O.2   277  ALA277     -0.2718
     54  CB        84.6360  166.4890   22.0630 C.3   277  ALA277      0.0304
     55  N         82.5470  168.7900   22.6940 N.am  278  GLY278     -0.1942
     56  CA        81.2280  169.2320   23.1150 C.3   278  GLY278      0.2014
     57  C         80.9440  169.1850   24.6100 C.2   278  GLY278      0.2639
     58  O         80.5300  170.1930   25.2080 O.2   278  GLY278     -0.2714
     59  N         81.1810  168.0210   25.2280 N.am  279  GLY279     -0.1939
     60  CA        80.6670  167.7810   26.5630 C.3   279  GLY279      0.2014
     61  C         81.4720  168.3900   27.6910 C.2   279  GLY279      0.2638
     62  O         80.9450  168.5680   28.7990 O.2   279  GLY279     -0.2714
     63  N         82.7460  168.7090   27.4410 N.am  280  LEU280     -0.1977
     64  CA        83.6660  169.1990   28.4630 C.3   280  LEU280      0.1596
     65  C         84.3420  170.4640   27.9650 C.2   280  LEU280      0.2287
     66  O         85.1270  170.4200   27.0170 O.2   280  LEU280     -0.2864
     67  CB        84.7350  168.1530   28.8110 C.3   280  LEU280      0.0297
     68  CG        84.3820  166.6630   28.8170 C.3   280  LEU280      0.0022
     69  CD1       85.4710  165.9060   29.5600 C.3   280  LEU280      0.0001
     70  CD2       82.9880  166.3580   29.3900 C.3   280  LEU280      0.0001
     71  N         70.2350  166.5040   20.0860 N.3   301  TRP301     -0.1227
     72  CA        71.6470  166.1300   20.0000 C.3   301  TRP301      0.1737
     73  C         72.4020  166.5990   18.7700 C.2   301  TRP301      0.2596
     74  O         71.9990  166.3520   17.6510 O.2   301  TRP301     -0.2718
     75  CB        71.8000  164.6120   20.1550 C.3   301  TRP301      0.0564
     76  CG        73.2160  164.1490   20.2580 C.ar  301  TRP301      0.0003
     77  CD1       73.9090  163.9130   21.3930 C.ar  301  TRP301      0.0946
     78  CD2       74.1100  163.8830   19.1800 C.ar  301  TRP301      0.0152
     79  NE1       75.1780  163.5080   21.0950 N.ar  301  TRP301     -0.2442
     80  CE2       75.3250  163.4840   19.7380 C.ar  301  TRP301      0.0810
     81  CE3       73.9980  163.9450   17.7950 C.ar  301  TRP301      0.0012
     82  CZ2       76.4240  163.1470   18.9620 C.ar  301  TRP301      0.0191
     83  CZ3       75.0860  163.6100   17.0310 C.ar  301  TRP301      0.0001
     84  CH2       76.2820  163.2180   17.6110 C.ar  301  TRP301      0.0015
     85  N         73.5380  167.2290   19.0030 N.am  302  GLY302     -0.1942
     86  CA        74.5400  167.4630   17.9860 C.3   302  GLY302      0.2014
     87  C         74.5840  168.7600   17.2170 C.2   302  GLY302      0.2639
     88  O         73.5880  169.3800   16.9420 O.2   302  GLY302     -0.2714
     89  N         75.7930  169.1280   16.8410 N.am  303  GLY303     -0.1939
     90  CA        76.0850  170.3390   16.1140 C.3   303  GLY303      0.2014
     91  C         76.3630  171.5140   17.0130 C.2   303  GLY303      0.2639
     92  O         76.8600  172.5070   16.5720 O.2   303  GLY303     -0.2714
     93  N         76.0660  171.3810   18.2920 N.am  304  GLU304     -0.1963
     94  CA        76.2870  172.4500   19.2510 C.3   304  GLU304      0.1733
     95  C         77.7530  172.7940   19.4760 C.2   304  GLU304      0.2616
     96  O         78.1060  173.9390   19.6570 O.2   304  GLU304     -0.2715
     97  CB        75.5480  172.1770   20.5620 C.3   304  GLU304      0.0429
     98  CG        76.3870  171.6380   21.6960 C.3   304  GLU304      0.1163
     99  CD        76.3870  170.1340   21.7530 C.2   304  GLU304      0.3649
    100  OE1       75.7410  169.5030   20.9100 O.co2 304  GLU304     -0.2457
    101  OE2       77.0420  169.5860   22.6460 O.co2 304  GLU304     -0.2457
    102  N         78.5930  171.7770   19.5040 N.am  305  ASN305     -0.1972
    103  CA        80.0060  171.9600   19.7090 C.3   305  ASN305      0.1688
    104  C         80.6520  172.7430   18.5920 C.2   305  ASN305      0.2292
    105  O         81.5360  173.5310   18.8210 O.2   305  ASN305     -0.2864
    106  CB        80.6800  170.6080   19.8430 C.3   305  ASN305      0.1181
    107  CG        80.4560  169.7330   18.6430 C.2   305  ASN305      0.2629
    108  OD1       79.3930  169.7320   18.0630 O.2   305  ASN305     -0.2716
    109  ND2       81.4630  168.9810   18.2730 N.am  305  ASN305     -0.0877
    110  N         86.3360  160.1880   30.3480 N.3   329  HIS329     -0.1241
    111  CA        84.9610  160.1750   29.9020 C.3   329  HIS329      0.1621
    112  C         84.5660  158.7250   29.6730 C.2   329  HIS329      0.2264
    113  O         85.2010  158.0400   28.8660 O.2   329  HIS329     -0.2867
    114  CB        84.8340  161.0030   28.6270 C.3   329  HIS329      0.0745
    115  CG        83.4470  161.0600   28.0970 C.ar  329  HIS329      0.0817
    116  ND1       83.0420  160.3320   27.0060 N.ar  329  HIS329     -0.2268
    117  CD2       82.3570  161.7260   28.5350 C.ar  329  HIS329      0.1154
    118  CE1       81.7630  160.5620   26.7810 C.ar  329  HIS329      0.1986
    119  NE2       81.3290  161.4200   27.6830 N.ar  329  HIS329     -0.2212
    120  N         82.6310  155.7850   28.0630 N.3   331  TYR331     -0.1241
    121  CA        82.1540  155.6800   26.6870 C.3   331  TYR331      0.1605
    122  C         81.1400  154.5550   26.5700 C.2   331  TYR331      0.2264
    123  O         81.4130  153.4310   27.0070 O.2   331  TYR331     -0.2867
    124  CB        83.3170  155.4370   25.7230 C.3   331  TYR331      0.0534
    125  CG        83.9820  156.7090   25.2930 C.ar  331  TYR331     -0.0201
    126  CD1       83.3980  157.5240   24.3450 C.ar  331  TYR331     -0.0009
    127  CD2       85.1850  157.1080   25.8510 C.ar  331  TYR331     -0.0009
    128  CE1       83.9960  158.6980   23.9590 C.ar  331  TYR331      0.0417
    129  CE2       85.7880  158.2780   25.4700 C.ar  331  TYR331      0.0417
    130  CZ        85.1890  159.0680   24.5220 C.ar  331  TYR331      0.1957
    131  OH        85.7920  160.2360   24.1360 O.3   331  TYR331     -0.2866
@<TRIPOS>BOND
     1    36    37    1
     2    39    38    2
     3    38    37    1
     4    37    40    1
     5    40    41    1
     6    90    89    1
     7    90    91    1
     8    92    91    2
     9    41    43   ar
    10    41    42   ar
    11    89    87   am
    12    88    87    2
    13    91    93   am
    14    83    84   ar
    15    83    81   ar
    16    46    43   ar
    17    46    48   ar
    18    87    86    1
    19    43    45   ar
    20    42    44   ar
    21    84    82   ar
    22    74    73    2
    23    48    49   ar
    24    81    78   ar
    25    86    85    1
    26   108   107    2
    27    44    45   ar
    28    45    47   ar
    29   109   107   am
    30    93    94    1
    31   104   105    2
    32   104   103    1
    33    49    47   ar
    34   107   106    1
    35    73    85   am
    36    73    72    1
    37    82    80   ar
    38    78    80   ar
    39    78    76   ar
    40    94    95    1
    41    94    97    1
    42    95   102   am
    43    95    96    2
    44   102   103    1
    45   103   106    1
    46    80    79   ar
    47    72    71    1
    48    72    75    1
    49    75    76    1
    50    76    77   ar
    51    97    98    1
    52   100    99   ar
    53    53    52    2
    54    79    77   ar
    55    51    50    1
    56    51    52    1
    57    51    54    1
    58    52    55   am
    59    98    99    1
    60    99   101   ar
    61    55    56    1
    62    56    57    1
    63   128   126   ar
    64   128   130   ar
    65   131   130    1
    66     8     6    1
    67   126   125   ar
    68   130   129   ar
    69     7     6    1
    70    57    58    2
    71    57    59   am
    72     6     5    1
    73    18    17    1
    74    59    60    1
    75   125   124    1
    76   125   127   ar
    77   129   127   ar
    78   124   121    1
    79    19    17    1
    80    35    33    1
    81     1     2    1
    82    31    30    2
    83    17    16    2
    84     3     2    1
    85     3     4    2
    86     5     2    1
    87    32    33    1
    88    32    34    1
    89    32    29    1
    90    60    61    1
    91   122   121    1
    92   122   123    2
    93    28    29    1
    94   121   120    1
    95   118   116   ar
    96   118   119   ar
    97    30    29    1
    98   116   115   ar
    99    66    65    2
   100    16    15    1
   101    63    61   am
   102    63    64    1
   103    15    14    1
   104   119   117   ar
   105    61    62    2
   106    65    64    1
   107   115   117   ar
   108   115   114    1
   109    13    14    1
   110    13    10    1
   111    27    25   ar
   112    64    67    1
   113    26    25   ar
   114   114   111    1
   115    67    68    1
   116    68    70    1
   117    68    69    1
   118   113   112    2
   119     9    10    1
   120    25    24    1
   121    10    11    1
   122    11    12    2
   123   112   111    1
   124   111   110    1
   125    24    21    1
   126    21    20    1
   127    21    22    1
   128    22    23    2
