@<TRIPOS>MOLECULE
tmp/6iwrD02.pdb
 87 83 0 0 0
SMALL
GASTEIGER

@<TRIPOS>ATOM
      1  N         58.5520  163.2080   13.0240 N.3   338  GLY338     -0.1210
      2  CA        58.9600  164.2710   12.1260 C.3   338  GLY338      0.1956
      3  C         60.2000  163.9200   11.3250 C.2   338  GLY338      0.2613
      4  O         60.2410  162.8930   10.6550 O.2   338  GLY338     -0.2717
      5  N         61.2150  164.7760   11.3980 N.am  339  SER339     -0.1938
      6  CA        62.4810  164.5130   10.7240 C.3   339  SER339      0.2055
      7  C         63.6680  164.6950   11.6410 C.2   339  SER339      0.2643
      8  O         63.6030  165.4330   12.6160 O.2   339  SER339     -0.2714
      9  CB        62.6650  165.3820    9.4880 C.3   339  SER339      0.2130
     10  OG        63.8580  165.0060    8.8170 O.3   339  SER339     -0.2179
     11  N         64.7880  164.0500   11.3650 N.am  340  SER340     -0.1949
     12  CA        65.7630  164.0050   12.4290 C.3   340  SER340      0.1924
     13  C         66.1080  165.4190   12.8430 C.2   340  SER340      0.2314
     14  O         66.5160  166.2370   12.0320 O.2   340  SER340     -0.2863
     15  CB        67.0130  163.2310   11.9980 C.3   340  SER340      0.2116
     16  OG        68.0320  164.0760   11.5060 O.3   340  SER340     -0.2180
     17  N         69.3880  148.9800   -2.3040 N.3   428  ASP428     -0.1239
     18  CA        69.2970  149.1010   -0.8490 C.3   428  ASP428      0.1674
     19  C         70.5890  148.5620   -0.2550 C.2   428  ASP428      0.2266
     20  O         70.8590  147.3650   -0.3350 O.2   428  ASP428     -0.2867
     21  CB        68.0740  148.3380   -0.2900 C.3   428  ASP428      0.1410
     22  CG        67.8190  148.5710    1.2240 C.2   428  ASP428      0.3668
     23  OD1       68.6330  149.1850    1.9420 O.co2 428  ASP428     -0.2456
     24  OD2       66.7730  148.0970    1.7050 O.co2 428  ASP428     -0.2456
     25  N         71.2290  147.8670    2.6330 N.3   430  MET430     -0.1245
     26  CA        70.9990  146.9840    3.7770 C.3   430  MET430      0.1570
     27  C         71.8890  147.3100    4.9560 C.2   430  MET430      0.2261
     28  O         72.1650  146.4200    5.7710 O.2   430  MET430     -0.2867
     29  CB        71.2390  145.5010    3.4840 C.3   430  MET430      0.0387
     30  CG        70.3700  144.9060    2.4370 C.3   430  MET430      0.0595
     31  SD        68.6470  145.2630    2.7380 S.3   430  MET430     -0.1393
     32  CE        68.0050  144.1220    1.5260 C.3   430  MET430      0.0692
     33  N         60.8460  152.2320   -0.2820 N.3   444  HIS444     -0.1241
     34  CA        60.0680  152.8490    0.7740 C.3   444  HIS444      0.1621
     35  C         60.2540  154.3460    0.8600 C.2   444  HIS444      0.2264
     36  O         59.6020  154.9770    1.6910 O.2   444  HIS444     -0.2867
     37  CB        60.3880  152.2190    2.1270 C.3   444  HIS444      0.0745
     38  CG        61.8190  152.3250    2.5150 C.ar  444  HIS444      0.0817
     39  ND1       62.4760  153.5340    2.6220 N.ar  444  HIS444     -0.2268
     40  CD2       62.7230  151.3720    2.8310 C.ar  444  HIS444      0.1154
     41  CE1       63.7330  153.3150    2.9740 C.ar  444  HIS444      0.1986
     42  NE2       63.9060  152.0130    3.1100 N.ar  444  HIS444     -0.2212
     43  N         61.9120  156.3900    2.1430 N.3   446  MET446     -0.1230
     44  CA        62.3910  156.9660    3.4030 C.3   446  MET446      0.1702
     45  C         63.8880  157.2750    3.3710 C.2   446  MET446      0.2593
     46  O         64.4890  157.5600    4.4150 O.2   446  MET446     -0.2718
     47  CB        62.0910  156.0150    4.5700 C.3   446  MET446      0.0401
     48  CG        60.6180  155.7350    4.7670 C.3   446  MET446      0.0596
     49  SD        59.7630  157.2520    5.1930 S.3   446  MET446     -0.1393
     50  CE        60.2870  157.4200    6.8860 C.3   446  MET446      0.0692
     51  N         64.5180  157.1640    2.2070 N.am  447  GLY447     -0.1942
     52  CA        65.9390  157.4100    2.1410 C.3   447  GLY447      0.2014
     53  C         66.7210  156.4300    2.9980 C.2   447  GLY447      0.2639
     54  O         66.4810  155.2110    2.9850 O.2   447  GLY447     -0.2714
     55  N         67.6990  156.9730    3.7300 N.am  448  GLY448     -0.1939
     56  CA        68.5380  156.1810    4.6020 C.3   448  GLY448      0.2014
     57  C         69.4360  155.2280    3.8500 C.2   448  GLY448      0.2639
     58  O         70.3630  155.6580    3.1620 O.2   448  GLY448     -0.2714
     59  N         69.1620  153.9290    3.9550 N.am  449  ASN449     -0.1958
     60  CA        69.9050  152.9330    3.1970 C.3   449  ASN449      0.1819
     61  C         69.3820  152.7520    1.7810 C.2   449  ASN449      0.2621
     62  O         69.9160  151.9110    1.0530 O.2   449  ASN449     -0.2715
     63  CB        69.8950  151.5770    3.9160 C.3   449  ASN449      0.1195
     64  CG        70.7140  151.5780    5.2110 C.2   449  ASN449      0.2630
     65  OD1       70.5480  150.6880    6.0350 O.2   449  ASN449     -0.2716
     66  ND2       71.5760  152.5760    5.3990 N.am  449  ASN449     -0.0877
     67  N         68.3510  153.5020    1.3760 N.am  450  GLN450     -0.1977
     68  CA        67.9200  153.5440   -0.0180 C.3   450  GLN450      0.1601
     69  C         68.2300  154.8960   -0.6600 C.2   450  GLN450      0.2287
     70  O         67.6140  155.2660   -1.6670 O.2   450  GLN450     -0.2864
     71  CB        66.4380  153.1820   -0.1220 C.3   450  GLN450      0.0394
     72  CG        66.1860  151.7280    0.2050 C.3   450  GLN450      0.0908
     73  CD        64.7640  151.2700   -0.1060 C.2   450  GLN450      0.2608
     74  OE1       63.9390  152.0500   -0.5780 O.2   450  GLN450     -0.2717
     75  NE2       64.4770  149.9880    0.1610 N.am  450  GLN450     -0.0878
     76  N         76.7030  157.8190    2.4560 N.3   463  TYR463     -0.1241
     77  CA        77.4660  158.2250    3.6280 C.3   463  TYR463      0.1605
     78  C         78.9210  158.4220    3.2230 C.2   463  TYR463      0.2264
     79  O         79.2020  159.1930    2.3210 O.2   463  TYR463     -0.2867
     80  CB        77.3170  157.2320    4.7650 C.3   463  TYR463      0.0534
     81  CG        75.8870  156.9290    5.1230 C.ar  463  TYR463     -0.0201
     82  CD1       75.0200  157.9310    5.5110 C.ar  463  TYR463     -0.0009
     83  CD2       75.4110  155.6330    5.0800 C.ar  463  TYR463     -0.0009
     84  CE1       73.7150  157.6460    5.8410 C.ar  463  TYR463      0.0417
     85  CE2       74.1130  155.3410    5.4040 C.ar  463  TYR463      0.0417
     86  CZ        73.2700  156.3510    5.7820 C.ar  463  TYR463      0.1957
     87  OH        71.9750  156.0470    6.1070 O.3   463  TYR463     -0.2866
@<TRIPOS>BOND
     1    17    18    1
     2    70    69    2
     3    18    21    1
     4    18    19    1
     5    69    68    1
     6    74    73    2
     7    20    19    2
     8    21    22    1
     9    33    34    1
    10    71    68    1
    11    71    72    1
    12    73    75   am
    13    73    72    1
    14    68    67    1
    15    34    35    1
    16    34    37    1
    17    35    36    2
    18    62    61    2
    19    22    24   ar
    20    22    23   ar
    21    67    61   am
    22    32    31    1
    23    61    60    1
    24    37    38    1
    25    52    51    1
    26    52    53    1
    27    43    44    1
    28    51    45   am
    29    79    78    2
    30    30    31    1
    31    30    29    1
    32    76    77    1
    33    38    39   ar
    34    38    40   ar
    35    39    41   ar
    36    25    26    1
    37    40    42   ar
    38    41    42   ar
    39    54    53    2
    40    53    55   am
    41    58    57    2
    42    60    63    1
    43    60    59    1
    44    78    77    1
    45    45    44    1
    46    45    46    2
    47    44    47    1
    48    29    26    1
    49    77    80    1
    50    55    56    1
    51    26    27    1
    52    57    59   am
    53    57    56    1
    54    63    64    1
    55    47    48    1
    56    80    81    1
    57    48    49    1
    58    27    28    2
    59    83    81   ar
    60    83    85   ar
    61    81    82   ar
    62    49    50    1
    63    64    66   am
    64    64    65    2
    65    85    86   ar
    66    82    84   ar
    67    86    84   ar
    68    86    87    1
    69    10     9    1
    70     9     6    1
    71     4     3    2
    72     6     5    1
    73     6     7    1
    74     3     5   am
    75     3     2    1
    76    11     7   am
    77    11    12    1
    78    16    15    1
    79     7     8    2
    80    15    12    1
    81    14    13    2
    82     2     1    1
    83    12    13    1
