@<TRIPOS>MOLECULE
tmp/6iwrD01.pdb
 163 159 0 0 0
SMALL
GASTEIGER

@<TRIPOS>ATOM
      1  N         74.9780  168.2320   33.3880 N.3   103  VAL103     -0.1231
      2  CA        73.6890  167.7820   32.8610 C.3   103  VAL103      0.1692
      3  C         73.6180  166.2630   32.9050 C.2   103  VAL103      0.2592
      4  O         74.5690  165.5710   32.5150 O.2   103  VAL103     -0.2718
      5  CB        73.4940  168.2870   31.4230 C.3   103  VAL103      0.0266
      6  CG1       72.2030  167.7140   30.8230 C.3   103  VAL103      0.0020
      7  CG2       73.4800  169.8030   31.4050 C.3   103  VAL103      0.0020
      8  N         72.4790  165.7320   33.3540 N.am  104  PHE104     -0.1962
      9  CA        72.3360  164.2880   33.4730 C.3   104  PHE104      0.1771
     10  C         70.9110  163.8660   33.1490 C.2   104  PHE104      0.2619
     11  O         69.9500  164.5680   33.4850 O.2   104  PHE104     -0.2715
     12  CB        72.7320  163.8010   34.8720 C.3   104  PHE104      0.0574
     13  CG        71.7790  164.2120   35.9640 C.ar  104  PHE104     -0.0200
     14  CD1       70.6630  163.4380   36.2580 C.ar  104  PHE104     -0.0042
     15  CD2       72.0210  165.3420   36.7320 C.ar  104  PHE104     -0.0042
     16  CE1       69.7900  163.7970   37.2740 C.ar  104  PHE104     -0.0003
     17  CE2       71.1620  165.7040   37.7550 C.ar  104  PHE104     -0.0003
     18  CZ        70.0460  164.9310   38.0290 C.ar  104  PHE104     -0.0000
     19  N         70.7870  162.7100   32.4960 N.am  105  HIS105     -0.1973
     20  CA        69.4990  162.1190   32.1490 C.3   105  HIS105      0.1656
     21  C         69.5880  160.6140   32.3680 C.2   105  HIS105      0.2291
     22  O         70.2840  159.9160   31.6250 O.2   105  HIS105     -0.2864
     23  CB        69.1110  162.4220   30.7050 C.3   105  HIS105      0.0771
     24  CG        67.7520  161.9130   30.3370 C.ar  105  HIS105      0.0820
     25  ND1       66.6150  162.6810   30.4580 N.ar  105  HIS105     -0.2267
     26  CD2       67.3400  160.7020   29.8930 C.ar  105  HIS105      0.1154
     27  CE1       65.5620  161.9720   30.0900 C.ar  105  HIS105      0.1986
     28  NE2       65.9760  160.7700   29.7340 N.ar  105  HIS105     -0.2212
     29  N         71.1480  158.8460   34.4090 N.3   107  GLU107     -0.1245
     30  CA        72.4740  158.3190   34.6900 C.3   107  GLU107      0.1567
     31  C         72.4560  157.3680   35.8820 C.2   107  GLU107      0.2260
     32  O         71.6590  157.5100   36.8110 O.2   107  GLU107     -0.2867
     33  CB        73.4530  159.4590   34.9550 C.3   107  GLU107      0.0388
     34  CG        73.7960  160.2250   33.7000 C.3   107  GLU107      0.1160
     35  CD        74.8030  159.4720   32.8530 C.2   107  GLU107      0.3649
     36  OE1       74.6990  159.5720   31.6050 O.co2 107  GLU107     -0.2457
     37  OE2       75.6780  158.7790   33.4510 O.co2 107  GLU107     -0.2457
     38  N         67.6720  166.7420   33.5880 N.3   136  ASP136     -0.1239
     39  CA        66.8410  166.9220   32.4020 C.3   136  ASP136      0.1674
     40  C         65.7590  165.8400   32.3340 C.2   136  ASP136      0.2266
     41  O         65.6590  165.0740   31.3770 O.2   136  ASP136     -0.2867
     42  CB        67.6990  166.9230   31.1450 C.3   136  ASP136      0.1410
     43  CG        66.9440  167.4190   29.9390 C.2   136  ASP136      0.3668
     44  OD1       66.2320  168.4300   30.0870 O.co2 136  ASP136     -0.2456
     45  OD2       67.0680  166.8150   28.8540 O.co2 136  ASP136     -0.2456
     46  N         61.5990  167.6280   29.0180 N.3   166  ARG166     -0.1245
     47  CA        62.8680  167.2060   28.4320 C.3   166  ARG166      0.1563
     48  C         63.3540  168.2860   27.4760 C.2   166  ARG166      0.2260
     49  O         62.8800  168.3790   26.3430 O.2   166  ARG166     -0.2867
     50  CB        62.7140  165.8800   27.7020 C.3   166  ARG166      0.0307
     51  CG        64.0080  165.3780   27.0610 C.3   166  ARG166      0.0489
     52  CD        64.9180  164.7490   28.0970 C.3   166  ARG166      0.2205
     53  NE        66.0140  163.9880   27.4950 N.pl3 166  ARG166     -0.0865
     54  CZ        65.9050  162.7340   27.0600 C.cat 166  ARG166      0.5346
     55  NH1       64.7480  162.0980   27.1520 N.pl3 166  ARG166      0.1354
     56  NH2       66.9500  162.1110   26.5320 N.pl3 166  ARG166      0.1354
     57  N         66.5110  168.4990   26.4230 N.3   168  GLY168     -0.1210
     58  CA        67.6370  168.0730   25.6220 C.3   168  GLY168      0.1956
     59  C         68.9530  168.6790   26.0970 C.2   168  GLY168      0.2611
     60  O         69.0080  169.7640   26.6920 O.2   168  GLY168     -0.2717
     61  N         70.0330  167.9310   25.8610 N.am  169  LEU169     -0.1979
     62  CA        71.3010  168.2680   26.5020 C.3   169  LEU169      0.1596
     63  C         71.8240  169.6310   26.0720 C.2   169  LEU169      0.2287
     64  O         72.4250  170.3530   26.8750 O.2   169  LEU169     -0.2864
     65  CB        72.3420  167.1900   26.2200 C.3   169  LEU169      0.0297
     66  CG        72.6980  166.9940   24.7540 C.3   169  LEU169      0.0022
     67  CD1       74.2020  166.9900   24.5460 C.3   169  LEU169      0.0001
     68  CD2       72.0500  165.7130   24.1690 C.3   169  LEU169      0.0001
     69  N         72.1380  172.3920   28.8660 N.3   173  ARG173     -0.1245
     70  CA        73.3750  173.0980   29.1770 C.3   173  ARG173      0.1563
     71  C         73.1390  174.5970   29.2990 C.2   173  ARG173      0.2260
     72  O         73.7600  175.2690   30.1370 O.2   173  ARG173     -0.2867
     73  CB        74.4180  172.8160   28.1020 C.3   173  ARG173      0.0307
     74  CG        75.1690  171.5310   28.2990 C.3   173  ARG173      0.0489
     75  CD        76.4660  171.5530   27.5340 C.3   173  ARG173      0.2205
     76  NE        76.8930  170.1980   27.2020 N.pl3 173  ARG173     -0.0865
     77  CZ        76.8910  169.6940   25.9700 C.cat 173  ARG173      0.5346
     78  NH1       76.5060  170.4280   24.9410 N.pl3 173  ARG173      0.1354
     79  NH2       77.2950  168.4570   25.7630 N.pl3 173  ARG173      0.1354
     80  N         80.2900  165.9680   31.4880 N.3   190  ASP190     -0.1225
     81  CA        79.3190  164.9180   31.2790 C.3   190  ASP190      0.1805
     82  C         79.0590  164.2220   32.6120 C.2   190  ASP190      0.2598
     83  O         79.8910  164.2500   33.5160 O.2   190  ASP190     -0.2718
     84  CB        79.8350  163.9360   30.2370 C.3   190  ASP190      0.1424
     85  CG        79.1030  164.0480   28.9050 C.2   190  ASP190      0.3668
     86  OD1       78.7670  165.1690   28.4870 O.co2 190  ASP190     -0.2456
     87  OD2       78.8570  163.0040   28.2780 O.co2 190  ASP190     -0.2456
     88  N         77.8790  163.6140   32.7380 N.am  191  ALA191     -0.1966
     89  CA        77.5080  162.9100   33.9610 C.3   191  ALA191      0.1728
     90  C         78.2140  161.5680   34.1160 C.2   191  ALA191      0.2616
     91  O         77.7430  160.7090   34.8660 O.2   191  ALA191     -0.2715
     92  CB        76.0120  162.7260   34.0120 C.3   191  ALA191      0.0334
     93  N         79.3450  161.3590   33.4300 N.am  192  HIS192     -0.1973
     94  CA        80.1280  160.1320   33.5660 C.3   192  HIS192      0.1656
     95  C         81.5640  160.4790   33.2030 C.2   192  HIS192      0.2291
     96  O         82.0570  160.1520   32.1220 O.2   192  HIS192     -0.2864
     97  CB        79.5690  159.0630   32.7120 C.3   192  HIS192      0.0771
     98  CG        79.0210  159.5580   31.4190 C.ar  192  HIS192      0.0820
     99  ND1       77.6770  159.7750   31.2210 N.ar  192  HIS192     -0.2267
    100  CD2       79.6310  159.8680   30.2540 C.ar  192  HIS192      0.1154
    101  CE1       77.4810  160.1910   29.9840 C.ar  192  HIS192      0.1986
    102  NE2       78.6520  160.2570   29.3770 N.ar  192  HIS192     -0.2212
    103  N         81.1810  168.0210   25.2280 N.3   279  GLY279     -0.1225
    104  CA        80.6670  167.7810   26.5630 C.3   279  GLY279      0.1811
    105  C         81.4720  168.3900   27.6910 C.2   279  GLY279      0.2280
    106  O         80.9450  168.5680   28.7990 O.2   279  GLY279     -0.2866
    107  N         67.7490  168.1310   20.2230 N.3   300  ILE300     -0.1231
    108  CA        68.2850  167.3570   21.3030 C.3   300  ILE300      0.1692
    109  C         69.7500  166.9810   21.2210 C.2   300  ILE300      0.2592
    110  O         70.4490  167.1430   22.1980 O.2   300  ILE300     -0.2718
    111  CB        67.4910  166.0570   21.4670 C.3   300  ILE300      0.0266
    112  CG1       67.2800  165.3890   20.1050 C.3   300  ILE300      0.0019
    113  CG2       66.2090  166.3260   22.2410 C.3   300  ILE300      0.0020
    114  CD1       65.8770  165.4690   19.5430 C.3   300  ILE300      0.0001
    115  N         70.2350  166.5040   20.0860 N.am  301  TRP301     -0.1976
    116  CA        71.6470  166.1300   20.0000 C.3   301  TRP301      0.1640
    117  C         72.4020  166.5990   18.7700 C.2   301  TRP301      0.2290
    118  O         71.9990  166.3520   17.6510 O.2   301  TRP301     -0.2864
    119  CB        71.8000  164.6120   20.1550 C.3   301  TRP301      0.0576
    120  CG        73.2160  164.1490   20.2580 C.ar  301  TRP301      0.0006
    121  CD1       73.9090  163.9130   21.3930 C.ar  301  TRP301      0.0946
    122  CD2       74.1100  163.8830   19.1800 C.ar  301  TRP301      0.0152
    123  NE1       75.1780  163.5080   21.0950 N.ar  301  TRP301     -0.2442
    124  CE2       75.3250  163.4840   19.7380 C.ar  301  TRP301      0.0810
    125  CE3       73.9980  163.9450   17.7950 C.ar  301  TRP301      0.0012
    126  CZ2       76.4240  163.1470   18.9620 C.ar  301  TRP301      0.0191
    127  CZ3       75.0860  163.6100   17.0310 C.ar  301  TRP301      0.0001
    128  CH2       76.2820  163.2180   17.6110 C.ar  301  TRP301      0.0015
    129  N         86.3360  160.1880   30.3480 N.3   329  HIS329     -0.1241
    130  CA        84.9610  160.1750   29.9020 C.3   329  HIS329      0.1621
    131  C         84.5660  158.7250   29.6730 C.2   329  HIS329      0.2264
    132  O         85.2010  158.0400   28.8660 O.2   329  HIS329     -0.2867
    133  CB        84.8340  161.0030   28.6270 C.3   329  HIS329      0.0745
    134  CG        83.4470  161.0600   28.0970 C.ar  329  HIS329      0.0817
    135  ND1       83.0420  160.3320   27.0060 N.ar  329  HIS329     -0.2268
    136  CD2       82.3570  161.7260   28.5350 C.ar  329  HIS329      0.1154
    137  CE1       81.7630  160.5620   26.7810 C.ar  329  HIS329      0.1986
    138  NE2       81.3290  161.4200   27.6830 N.ar  329  HIS329     -0.2212
    139  N         80.0100  154.8440   25.9220 N.3   332  ARG332     -0.1245
    140  CA        78.8460  153.9720   26.0140 C.3   332  ARG332      0.1563
    141  C         79.0750  152.6530   25.2860 C.2   332  ARG332      0.2260
    142  O         79.5940  152.6290   24.1720 O.2   332  ARG332     -0.2867
    143  CB        77.6310  154.6930   25.4500 C.3   332  ARG332      0.0307
    144  CG        77.6620  156.2140   25.7010 C.3   332  ARG332      0.0489
    145  CD        76.2660  156.8100   25.7070 C.3   332  ARG332      0.2205
    146  NE        75.5060  156.4170   26.8950 N.pl3 332  ARG332     -0.0865
    147  CZ        75.2880  157.2040   27.9450 C.cat 332  ARG332      0.5346
    148  NH1       75.7770  158.4350   27.9570 N.pl3 332  ARG332      0.1354
    149  NH2       74.5780  156.7600   28.9790 N.pl3 332  ARG332      0.1354
    150  N         73.1370  149.4930   24.3490 N.3   336  TRP336     -0.1241
    151  CA        72.4270  150.3920   25.2370 C.3   336  TRP336      0.1605
    152  C         71.0450  150.7070   24.6870 C.2   336  TRP336      0.2264
    153  O         70.8990  151.1150   23.5310 O.2   336  TRP336     -0.2867
    154  CB        73.2320  151.6700   25.4000 C.3   336  TRP336      0.0550
    155  CG        72.6150  152.6670   26.2840 C.ar  336  TRP336      0.0003
    156  CD1       72.0600  152.4560   27.5100 C.ar  336  TRP336      0.0946
    157  CD2       72.5140  154.0610   26.0270 C.ar  336  TRP336      0.0152
    158  NE1       71.6090  153.6420   28.0270 N.ar  336  TRP336     -0.2442
    159  CE2       71.8790  154.6440   27.1320 C.ar  336  TRP336      0.0810
    160  CE3       72.9050  154.8780   24.9630 C.ar  336  TRP336      0.0012
    161  CZ2       71.6180  156.0070   27.2000 C.ar  336  TRP336      0.0191
    162  CZ3       72.6480  156.2210   25.0320 C.ar  336  TRP336      0.0001
    163  CH2       72.0100  156.7760   26.1380 C.ar  336  TRP336      0.0015
@<TRIPOS>BOND
     1   127   128   ar
     2   127   125   ar
     3   128   126   ar
     4   118   117    2
     5   125   122   ar
     6   117   116    1
     7   126   124   ar
     8   122   124   ar
     9   122   120   ar
    10   114   112    1
    11   124   123   ar
    12   116   115    1
    13   116   119    1
    14   115   109   am
    15   112   111    1
    16   119   120    1
    17   107   108    1
    18   120   121   ar
    19   123   121   ar
    20   109   108    1
    21   109   110    2
    22   108   111    1
    23   111   113    1
    24   153   152    2
    25    68    66    1
    26   142   141    2
    27   150   151    1
    28    67    66    1
    29   152   151    1
    30    66    65    1
    31    78    77    1
    32   160   162   ar
    33   160   157   ar
    34   162   163   ar
    35   103   104    1
    36   151   154    1
    37   141   140    1
    38   154   155    1
    39   143   144    1
    40   143   140    1
    41    58    59    1
    42    58    57    1
    43   144   145    1
    44   145   146    1
    45    79    77    1
    46    61    59   am
    47    61    62    1
    48   139   140    1
    49    77    76    2
    50   157   155   ar
    51   157   159   ar
    52    63    62    1
    53    63    64    2
    54    59    60    2
    55   163   161   ar
    56    65    62    1
    57   155   156   ar
    58    49    48    2
    59    56    54    1
    60   104   105    1
    61   137   135   ar
    62   137   138   ar
    63   146   147    2
    64   135   134   ar
    65    54    55    1
    66    54    53    2
    67    51    50    1
    68    51    52    1
    69   159   161   ar
    70   159   158   ar
    71    76    75    1
    72    48    47    1
    73    53    52    1
    74   156   158   ar
    75    75    74    1
    76   138   136   ar
    77   105   106    2
    78    50    47    1
    79   147   148    1
    80   147   149    1
    81   134   136   ar
    82   134   133    1
    83    73    74    1
    84    73    70    1
    85    87    85   ar
    86    47    46    1
    87    86    85   ar
    88   133   130    1
    89    45    43   ar
    90    69    70    1
    91   132   131    2
    92    85    84    1
    93    70    71    1
    94    71    72    2
    95   102   101   ar
    96   102   100   ar
    97   131   130    1
    98    28    26   ar
    99    28    27   ar
   100    26    24   ar
   101   130   129    1
   102    43    44   ar
   103    43    42    1
   104   101    99   ar
   105    27    25   ar
   106    84    81    1
   107   100    98   ar
   108    24    25   ar
   109    24    23    1
   110    23    20    1
   111     6     5    1
   112    42    39    1
   113    99    98   ar
   114    81    80    1
   115    81    82    1
   116    41    40    2
   117     7     5    1
   118    98    97    1
   119     5     2    1
   120    36    35   ar
   121    22    21    2
   122    96    95    2
   123    20    21    1
   124    20    19    1
   125    40    39    1
   126    39    38    1
   127    19    10   am
   128     4     3    2
   129    82    88   am
   130    82    83    2
   131    97    94    1
   132    88    89    1
   133    35    37   ar
   134    35    34    1
   135     2     3    1
   136     2     1    1
   137     3     8   am
   138    10     9    1
   139    10    11    2
   140    95    94    1
   141     8     9    1
   142    93    94    1
   143    93    90   am
   144     9    12    1
   145    34    33    1
   146    89    92    1
   147    89    90    1
   148    90    91    2
   149    29    30    1
   150    30    33    1
   151    30    31    1
   152    12    13    1
   153    31    32    2
   154    13    14   ar
   155    13    15   ar
   156    14    16   ar
   157    15    17   ar
   158    16    18   ar
   159    17    18   ar
