@<TRIPOS>MOLECULE
tmp/6ixjJ01.pdb
 120 117 0 0 0
SMALL
GASTEIGER

@<TRIPOS>ATOM
      1  N         19.3380    7.6190   -1.3180 N.3   138  SER138     -0.1202
      2  CA        19.4150    7.7650    0.1290 C.3   138  SER138      0.2020
      3  C         18.3950    6.8390    0.7640 C.2   138  SER138      0.2619
      4  O         17.4650    6.3640    0.1060 O.2   138  SER138     -0.2717
      5  CB        19.1530    9.2100    0.5700 C.3   138  SER138      0.2103
      6  OG        18.7560    9.2600    1.9310 O.3   138  SER138     -0.2182
      7  N         18.5890    6.5790    2.0580 N.am  139  ILE139     -0.1965
      8  CA        17.5400    5.9240    2.8290 C.3   139  ILE139      0.1727
      9  C         16.2920    6.7960    2.8610 C.2   139  ILE139      0.2616
     10  O         15.1750    6.2920    3.0260 O.2   139  ILE139     -0.2715
     11  CB        18.0390    5.5910    4.2520 C.3   139  ILE139      0.0290
     12  CG1       18.4310    6.8660    5.0010 C.3   139  ILE139      0.0022
     13  CG2       19.2140    4.6280    4.1970 C.3   139  ILE139      0.0023
     14  CD1       18.8220    6.6270    6.4370 C.3   139  ILE139      0.0001
     15  N         16.4580    8.1150    2.7020 N.am  140  ALA140     -0.1977
     16  CA        15.3190    9.0260    2.7130 C.3   140  ALA140      0.1597
     17  C         14.3930    8.8360    1.5230 C.2   140  ALA140      0.2287
     18  O         13.2050    9.1670    1.6200 O.2   140  ALA140     -0.2864
     19  CB        15.8150   10.4680    2.7480 C.3   140  ALA140      0.0319
     20  N         10.4150   10.2440    7.2180 N.3   145  TYR145     -0.1241
     21  CA        10.7660   10.7590    8.5340 C.3   145  TYR145      0.1605
     22  C         10.4930   12.2580    8.5570 C.2   145  TYR145      0.2264
     23  O         10.4780   12.9040    7.5020 O.2   145  TYR145     -0.2867
     24  CB        12.2390   10.4660    8.8730 C.3   145  TYR145      0.0534
     25  CG        13.2330   11.0750    7.9130 C.ar  145  TYR145     -0.0201
     26  CD1       13.6060   10.4090    6.7560 C.ar  145  TYR145     -0.0009
     27  CD2       13.8090   12.3120    8.1710 C.ar  145  TYR145     -0.0009
     28  CE1       14.5180   10.9570    5.8820 C.ar  145  TYR145      0.0417
     29  CE2       14.7230   12.8690    7.3040 C.ar  145  TYR145      0.0417
     30  CZ        15.0740   12.1860    6.1600 C.ar  145  TYR145      0.1957
     31  OH        15.9740   12.7430    5.2840 O.3   145  TYR145     -0.2866
     32  N         13.2410   16.3680    0.3360 N.3   151  TYR151     -0.1241
     33  CA        14.4920   15.6310    0.1830 C.3   151  TYR151      0.1605
     34  C         14.2390   14.1540   -0.0690 C.2   151  TYR151      0.2264
     35  O         14.7360   13.5840   -1.0470 O.2   151  TYR151     -0.2867
     36  CB        15.3720   15.7800    1.4170 C.3   151  TYR151      0.0534
     37  CG        16.6540   15.0190    1.2360 C.ar  151  TYR151     -0.0201
     38  CD1       17.6250   15.4700    0.3560 C.ar  151  TYR151     -0.0009
     39  CD2       16.8700   13.8210    1.8950 C.ar  151  TYR151     -0.0009
     40  CE1       18.7940   14.7670    0.1670 C.ar  151  TYR151      0.0417
     41  CE2       18.0300   13.1090    1.7050 C.ar  151  TYR151      0.0417
     42  CZ        18.9910   13.5860    0.8480 C.ar  151  TYR151      0.1957
     43  OH        20.1500   12.8710    0.6680 O.3   151  TYR151     -0.2866
     44  N         22.7980    5.6370    0.6740 N.3   181  PRO181     -0.2102
     45  CA        23.4770    5.5930    1.9700 C.3   181  PRO181      0.1504
     46  C         22.6130    6.1330    3.1000 C.2   181  PRO181      0.2576
     47  O         21.5990    6.8030    2.8900 O.2   181  PRO181     -0.2718
     48  CB        24.7030    6.4990    1.7570 C.3   181  PRO181      0.0282
     49  CG        24.6490    6.9550    0.3120 C.3   181  PRO181      0.0208
     50  CD        23.2390    6.7830   -0.1310 C.3   181  PRO181      0.0893
     51  N         23.0420    5.8220    4.3170 N.am  182  GLY182     -0.1943
     52  CA        22.4360    6.3570    5.5190 C.3   182  GLY182      0.2014
     53  C         23.1240    7.6250    5.9710 C.2   182  GLY182      0.2638
     54  O         23.7250    8.3530    5.1750 O.2   182  GLY182     -0.2714
     55  N         23.0500    7.8890    7.2740 N.am  183  ILE183     -0.1977
     56  CA        23.6140    9.1200    7.8130 C.3   183  ILE183      0.1596
     57  C         25.1350    9.0470    7.7470 C.2   183  ILE183      0.2287
     58  O         25.7470    8.0540    8.1630 O.2   183  ILE183     -0.2864
     59  CB        23.1130    9.3530    9.2460 C.3   183  ILE183      0.0276
     60  CG1       23.8600   10.5100    9.9010 C.3   183  ILE183      0.0022
     61  CG2       23.2530    8.0900   10.0800 C.3   183  ILE183      0.0022
     62  CD1       23.4180   10.7840   11.3210 C.3   183  ILE183      0.0001
     63  N         27.2120   17.7080    4.3030 N.3   188  PHE188     -0.1227
     64  CA        25.8000   17.5580    3.9510 C.3   188  PHE188      0.1736
     65  C         24.8890   18.3040    4.9220 C.2   188  PHE188      0.2596
     66  O         24.1010   19.1670    4.5150 O.2   188  PHE188     -0.2718
     67  CB        25.4360   16.0700    3.9120 C.3   188  PHE188      0.0547
     68  CG        23.9640   15.8040    3.7400 C.ar  188  PHE188     -0.0202
     69  CD1       23.3710   15.8790    2.4880 C.ar  188  PHE188     -0.0042
     70  CD2       23.1740   15.4780    4.8310 C.ar  188  PHE188     -0.0042
     71  CE1       22.0170   15.6340    2.3310 C.ar  188  PHE188     -0.0003
     72  CE2       21.8230   15.2360    4.6790 C.ar  188  PHE188     -0.0003
     73  CZ        21.2450   15.3130    3.4280 C.ar  188  PHE188     -0.0000
     74  N         24.9760   17.9780    6.2160 N.am  189  THR189     -0.1953
     75  CA        24.1060   18.6200    7.2000 C.3   189  THR189      0.1897
     76  C         24.4350   20.0960    7.3600 C.2   189  THR189      0.2313
     77  O         23.5470   20.9020    7.6670 O.2   189  THR189     -0.2863
     78  CB        24.2130   17.9070    8.5480 C.3   189  THR189      0.1794
     79  OG1       23.9080   16.5180    8.3750 O.3   189  THR189     -0.2208
     80  CG2       23.2410   18.5100    9.5570 C.3   189  THR189      0.0378
     81  N         22.1830   21.7400    4.5650 N.3   192  ARG192     -0.1245
     82  CA        20.7150   21.8620    4.7430 C.3   192  ARG192      0.1563
     83  C         20.3920   22.7600    5.9310 C.2   192  ARG192      0.2260
     84  O         19.2810   23.3090    6.0200 O.2   192  ARG192     -0.2867
     85  CB        19.9170   20.5020    4.8380 C.3   192  ARG192      0.0307
     86  CG        19.7180   19.6260    6.1700 C.3   192  ARG192      0.0489
     87  CD        18.3000   18.6670    6.3150 C.3   192  ARG192      0.2205
     88  NE        16.9590   19.2270    5.8180 N.pl3 192  ARG192     -0.0865
     89  CZ        15.9300   18.4710    5.3410 C.cat 192  ARG192      0.5346
     90  NH1       16.1340   17.1740    5.2540 N.pl3 192  ARG192      0.1354
     91  NH2       14.7720   18.9610    4.8590 N.pl3 192  ARG192      0.1354
     92  N         24.3630   16.0640   15.7660 N.3   203  LEU203     -0.1231
     93  CA        23.8490   14.8530   15.1340 C.3   203  LEU203      0.1693
     94  C         24.9080   13.7560   15.0640 C.2   203  LEU203      0.2592
     95  O         24.5890   12.5700   15.2080 O.2   203  LEU203     -0.2718
     96  CB        23.3260   15.1860   13.7370 C.3   203  LEU203      0.0284
     97  CG        22.7980   14.0450   12.8670 C.3   203  LEU203      0.0019
     98  CD1       21.3550   13.7170   13.2170 C.3   203  LEU203      0.0001
     99  CD2       22.9270   14.4060   11.3950 C.3   203  LEU203      0.0001
    100  N         26.1680   14.1270   14.8510 N.am  204  TYR204     -0.1976
    101  CA        27.2570   13.1730   14.6730 C.3   204  TYR204      0.1639
    102  C         28.0800   12.9490   15.9370 C.2   204  TYR204      0.2290
    103  O         29.0490   12.1820   15.8990 O.2   204  TYR204     -0.2864
    104  CB        28.1810   13.6320   13.5370 C.3   204  TYR204      0.0560
    105  CG        27.4850   13.8480   12.2100 C.ar  204  TYR204     -0.0198
    106  CD1       26.6800   12.8650   11.6530 C.ar  204  TYR204     -0.0009
    107  CD2       27.6390   15.0360   11.5120 C.ar  204  TYR204     -0.0009
    108  CE1       26.0470   13.0640   10.4390 C.ar  204  TYR204      0.0417
    109  CE2       27.0050   15.2460   10.2990 C.ar  204  TYR204      0.0417
    110  CZ        26.2110   14.2550    9.7680 C.ar  204  TYR204      0.1957
    111  OH        25.5790   14.4540    8.5600 O.3   204  TYR204     -0.2866
    112  N         22.4020    2.7330   13.3410 N.3   241  GLN241     -0.1245
    113  CA        21.1970    3.4080   12.8860 C.3   241  GLN241      0.1566
    114  C         20.1720    2.3730   12.4500 C.2   241  GLN241      0.2260
    115  O         20.5060    1.4000   11.7660 O.2   241  GLN241     -0.2867
    116  CB        21.4760    4.3640   11.7260 C.3   241  GLN241      0.0367
    117  CG        20.2520    5.1580   11.2930 C.3   241  GLN241      0.0905
    118  CD        20.5080    6.0050   10.0650 C.2   241  GLN241      0.2608
    119  OE1       21.3240    5.6530    9.2170 O.2   241  GLN241     -0.2717
    120  NE2       19.8150    7.1330    9.9680 N.am  241  GLN241     -0.0878
@<TRIPOS>BOND
     1     1     2    1
     2    35    34    2
     3    50    49    1
     4    50    44    1
     5    34    33    1
     6     4     3    2
     7     2     5    1
     8     2     3    1
     9    40    38   ar
    10    40    42   ar
    11    33    32    1
    12    33    36    1
    13    49    48    1
    14    38    37   ar
    15     5     6    1
    16    43    42    1
    17    44    45    1
    18     3     7   am
    19    42    41   ar
    20    37    36    1
    21    37    39   ar
    22    17    18    2
    23    17    16    1
    24    41    39   ar
    25    48    45    1
    26    45    46    1
    27     7     8    1
    28    71    69   ar
    29    71    73   ar
    30    69    68   ar
    31    15    16    1
    32    15     9   am
    33    16    19    1
    34     8     9    1
    35     8    11    1
    36     9    10    2
    37    47    46    2
    38    46    51   am
    39    73    72   ar
    40    68    67    1
    41    68    70   ar
    42    67    64    1
    43    64    63    1
    44    64    65    1
    45    13    11    1
    46    11    12    1
    47    51    52    1
    48    66    65    2
    49    81    82    1
    50    72    70   ar
    51    82    85    1
    52    82    83    1
    53    85    86    1
    54    91    89    1
    55    65    74   am
    56    12    14    1
    57    54    53    2
    58    90    89    1
    59    31    30    1
    60    89    88    2
    61    52    53    1
    62    88    87    1
    63    28    30   ar
    64    28    26   ar
    65    83    84    2
    66    53    55   am
    67    30    29   ar
    68    86    87    1
    69    74    75    1
    70    26    25   ar
    71    75    76    1
    72    75    78    1
    73    20    21    1
    74    55    56    1
    75    29    27   ar
    76    76    77    2
    77    23    22    2
    78    57    56    1
    79    57    58    2
    80    56    59    1
    81    25    27   ar
    82    25    24    1
    83    79    78    1
    84    21    22    1
    85    21    24    1
    86    78    80    1
    87   111   110    1
    88   119   118    2
    89    59    60    1
    90    59    61    1
    91   110   109   ar
    92   110   108   ar
    93    60    62    1
    94   120   118   am
    95   118   117    1
    96   109   107   ar
    97   108   106   ar
    98   117   116    1
    99    99    97    1
   100   107   105   ar
   101   106   105   ar
   102   116   113    1
   103   115   114    2
   104   105   104    1
   105   114   113    1
   106    97    98    1
   107    97    96    1
   108   113   112    1
   109   104   101    1
   110    96    93    1
   111   101   100    1
   112   101   102    1
   113   100    94   am
   114    94    93    1
   115    94    95    2
   116    93    92    1
   117   103   102    2
