@<TRIPOS>MOLECULE
tmp/6iyvB00.pdb
 91 90 0 0 0
SMALL
GASTEIGER

@<TRIPOS>ATOM
      1  N        -26.5890  -23.6530  -12.7780 N.3    41  ARG41      -0.1245
      2  CA       -27.6810  -22.9370  -13.4340 C.3    41  ARG41       0.1563
      3  C        -28.3700  -23.7970  -14.4810 C.2    41  ARG41       0.2260
      4  O        -29.5900  -23.7010  -14.6630 O.2    41  ARG41      -0.2867
      5  CB       -27.1450  -21.6650  -14.0820 C.3    41  ARG41       0.0307
      6  CG       -26.7920  -20.5840  -13.0950 C.3    41  ARG41       0.0489
      7  CD       -26.2100  -19.3750  -13.8210 C.3    41  ARG41       0.2205
      8  NE       -25.9340  -18.3100  -12.8610 N.pl3  41  ARG41      -0.0865
      9  CZ       -25.4790  -17.0980  -13.1750 C.cat  41  ARG41       0.5346
     10  NH1      -25.2330  -16.7690  -14.4390 N.pl3  41  ARG41       0.1354
     11  NH2      -25.2770  -16.2130  -12.2130 N.pl3  41  ARG41       0.1354
     12  N        -32.5450  -16.0480  -18.4060 N.3    61  TYR61      -0.1227
     13  CA       -31.3440  -15.2520  -18.1630 C.3    61  TYR61       0.1736
     14  C        -31.2400  -14.9950  -16.6640 C.2    61  TYR61       0.2595
     15  O        -32.2390  -14.6540  -16.0270 O.2    61  TYR61      -0.2718
     16  CB       -31.3970  -13.9290  -18.9550 C.3    61  TYR61       0.0548
     17  CG       -30.0820  -13.1750  -19.0160 C.ar   61  TYR61      -0.0200
     18  CD1      -29.7700  -12.1680  -18.1020 C.ar   61  TYR61      -0.0009
     19  CD2      -29.1610  -13.4690  -20.0110 C.ar   61  TYR61      -0.0009
     20  CE1      -28.5530  -11.4920  -18.1820 C.ar   61  TYR61       0.0417
     21  CE2      -27.9580  -12.8230  -20.0930 C.ar   61  TYR61       0.0417
     22  CZ       -27.6550  -11.8390  -19.1900 C.ar   61  TYR61       0.1957
     23  OH       -26.4290  -11.2170  -19.3280 O.3    61  TYR61      -0.2866
     24  N        -30.0470  -15.1750  -16.0980 N.am   62  TRP62      -0.1962
     25  CA       -29.8370  -14.9980  -14.6620 C.3    62  TRP62       0.1771
     26  C        -29.4500  -13.5570  -14.3520 C.2    62  TRP62       0.2619
     27  O        -28.4730  -13.0440  -14.9050 O.2    62  TRP62      -0.2715
     28  CB       -28.7620  -15.9660  -14.1590 C.3    62  TRP62       0.0590
     29  CG       -29.2210  -17.3850  -14.2340 C.ar   62  TRP62       0.0006
     30  CD1      -29.3030  -18.1530  -15.3550 C.ar   62  TRP62       0.0946
     31  CD2      -29.6950  -18.1940  -13.1500 C.ar   62  TRP62       0.0152
     32  NE1      -29.7900  -19.3990  -15.0410 N.ar   62  TRP62      -0.2442
     33  CE2      -30.0440  -19.4460  -13.6940 C.ar   62  TRP62       0.0810
     34  CE3      -29.8510  -17.9840  -11.7700 C.ar   62  TRP62       0.0012
     35  CZ2      -30.5390  -20.4930  -12.9090 C.ar   62  TRP62       0.0191
     36  CZ3      -30.3560  -19.0290  -10.9880 C.ar   62  TRP62       0.0001
     37  CH2      -30.6890  -20.2630  -11.5660 C.ar   62  TRP62       0.0015
     38  N        -30.2300  -12.9020  -13.4840 N.am   63  LEU63      -0.1963
     39  CA       -29.8810  -11.5480  -13.0570 C.3    63  LEU63       0.1728
     40  C        -28.7230  -11.5560  -12.0780 C.2    63  LEU63       0.2616
     41  O        -27.9990  -10.5570  -11.9640 O.2    63  LEU63      -0.2715
     42  CB       -31.0810  -10.8710  -12.4050 C.3    63  LEU63       0.0311
     43  CG       -32.3510  -10.7440  -13.2410 C.3    63  LEU63       0.0022
     44  CD1      -33.3750   -9.8430  -12.5280 C.3    63  LEU63       0.0001
     45  CD2      -32.0040  -10.2330  -14.6470 C.3    63  LEU63       0.0001
     46  N        -28.5810  -12.6410  -11.3290 N.am   64  ASN64      -0.1958
     47  CA       -27.5770  -12.8010  -10.2870 C.3    64  ASN64       0.1819
     48  C        -27.5820  -14.2750   -9.9010 C.2    64  ASN64       0.2621
     49  O        -28.2570  -15.0940  -10.5380 O.2    64  ASN64      -0.2715
     50  CB       -27.8930  -11.8430   -9.1390 C.3    64  ASN64       0.1195
     51  CG       -29.3070  -12.0130   -8.6210 C.2    64  ASN64       0.2630
     52  OD1      -29.7310  -13.1190   -8.2860 O.2    64  ASN64      -0.2716
     53  ND2      -30.0830  -10.9460   -8.6710 N.am   64  ASN64      -0.0877
     54  N        -26.8620  -14.6220   -8.8410 N.am   65  ASN65      -0.1972
     55  CA       -26.7360  -16.0290   -8.4940 C.3    65  ASN65       0.1688
     56  C        -27.9930  -16.5960   -7.8590 C.2    65  ASN65       0.2292
     57  O        -28.0670  -17.8190   -7.6620 O.2    65  ASN65      -0.2864
     58  CB       -25.5540  -16.2320   -7.5440 C.3    65  ASN65       0.1181
     59  CG       -24.2440  -15.9490   -8.2110 C.2    65  ASN65       0.2629
     60  OD1      -24.1040  -16.1500   -9.4170 O.2    65  ASN65      -0.2716
     61  ND2      -23.2700  -15.4740   -7.4400 N.am   65  ASN65      -0.0877
     62  N        -29.7970   -5.7680  -15.2720 N.3   248  ILE248     -0.1245
     63  CA       -29.8910   -6.6870  -14.1400 C.3   248  ILE248      0.1561
     64  C        -30.4660   -6.0160  -12.8940 C.2   248  ILE248      0.2260
     65  O        -30.3810   -6.5830  -11.7960 O.2   248  ILE248     -0.2867
     66  CB       -28.5190   -7.3000  -13.8200 C.3   248  ILE248      0.0252
     67  CG1      -27.5040   -6.2040  -13.4930 C.3   248  ILE248      0.0019
     68  CG2      -28.0510   -8.1700  -14.9680 C.3   248  ILE248      0.0019
     69  CD1      -26.2440   -6.7290  -12.8350 C.3   248  ILE248      0.0001
     70  N        -26.8510  -17.2830  -19.7130 N.3   265  ASN265     -0.1225
     71  CA       -25.6090  -17.2670  -18.9470 C.3   265  ASN265      0.1785
     72  C        -25.5730  -18.4540  -17.9950 C.2   265  ASN265      0.2597
     73  O        -25.1230  -18.3450  -16.8510 O.2   265  ASN265     -0.2718
     74  CB       -25.4100  -15.9360  -18.1990 C.3   265  ASN265      0.1169
     75  CG       -26.6590  -15.4400  -17.4630 C.2   265  ASN265      0.2627
     76  OD1      -27.6750  -16.1290  -17.3590 O.2   265  ASN265     -0.2716
     77  ND2      -26.5650  -14.2260  -16.9210 N.am  265  ASN265     -0.0877
     78  N        -26.0090  -19.6140  -18.4770 N.am  266  ALA266     -0.1966
     79  CA       -25.9970  -20.8190  -17.6560 C.3   266  ALA266      0.1728
     80  C        -24.8270  -21.7490  -17.9460 C.2   266  ALA266      0.2616
     81  O        -24.2340  -22.2970  -17.0120 O.2   266  ALA266     -0.2715
     82  CB       -27.3050  -21.5970  -17.8420 C.3   266  ALA266      0.0334
     83  N        -24.4780  -21.9490  -19.2070 N.am  267  LYS267     -0.1977
     84  CA       -23.5550  -23.0310  -19.5440 C.3   267  LYS267      0.1596
     85  C        -22.2420  -22.5030  -20.0960 C.2   267  LYS267      0.2287
     86  O        -21.1940  -23.1190  -19.9080 O.2   267  LYS267     -0.2864
     87  CB       -24.2140  -23.9870  -20.5460 C.3   267  LYS267      0.0298
     88  CG       -23.4910  -25.3100  -20.7490 C.3   267  LYS267      0.0038
     89  CD       -22.3190  -25.1630  -21.7040 C.3   267  LYS267      0.0206
     90  CE       -22.7680  -24.5390  -23.0130 C.3   267  LYS267      0.1093
     91  NZ       -21.6330  -24.3490  -23.9550 N.3   267  LYS267     -0.1314
@<TRIPOS>BOND
     1    91    90    1
     2    90    89    1
     3    89    88    1
     4    88    87    1
     5    87    84    1
     6    85    86    2
     7    85    84    1
     8    21    19   ar
     9    21    22   ar
    10    19    17   ar
    11    70    71    1
    12    84    83    1
    13    23    22    1
    14    83    80   am
    15    22    20   ar
    16    17    16    1
    17    17    18   ar
    18    16    13    1
    19    71    74    1
    20    71    72    1
    21    78    72   am
    22    78    79    1
    23    12    13    1
    24    74    75    1
    25    20    18   ar
    26    13    14    1
    27    72    73    2
    28    80    79    1
    29    80    81    2
    30    82    79    1
    31    75    76    2
    32    75    77   am
    33    14    24   am
    34    14    15    2
    35    24    25    1
    36    30    32   ar
    37    30    29   ar
    38    62    63    1
    39    32    33   ar
    40    68    66    1
    41    27    26    2
    42     4     3    2
    43    25    26    1
    44    25    28    1
    45    45    43    1
    46     3     2    1
    47    10     9    1
    48    26    38   am
    49    29    28    1
    50    29    31   ar
    51    63    66    1
    52    63    64    1
    53     5     2    1
    54     5     6    1
    55     7     6    1
    56     7     8    1
    57    66    67    1
    58    33    31   ar
    59    33    35   ar
    60    67    69    1
    61    38    39    1
    62     2     1    1
    63    43    44    1
    64    43    42    1
    65     9     8    2
    66     9    11    1
    67    31    34   ar
    68    39    42    1
    69    39    40    1
    70    35    37   ar
    71    64    65    2
    72    40    41    2
    73    40    46   am
    74    34    36   ar
    75    37    36   ar
    76    46    47    1
    77    49    48    2
    78    47    48    1
    79    47    50    1
    80    48    54   am
    81    60    59    2
    82    50    51    1
    83    54    55    1
    84    53    51   am
    85    51    52    2
    86    55    56    1
    87    55    58    1
    88    59    58    1
    89    59    61   am
    90    56    57    2
