@<TRIPOS>MOLECULE
tmp/6iyvB01.pdb
 122 120 0 0 0
SMALL
GASTEIGER

@<TRIPOS>ATOM
      1  N        -28.6880   14.3480  -10.3930 N.3   145  THR145     -0.1204
      2  CA       -29.2500   13.0680   -9.9500 C.3   145  THR145      0.1979
      3  C        -30.3340   12.6860  -10.9440 C.2   145  THR145      0.2460
      4  O        -31.5260   12.6600  -10.6110 O.2   145  THR145     -0.2732
      5  CB       -29.8180   13.1540   -8.5320 C.3   145  THR145      0.1783
      6  OG1      -30.8820   14.1170   -8.4940 O.3   145  THR145     -0.2211
      7  CG2      -28.7360   13.5620   -7.5320 C.3   145  THR145      0.0376
      8  N        -29.9510   12.3920  -12.1830 N.am  146  PRO146     -0.2717
      9  CA       -30.9390   12.2440  -13.2550 C.3   146  PRO146      0.1536
     10  C        -31.6390   10.8940  -13.2220 C.2   146  PRO146      0.2599
     11  O        -31.1770    9.9300  -12.6070 O.2   146  PRO146     -0.2715
     12  CB       -30.0970   12.3940  -14.5240 C.3   146  PRO146      0.0310
     13  CG       -28.7520   11.8660  -14.1210 C.3   146  PRO146      0.0237
     14  CD       -28.5690   12.2690  -12.6860 C.3   146  PRO146      0.0939
     15  N        -32.7880   10.8540  -13.8950 N.am  147  THR147     -0.1937
     16  CA       -33.5040    9.6050  -14.1220 C.3   147  THR147      0.2028
     17  C        -32.8860    8.8810  -15.3080 C.2   147  THR147      0.2642
     18  O        -32.7340    9.4610  -16.3860 O.2   147  THR147     -0.2714
     19  CB       -34.9800    9.8810  -14.3990 C.3   147  THR147      0.1808
     20  OG1      -35.5370   10.6170  -13.3060 O.3   147  THR147     -0.2208
     21  CG2      -35.7600    8.5840  -14.5720 C.3   147  THR147      0.0379
     22  N        -32.5460    7.6100  -15.1220 N.am  148  ALA148     -0.1977
     23  CA       -31.9710    6.8490  -16.2210 C.3   148  ALA148      0.1597
     24  C        -33.0180    6.5950  -17.2990 C.2   148  ALA148      0.2287
     25  O        -34.1860    6.3230  -17.0090 O.2   148  ALA148     -0.2864
     26  CB       -31.4060    5.5190  -15.7120 C.3   148  ALA148      0.0319
     27  N        -39.1870    7.4080    2.2530 N.3   163  MET163     -0.1245
     28  CA       -37.9520    7.4990    1.4910 C.3   163  MET163      0.1570
     29  C        -36.8990    8.0320    2.4520 C.2   163  MET163      0.2261
     30  O        -36.9600    9.1970    2.8600 O.2   163  MET163     -0.2867
     31  CB       -38.1130    8.4500    0.3070 C.3   163  MET163      0.0387
     32  CG       -39.2220    8.1230   -0.6720 C.3   163  MET163      0.0595
     33  SD       -39.2600    6.4210   -1.2420 S.3   163  MET163     -0.1393
     34  CE       -40.4860    6.5450   -2.5540 C.3   163  MET163      0.0692
     35  N        -30.7900    4.3560    4.1360 N.3   167  THR167     -0.1203
     36  CA       -30.6880    3.0130    3.5800 C.3   167  THR167      0.1994
     37  C        -29.8790    3.0120    2.2930 C.2   167  THR167      0.2618
     38  O        -29.5140    1.9390    1.8040 O.2   167  THR167     -0.2717
     39  CB       -32.0670    2.3780    3.3350 C.3   167  THR167      0.1784
     40  OG1      -32.7540    3.0910    2.3010 O.3   167  THR167     -0.2211
     41  CG2      -32.9110    2.3800    4.6060 C.3   167  THR167      0.0376
     42  N        -29.5980    4.1900    1.7340 N.am  168  TYR168     -0.1961
     43  CA       -28.7420    4.3220    0.5620 C.3   168  TYR168      0.1771
     44  C        -27.3780    4.8980    0.9180 C.2   168  TYR168      0.2620
     45  O        -26.6150    5.2740    0.0230 O.2   168  TYR168     -0.2715
     46  CB       -29.4310    5.1950   -0.4920 C.3   168  TYR168      0.0574
     47  CG       -30.6960    4.5750   -1.0450 C.ar  168  TYR168     -0.0198
     48  CD1      -30.6760    3.8490   -2.2340 C.ar  168  TYR168     -0.0009
     49  CD2      -31.9080    4.6980   -0.3730 C.ar  168  TYR168     -0.0009
     50  CE1      -31.8280    3.2750   -2.7410 C.ar  168  TYR168      0.0417
     51  CE2      -33.0660    4.1210   -0.8740 C.ar  168  TYR168      0.0417
     52  CZ       -33.0180    3.4110   -2.0590 C.ar  168  TYR168      0.1957
     53  OH       -34.1600    2.8320   -2.5640 O.3   168  TYR168     -0.2866
     54  N        -27.0700    5.0090    2.2070 N.am  169  GLY169     -0.1954
     55  CA       -25.7400    5.3520    2.6590 C.3   169  GLY169      0.1869
     56  C        -25.5320    6.8120    2.9820 C.2   169  GLY169      0.2309
     57  O        -24.4130    7.1930    3.3430 O.2   169  GLY169     -0.2863
     58  N        -32.1880   12.7730    3.7280 N.3   178  TYR178     -0.1241
     59  CA       -33.6240   13.0210    3.7490 C.3   178  TYR178      0.1605
     60  C        -34.3620   11.8300    4.3420 C.2   178  TYR178      0.2264
     61  O        -33.9050   10.6860    4.2560 O.2   178  TYR178     -0.2867
     62  CB       -34.1550   13.3200    2.3380 C.3   178  TYR178      0.0534
     63  CG       -33.8570   12.2190    1.3400 C.ar  178  TYR178     -0.0201
     64  CD1      -34.6540   11.0830    1.2630 C.ar  178  TYR178     -0.0009
     65  CD2      -32.7670   12.3130    0.4830 C.ar  178  TYR178     -0.0009
     66  CE1      -34.3680   10.0670    0.3550 C.ar  178  TYR178      0.0417
     67  CE2      -32.4760   11.3090   -0.4230 C.ar  178  TYR178      0.0417
     68  CZ       -33.2790   10.1900   -0.4830 C.ar  178  TYR178      0.1957
     69  OH       -32.9900    9.1930   -1.3860 O.3   178  TYR178     -0.2866
     70  N        -33.4950   -0.4540   -7.8370 N.3   191  SER191     -0.1202
     71  CA       -32.5700    0.5760   -7.3800 C.3   191  SER191      0.2020
     72  C        -33.2750    1.7020   -6.6430 C.2   191  SER191      0.2619
     73  O        -32.5960    2.5010   -5.9890 O.2   191  SER191     -0.2717
     74  CB       -31.7710    1.1340   -8.5560 C.3   191  SER191      0.2103
     75  OG       -32.5970    1.8160   -9.4860 O.3   191  SER191     -0.2182
     76  N        -34.6060    1.7730   -6.7100 N.am  192  GLY192     -0.1942
     77  CA       -35.3570    2.7230   -5.9080 C.3   192  GLY192      0.2014
     78  C        -36.1150    3.8000   -6.6600 C.2   192  GLY192      0.2638
     79  O        -36.5860    4.7590   -6.0320 O.2   192  GLY192     -0.2714
     80  N        -36.2790    3.6650   -7.9760 N.am  193  VAL193     -0.1977
     81  CA       -37.0710    4.6280   -8.7350 C.3   193  VAL193      0.1596
     82  C        -38.5510    4.2950   -8.5810 C.2   193  VAL193      0.2287
     83  O        -38.9620    3.1410   -8.7470 O.2   193  VAL193     -0.2864
     84  CB       -36.6480    4.6410  -10.2110 C.3   193  VAL193      0.0276
     85  CG1      -37.4950    5.6240  -11.0090 C.3   193  VAL193      0.0022
     86  CG2      -35.1720    5.0040  -10.3230 C.3   193  VAL193      0.0022
     87  N        -44.4810    8.6950   -8.0040 N.3   196  HIS196     -0.1241
     88  CA       -45.1780    8.9510   -6.7460 C.3   196  HIS196      0.1621
     89  C        -45.6580   10.3880   -6.6680 C.2   196  HIS196      0.2264
     90  O        -45.2690   11.2520   -7.4570 O.2   196  HIS196     -0.2867
     91  CB       -44.3040    8.6280   -5.5240 C.3   196  HIS196      0.0745
     92  CG       -43.0960    9.4990   -5.3900 C.ar  196  HIS196      0.0817
     93  ND1      -43.1530   10.7790   -4.8800 N.ar  196  HIS196     -0.2268
     94  CD2      -41.7880    9.2530   -5.6430 C.ar  196  HIS196      0.1154
     95  CE1      -41.9380   11.2950   -4.8610 C.ar  196  HIS196      0.1986
     96  NE2      -41.0910   10.3910   -5.3170 N.ar  196  HIS196     -0.2212
     97  N        -36.1780   16.2640   -8.9450 N.3   211  SER211     -0.1202
     98  CA       -36.2040   15.1290   -8.0330 C.3   211  SER211      0.2020
     99  C        -34.8220   14.4900   -7.9120 C.2   211  SER211      0.2619
    100  O        -33.8590   14.8920   -8.5680 O.2   211  SER211     -0.2717
    101  CB       -37.2350   14.0940   -8.4920 C.3   211  SER211      0.2103
    102  OG       -36.6980   13.2470   -9.5030 O.3   211  SER211     -0.2182
    103  N        -34.7340   13.4520   -7.0760 N.am  212  HIS212     -0.1961
    104  CA       -33.5190   12.6570   -6.9400 C.3   212  HIS212      0.1787
    105  C        -33.4180   11.5450   -7.9760 C.2   212  HIS212      0.2621
    106  O        -32.4540   10.7740   -7.9350 O.2   212  HIS212     -0.2715
    107  CB       -33.4330   12.0180   -5.5430 C.3   212  HIS212      0.0785
    108  CG       -33.4060   13.0010   -4.4140 C.ar  212  HIS212      0.0821
    109  ND1      -32.2370   13.5370   -3.9150 N.ar  212  HIS212     -0.2267
    110  CD2      -34.4080   13.5200   -3.6650 C.ar  212  HIS212      0.1154
    111  CE1      -32.5220   14.3590   -2.9200 C.ar  212  HIS212      0.1986
    112  NE2      -33.8320   14.3670   -2.7480 N.ar  212  HIS212     -0.2212
    113  N        -34.3710   11.4610   -8.9060 N.am  213  GLY213     -0.1940
    114  CA       -34.4250   10.4040   -9.8990 C.3   213  GLY213      0.2014
    115  C        -35.8220    9.8300  -10.0460 C.2   213  GLY213      0.2639
    116  O        -36.1790    9.2880  -11.0980 O.2   213  GLY213     -0.2714
    117  N        -36.6210    9.9370   -8.9930 N.am  214  CYS214     -0.1967
    118  CA       -37.9980    9.4700   -9.0420 C.3   214  CYS214      0.1712
    119  C        -38.8400   10.3180   -9.9990 C.2   214  CYS214      0.2296
    120  O        -38.4950   11.4520  -10.3530 O.2   214  CYS214     -0.2864
    121  CB       -38.6000    9.4630   -7.6390 C.3   214  CYS214      0.0983
    122  SG       -37.9480    8.1290   -6.5970 S.3   214  CYS214     -0.0798
@<TRIPOS>BOND
     1    24    25    2
     2    24    23    1
     3    18    17    2
     4    23    26    1
     5    23    22    1
     6    17    22   am
     7    17    16    1
     8    21    19    1
     9    12    13    1
    10    12     9    1
    11    19    16    1
    12    19    20    1
    13    16    15    1
    14    13    14    1
    15    15    10   am
    16     9    10    1
    17     9     8    1
    18    10    11    2
    19    14     8    1
    20     8     3   am
    21   116   115    2
    22    85    84    1
    23     3     4    2
    24     3     2    1
    25     1     2    1
    26   120   119    2
    27    86    84    1
    28    84    81    1
    29   115   114    1
    30   115   117   am
    31   119   118    1
    32     2     5    1
    33   114   113    1
    34   102   101    1
    35    75    74    1
    36   118   117    1
    37   118   121    1
    38    97    98    1
    39   113   105   am
    40    83    82    2
    41    81    82    1
    42    81    80    1
    43   100    99    2
    44    74    71    1
    45     5     6    1
    46     5     7    1
    47   101    98    1
    48    98    99    1
    49    87    88    1
    50    80    78   am
    51   105   106    2
    52   105   104    1
    53    99   103   am
    54    70    71    1
    55   121   122    1
    56    90    89    2
    57    71    72    1
    58   103   104    1
    59   104   107    1
    60    88    89    1
    61    88    91    1
    62    76    72   am
    63    76    77    1
    64    78    79    2
    65    78    77    1
    66    72    73    2
    67    94    92   ar
    68    94    96   ar
    69   107   108    1
    70    91    92    1
    71    92    93   ar
    72    96    95   ar
    73    93    95   ar
    74   108   109   ar
    75   108   110   ar
    76   109   111   ar
    77   110   112   ar
    78   111   112   ar
    79    50    48   ar
    80    50    52   ar
    81    53    52    1
    82    34    33    1
    83    48    47   ar
    84    52    51   ar
    85    69    68    1
    86    33    32    1
    87    47    46    1
    88    47    49   ar
    89    51    49   ar
    90    32    31    1
    91    46    43    1
    92    68    67   ar
    93    68    66   ar
    94    67    65   ar
    95    45    44    2
    96    31    28    1
    97    66    64   ar
    98    65    63   ar
    99    43    44    1
   100    43    42    1
   101    44    54   am
   102    64    63   ar
   103    63    62    1
   104    28    27    1
   105    28    29    1
   106    42    37   am
   107    38    37    2
   108    54    55    1
   109    37    36    1
   110    40    39    1
   111    62    59    1
   112    29    30    2
   113    55    56    1
   114    56    57    2
   115    39    36    1
   116    39    41    1
   117    36    35    1
   118    58    59    1
   119    59    60    1
   120    61    60    2
