@<TRIPOS>MOLECULE
tmp/6iywF00.pdb
 135 133 0 0 0
SMALL
GASTEIGER

@<TRIPOS>ATOM
      1  N        168.5450   66.5680   92.5000 N.3   144  THR144     -0.1204
      2  CA       169.7730   66.1910   91.7960 C.3   144  THR144      0.1979
      3  C        170.0370   67.2370   90.7190 C.2   144  THR144      0.2460
      4  O        169.9590   66.9470   89.5170 O.2   144  THR144     -0.2732
      5  CB       169.6560   64.8010   91.1710 C.3   144  THR144      0.1783
      6  OG1      168.5630   64.7950   90.2390 O.3   144  THR144     -0.2211
      7  CG2      169.3980   63.7440   92.2400 C.3   144  THR144      0.0376
      8  N        170.3400   68.4670   91.1190 N.am  145  PRO145     -0.2717
      9  CA       170.3510   69.5760   90.1650 C.3   145  PRO145      0.1536
     10  C        171.6260   69.6340   89.3360 C.2   145  PRO145      0.2599
     11  O        172.6560   69.0370   89.6580 O.2   145  PRO145     -0.2715
     12  CB       170.2210   70.8080   91.0670 C.3   145  PRO145      0.0310
     13  CG       170.8780   70.3960   92.3150 C.3   145  PRO145      0.0237
     14  CD       170.5500   68.9410   92.4980 C.3   145  PRO145      0.0939
     15  N        171.5210   70.3530   88.2250 N.am  146  THR146     -0.1937
     16  CA       172.6760   70.6450   87.3940 C.3   146  THR146      0.2028
     17  C        173.4440   71.8220   87.9890 C.2   146  THR146      0.2642
     18  O        172.8620   72.8870   88.2090 O.2   146  THR146     -0.2714
     19  CB       172.2130   70.9860   85.9800 C.3   146  THR146      0.1808
     20  OG1      171.3940   69.9280   85.4640 O.3   146  THR146     -0.2208
     21  CG2      173.4080   71.1920   85.0750 C.3   146  THR146      0.0379
     22  N        174.7550   71.6540   88.2050 N.am  147  ALA147     -0.1977
     23  CA       175.5560   72.7520   88.7500 C.3   147  ALA147      0.1597
     24  C        175.6860   73.8940   87.7480 C.2   147  ALA147      0.2287
     25  O        175.7950   73.6840   86.5390 O.2   147  ALA147     -0.2864
     26  CB       176.9570   72.2730   89.1370 C.3   147  ALA147      0.0319
     27  N        174.0530   55.0180   80.3830 N.3   162  MET162     -0.1230
     28  CA       174.1490   55.7240   81.6570 C.3   162  MET162      0.1702
     29  C        173.6270   54.8190   82.7670 C.2   162  MET162      0.2592
     30  O        172.4580   54.4230   82.7480 O.2   162  MET162     -0.2718
     31  CB       173.3600   57.0300   81.6150 C.3   162  MET162      0.0401
     32  CG       173.6130   57.8350   80.3710 C.3   162  MET162      0.0596
     33  SD       175.3190   58.3650   80.3060 S.3   162  MET162     -0.1393
     34  CE       175.1480   59.7450   79.1670 C.3   162  MET162      0.0692
     35  N        174.4830   54.4960   83.7320 N.am  163  ASP163     -0.1974
     36  CA       174.1770   53.5050   84.7660 C.3   163  ASP163      0.1709
     37  C        174.4570   54.1050   86.1420 C.2   163  ASP163      0.2293
     38  O        175.5880   54.5180   86.4250 O.2   163  ASP163     -0.2864
     39  CB       175.0070   52.2320   84.5050 C.3   163  ASP163      0.1436
     40  CG       174.6900   51.0850   85.4500 C.2   163  ASP163      0.3671
     41  OD1      174.5070   49.9430   84.9560 O.co2 163  ASP163     -0.2456
     42  OD2      174.6670   51.2970   86.6820 O.co2 163  ASP163     -0.2456
     43  N        177.5700   53.5260   88.8110 N.3   166  THR166     -0.1203
     44  CA       178.8360   54.2520   88.8720 C.3   166  THR166      0.1994
     45  C        178.8420   55.2890   89.9830 C.2   166  THR166      0.2617
     46  O        179.9220   55.6820   90.4430 O.2   166  THR166     -0.2717
     47  CB       179.1490   54.9430   87.5300 C.3   166  THR166      0.1784
     48  OG1      180.5160   55.3890   87.5270 O.3   166  THR166     -0.2211
     49  CG2      178.2840   56.1580   87.2960 C.3   166  THR166      0.0376
     50  N        177.6670   55.7030   90.4540 N.am  167  TYR167     -0.1975
     51  CA       177.5320   56.6060   91.5860 C.3   167  TYR167      0.1639
     52  C        177.2410   55.8630   92.8810 C.2   167  TYR167      0.2290
     53  O        176.9260   56.4960   93.8950 O.2   167  TYR167     -0.2864
     54  CB       176.4290   57.6220   91.3050 C.3   167  TYR167      0.0560
     55  CG       176.7260   58.4570   90.0840 C.ar  167  TYR167     -0.0198
     56  CD1      176.0190   58.2670   88.9040 C.ar  167  TYR167     -0.0009
     57  CD2      177.7450   59.4040   90.0970 C.ar  167  TYR167     -0.0009
     58  CE1      176.2920   59.0150   87.7750 C.ar  167  TYR167      0.0417
     59  CE2      178.0230   60.1520   88.9790 C.ar  167  TYR167      0.0417
     60  CZ       177.3140   59.9430   87.8180 C.ar  167  TYR167      0.1957
     61  OH       177.5880   60.6960   86.6920 O.3   167  TYR167     -0.2866
     62  N        169.0640   53.6500   87.8550 N.3   177  TYR177     -0.1241
     63  CA       168.7000   53.7960   86.4570 C.3   177  TYR177      0.1605
     64  C        169.7780   53.1380   85.6130 C.2   177  TYR177      0.2264
     65  O        170.9590   53.1260   85.9780 O.2   177  TYR177     -0.2867
     66  CB       168.5160   55.2680   86.0560 C.3   177  TYR177      0.0534
     67  CG       169.7280   56.1580   86.2820 C.ar  177  TYR177     -0.0201
     68  CD1      170.7780   56.1730   85.3730 C.ar  177  TYR177     -0.0009
     69  CD2      169.8060   56.9930   87.3880 C.ar  177  TYR177     -0.0009
     70  CE1      171.8870   56.9860   85.5660 C.ar  177  TYR177      0.0417
     71  CE2      170.9050   57.8200   87.5900 C.ar  177  TYR177      0.0417
     72  CZ       171.9430   57.8110   86.6710 C.ar  177  TYR177      0.1957
     73  OH       173.0570   58.6160   86.8430 O.3   177  TYR177     -0.2866
     74  N        182.5710   64.5160   85.8920 N.3   190  SER190     -0.1202
     75  CA       181.6550   63.9350   86.8610 C.3   190  SER190      0.2020
     76  C        180.4730   63.2720   86.1790 C.2   190  SER190      0.2619
     77  O        179.8630   62.3660   86.7610 O.2   190  SER190     -0.2717
     78  CB       181.1870   65.0110   87.8380 C.3   190  SER190      0.2103
     79  OG       180.4710   66.0130   87.1540 O.3   190  SER190     -0.2182
     80  N        180.1690   63.6710   84.9420 N.am  191  GLY191     -0.1942
     81  CA       179.2100   62.9360   84.1470 C.3   191  GLY191      0.2014
     82  C        178.0670   63.7150   83.5340 C.2   191  GLY191      0.2639
     83  O        177.1130   63.1080   83.0390 O.2   191  GLY191     -0.2714
     84  N        178.1240   65.0440   83.5420 N.am  192  VAL192     -0.1963
     85  CA       177.0870   65.8190   82.8610 C.3   192  VAL192      0.1727
     86  C        177.2850   65.6930   81.3570 C.2   192  VAL192      0.2616
     87  O        178.3900   65.8930   80.8370 O.2   192  VAL192     -0.2715
     88  CB       177.1120   67.3000   83.2850 C.3   192  VAL192      0.0290
     89  CG1      176.0340   68.0940   82.5360 C.3   192  VAL192      0.0023
     90  CG2      176.9190   67.4430   84.7860 C.3   192  VAL192      0.0023
     91  N        176.2090   65.3560   80.6540 N.am  193  PHE193     -0.1974
     92  CA       176.1620   65.2870   79.2000 C.3   193  PHE193      0.1639
     93  C        174.9990   66.1180   78.6810 C.2   193  PHE193      0.2290
     94  O        173.9640   66.2460   79.3420 O.2   193  PHE193     -0.2864
     95  CB       175.9110   63.8670   78.6910 C.3   193  PHE193      0.0560
     96  CG       177.0590   62.9320   78.8550 C.ar  193  PHE193     -0.0200
     97  CD1      177.7900   62.5560   77.7520 C.ar  193  PHE193     -0.0042
     98  CD2      177.3430   62.3490   80.0880 C.ar  193  PHE193     -0.0042
     99  CE1      178.8520   61.6360   77.8570 C.ar  193  PHE193     -0.0003
    100  CE2      178.3890   61.4180   80.2030 C.ar  193  PHE193     -0.0003
    101  CZ       179.1400   61.0700   79.0900 C.ar  193  PHE193     -0.0000
    102  N        172.4190   65.3610   75.7850 N.3   195  HIS195     -0.1241
    103  CA       172.1150   64.1340   75.0520 C.3   195  HIS195      0.1621
    104  C        170.6440   64.0480   74.6860 C.2   195  HIS195      0.2264
    105  O        169.8080   64.8170   75.1630 O.2   195  HIS195     -0.2867
    106  CB       172.5030   62.8840   75.8510 C.3   195  HIS195      0.0745
    107  CG       171.6770   62.6620   77.0760 C.ar  195  HIS195      0.0817
    108  ND1      170.4190   62.0890   77.0380 N.ar  195  HIS195     -0.2268
    109  CD2      171.9170   62.9550   78.3750 C.ar  195  HIS195      0.1154
    110  CE1      169.9310   62.0290   78.2630 C.ar  195  HIS195      0.1986
    111  NE2      170.8210   62.5420   79.0930 N.ar  195  HIS195     -0.2212
    112  N        168.7110   63.6220   86.0610 N.3   211  HIS211     -0.1226
    113  CA       169.6520   63.3870   87.1440 C.3   211  HIS211      0.1752
    114  C        170.8000   64.3890   87.1540 C.2   211  HIS211      0.2597
    115  O        171.7230   64.2490   87.9630 O.2   211  HIS211     -0.2718
    116  CB       170.2000   61.9570   87.0500 C.3   211  HIS211      0.0759
    117  CG       169.1260   60.9110   87.0690 C.ar  211  HIS211      0.0818
    118  ND1      168.5610   60.4420   88.2340 N.ar  211  HIS211     -0.2268
    119  CD2      168.4930   60.2700   86.0580 C.ar  211  HIS211      0.1154
    120  CE1      167.6320   59.5500   87.9430 C.ar  211  HIS211      0.1986
    121  NE2      167.5680   59.4280   86.6290 N.ar  211  HIS211     -0.2212
    122  N        170.7550   65.4050   86.2910 N.am  212  GLY212     -0.1942
    123  CA       171.8310   66.3730   86.1900 C.3   212  GLY212      0.2014
    124  C        172.1900   66.6800   84.7530 C.2   212  GLY212      0.2639
    125  O        172.7030   67.7600   84.4380 O.2   212  GLY212     -0.2714
    126  N        171.9390   65.7180   83.8690 N.am  213  CYS213     -0.1967
    127  CA       172.2250   65.9050   82.4590 C.3   213  CYS213      0.1712
    128  C        171.3030   66.9370   81.8440 C.2   213  CYS213      0.2296
    129  O        170.2430   67.2690   82.3820 O.2   213  CYS213     -0.2864
    130  CB       172.0870   64.5960   81.6970 C.3   213  CYS213      0.0983
    131  SG       173.4850   63.5350   81.9450 S.3   213  CYS213     -0.0798
    132  N        174.8600   74.1340   92.8270 N.3   242  GLY242     -0.1225
    133  CA       175.9930   74.9610   93.1680 C.3   242  GLY242      0.1811
    134  C        176.7410   75.3920   91.9290 C.2   242  GLY242      0.2280
    135  O        176.1340   75.7940   90.9280 O.2   242  GLY242     -0.2866
@<TRIPOS>BOND
     1   104   103    1
     2   104   105    2
     3   103   102    1
     4   103   106    1
     5   106   107    1
     6   108   107   ar
     7   108   110   ar
     8   107   109   ar
     9    97    99   ar
    10    97    96   ar
    11    99   101   ar
    12   110   111   ar
    13   109   111   ar
    14    93    92    1
    15    93    94    2
    16    95    96    1
    17    95    92    1
    18    96    98   ar
    19   101   100   ar
    20    34    33    1
    21    92    91    1
    22    98   100   ar
    23    33    32    1
    24    32    31    1
    25    27    28    1
    26    91    86   am
    27    87    86    2
    28    86    85    1
    29    31    28    1
    30    28    29    1
    31   130   131    1
    32   130   127    1
    33   128   129    2
    34   128   127    1
    35   127   126    1
    36    89    88    1
    37    30    29    2
    38    29    35   am
    39    85    88    1
    40    85    84    1
    41    83    82    2
    42    88    90    1
    43    82    84   am
    44    82    81    1
    45    35    36    1
    46   126   124   am
    47    81    80    1
    48   125   124    2
    49    39    36    1
    50    39    40    1
    51   124   123    1
    52    36    37    1
    53    80    76   am
    54    41    40   ar
    55    21    19    1
    56    68    70   ar
    57    68    67   ar
    58    40    42   ar
    59    20    19    1
    60    70    72   ar
    61    64    65    2
    62    64    63    1
    63    74    75    1
    64    19    16    1
    65    66    67    1
    66    66    63    1
    67   119   121   ar
    68   119   117   ar
    69   112   113    1
    70    37    38    2
    71    76    77    2
    72    76    75    1
    73   123   122    1
    74    67    69   ar
    75   122   114   am
    76    63    62    1
    77    25    24    2
    78   121   120   ar
    79    72    73    1
    80    72    71   ar
    81    61    60    1
    82    75    78    1
    83   116   117    1
    84   116   113    1
    85   117   118   ar
    86   113   114    1
    87    79    78    1
    88   114   115    2
    89    49    47    1
    90    69    71   ar
    91    16    17    1
    92    16    15    1
    93    48    47    1
    94    47    44    1
    95    24    23    1
    96    58    60   ar
    97    58    56   ar
    98    60    59   ar
    99   120   118   ar
   100    17    22   am
   101    17    18    2
   102    22    23    1
   103    15    10   am
   104    23    26    1
   105    43    44    1
   106    44    45    1
   107    56    55   ar
   108    59    57   ar
   109    10    11    2
   110    10     9    1
   111     4     3    2
   112    45    46    2
   113    45    50   am
   114    55    57   ar
   115    55    54    1
   116     9    12    1
   117     9     8    1
   118     6     5    1
   119    50    51    1
   120     3     8   am
   121     3     2    1
   122   135   134    2
   123    12    13    1
   124     8    14    1
   125     5     2    1
   126     5     7    1
   127    54    51    1
   128    51    52    1
   129     2     1    1
   130   134   133    1
   131    13    14    1
   132   132   133    1
   133    52    53    2
