@<TRIPOS>MOLECULE
tmp/6iywC00.pdb
 119 115 0 0 0
SMALL
GASTEIGER

@<TRIPOS>ATOM
      1  N        131.6850   98.6250   46.3790 N.3   145  THR145     -0.1204
      2  CA       133.0020   99.0080   46.8990 C.3   145  THR145      0.1979
      3  C        133.3740   98.0380   48.0110 C.2   145  THR145      0.2460
      4  O        133.4190   98.4020   49.1910 O.2   145  THR145     -0.2732
      5  CB       133.0030  100.4540   47.4030 C.3   145  THR145      0.1783
      6  OG1      132.0250  100.6020   48.4400 O.3   145  THR145     -0.2211
      7  CG2      132.7050  101.4280   46.2700 C.3   145  THR145      0.0376
      8  N        133.6350   96.7830   47.6680 N.am  146  PRO146     -0.2717
      9  CA       133.7320   95.7410   48.6900 C.3   146  PRO146      0.1535
     10  C        135.0600   95.7580   49.4350 C.2   146  PRO146      0.2599
     11  O        136.0550   96.3390   48.9980 O.2   146  PRO146     -0.2715
     12  CB       133.5860   94.4490   47.8780 C.3   146  PRO146      0.0310
     13  CG       134.1610   94.8000   46.5540 C.3   146  PRO146      0.0237
     14  CD       133.7740   96.2360   46.3070 C.3   146  PRO146      0.0939
     15  N        135.0400   95.1030   50.5900 N.am  147  THR147     -0.1951
     16  CA       136.2430   94.8500   51.3670 C.3   147  THR147      0.1897
     17  C        136.9830   93.6710   50.7620 C.2   147  THR147      0.2313
     18  O        136.3880   92.6190   50.5190 O.2   147  THR147     -0.2863
     19  CB       135.8890   94.5510   52.8220 C.3   147  THR147      0.1794
     20  OG1      135.1390   95.6440   53.3590 O.3   147  THR147     -0.2208
     21  CG2      137.1450   94.3340   53.6660 C.3   147  THR147      0.0378
     22  N        138.3800  111.2160   57.4550 N.3   163  MET163     -0.1245
     23  CA       138.2960  110.5180   56.1790 C.3   163  MET163      0.1570
     24  C        137.8040  111.5190   55.1450 C.2   163  MET163      0.2261
     25  O        136.6820  112.0210   55.2540 O.2   163  MET163     -0.2867
     26  CB       137.3440  109.3290   56.2540 C.3   163  MET163      0.0387
     27  CG       137.5230  108.4710   57.4700 C.3   163  MET163      0.0595
     28  SD       139.1330  107.6980   57.4680 S.3   163  MET163     -0.1393
     29  CE       138.7990  106.3510   58.6030 C.3   163  MET163      0.0692
     30  N        137.3760  112.2030   51.0250 N.3   165  SER165     -0.1217
     31  CA       137.4050  111.5440   49.7250 C.3   165  SER165      0.1889
     32  C        138.3170  112.2480   48.7290 C.2   165  SER165      0.2288
     33  O        138.7120  111.6320   47.7340 O.2   165  SER165     -0.2866
     34  CB       135.9940  111.4480   49.1400 C.3   165  SER165      0.2089
     35  OG       135.4330  112.7360   48.9360 O.3   165  SER165     -0.2183
     36  N        141.4690  110.7080   47.6340 N.3   168  TYR168     -0.1241
     37  CA       141.2890  109.6850   46.6130 C.3   168  TYR168      0.1605
     38  C        140.8750  110.2830   45.2710 C.2   168  TYR168      0.2264
     39  O        140.4900  109.5440   44.3600 O.2   168  TYR168     -0.2867
     40  CB       140.2810  108.6390   47.0850 C.3   168  TYR168      0.0534
     41  CG       140.7490  107.9060   48.3240 C.ar  168  TYR168     -0.0201
     42  CD1      140.5670  108.4520   49.5880 C.ar  168  TYR168     -0.0009
     43  CD2      141.3950  106.6770   48.2270 C.ar  168  TYR168     -0.0009
     44  CE1      141.0020  107.7940   50.7220 C.ar  168  TYR168      0.0417
     45  CE2      141.8310  106.0090   49.3570 C.ar  168  TYR168      0.0417
     46  CZ       141.6320  106.5740   50.6030 C.ar  168  TYR168      0.1957
     47  OH       142.0650  105.9230   51.7370 O.3   168  TYR168     -0.2866
     48  N        138.2390  112.2860   44.6980 N.3   170  VAL170     -0.1245
     49  CA       136.7990  112.4900   44.5920 C.3   170  VAL170      0.1561
     50  C        136.4460  113.7280   45.4140 C.2   170  VAL170      0.2260
     51  O        136.5570  113.6990   46.6480 O.2   170  VAL170     -0.2867
     52  CB       136.0110  111.2620   45.0670 C.3   170  VAL170      0.0252
     53  CG1      134.5150  111.5540   45.0490 C.3   170  VAL170      0.0019
     54  CG2      136.3330  110.0560   44.1950 C.3   170  VAL170      0.0019
     55  N        132.8550  112.7410   50.3590 N.3   178  TYR178     -0.1241
     56  CA       132.6030  112.6230   51.7920 C.3   178  TYR178      0.1605
     57  C        133.7310  113.2920   52.5650 C.2   178  TYR178      0.2264
     58  O        134.8670  113.3730   52.0870 O.2   178  TYR178     -0.2867
     59  CB       132.4510  111.1560   52.2390 C.3   178  TYR178      0.0534
     60  CG       133.6260  110.2510   51.9100 C.ar  178  TYR178     -0.0201
     61  CD1      133.5560  109.3420   50.8600 C.ar  178  TYR178     -0.0009
     62  CD2      134.7870  110.2750   52.6800 C.ar  178  TYR178     -0.0009
     63  CE1      134.6230  108.5060   50.5640 C.ar  178  TYR178      0.0417
     64  CE2      135.8600  109.4510   52.3880 C.ar  178  TYR178      0.0417
     65  CZ       135.7720  108.5680   51.3320 C.ar  178  TYR178      0.1957
     66  OH       136.8410  107.7490   51.0530 O.3   178  TYR178     -0.2866
     67  N        145.9900  101.1730   51.7400 N.3   191  SER191     -0.1202
     68  CA       144.9900  101.6470   50.7920 C.3   191  SER191      0.2020
     69  C        143.8580  102.3860   51.4850 C.2   191  SER191      0.2619
     70  O        143.1400  103.1490   50.8290 O.2   191  SER191     -0.2717
     71  CB       144.4070  100.4800   49.9930 C.3   191  SER191      0.2103
     72  OG       143.6940   99.5860   50.8300 O.3   191  SER191     -0.2182
     73  N        143.6650  102.1560   52.7810 N.am  192  GLY192     -0.1942
     74  CA       142.7430  102.9580   53.5580 C.3   192  GLY192      0.2014
     75  C        141.6870  102.1990   54.3370 C.2   192  GLY192      0.2638
     76  O        140.7480  102.8110   54.8560 O.2   192  GLY192     -0.2714
     77  N        141.8020  100.8730   54.4270 N.am  193  VAL193     -0.1977
     78  CA       140.8690  100.1130   55.2430 C.3   193  VAL193      0.1596
     79  C        141.2000  100.3120   56.7150 C.2   193  VAL193      0.2287
     80  O        142.3550  100.1670   57.1400 O.2   193  VAL193     -0.2864
     81  CB       140.8930   98.6240   54.8630 C.3   193  VAL193      0.0276
     82  CG1      139.9010   97.8610   55.7240 C.3   193  VAL193      0.0022
     83  CG2      140.5770   98.4450   53.3840 C.3   193  VAL193      0.0022
     84  N        136.8440  100.7760   62.6040 N.3   196  HIS196     -0.1241
     85  CA       136.6140  102.0350   63.2950 C.3   196  HIS196      0.1621
     86  C        135.1800  102.1290   63.7760 C.2   196  HIS196      0.2264
     87  O        134.3140  101.3500   63.3770 O.2   196  HIS196     -0.2867
     88  CB       136.9430  103.2250   62.3880 C.3   196  HIS196      0.0745
     89  CG       136.0290  103.3620   61.2080 C.ar  196  HIS196      0.0817
     90  ND1      134.7760  103.9330   61.2960 N.ar  196  HIS196     -0.2268
     91  CD2      136.1900  103.0090   59.9110 C.ar  196  HIS196      0.1154
     92  CE1      134.2060  103.9230   60.1050 C.ar  196  HIS196      0.1986
     93  NE2      135.0460  103.3760   59.2450 N.ar  196  HIS196     -0.2212
     94  N        129.5950   99.9810   53.8980 N.3   211  SER211     -0.1202
     95  CA       130.7240  100.8960   53.9730 C.3   211  SER211      0.2020
     96  C        131.3910  101.0700   52.6090 C.2   211  SER211      0.2619
     97  O        131.0130  100.4520   51.6110 O.2   211  SER211     -0.2717
     98  CB       131.7350  100.3900   54.9980 C.3   211  SER211      0.2103
     99  OG       132.5710   99.4160   54.3980 O.3   211  SER211     -0.2182
    100  N        132.4120  101.9330   52.5710 N.am  212  HIS212     -0.1961
    101  CA       133.2540  102.1130   51.3960 C.3   212  HIS212      0.1787
    102  C        134.3860  101.0890   51.3190 C.2   212  HIS212      0.2621
    103  O        135.2330  101.1910   50.4280 O.2   212  HIS212     -0.2715
    104  CB       133.8430  103.5300   51.3750 C.3   212  HIS212      0.0785
    105  CG       132.8150  104.6200   51.3380 C.ar  212  HIS212      0.0821
    106  ND1      132.2140  105.0380   50.1700 N.ar  212  HIS212     -0.2267
    107  CD2      132.2960  105.3900   52.3240 C.ar  212  HIS212      0.1154
    108  CE1      131.3610  106.0110   50.4390 C.ar  212  HIS212      0.1986
    109  NE2      131.3920  106.2440   51.7390 N.ar  212  HIS212     -0.2212
    110  N        134.4050  100.1060   52.2150 N.am  213  GLY213     -0.1940
    111  CA       135.4800   99.1360   52.2750 C.3   213  GLY213      0.2014
    112  C        135.9260   98.8940   53.7000 C.2   213  GLY213      0.2639
    113  O        136.4710   97.8360   54.0220 O.2   213  GLY213     -0.2714
    114  N        135.7100   99.8840   54.5610 N.am  214  CYS214     -0.1967
    115  CA       136.1090   99.8020   55.9550 C.3   214  CYS214      0.1712
    116  C        135.2750   98.7910   56.7340 C.2   214  CYS214      0.2296
    117  O        134.1760   98.3920   56.3310 O.2   214  CYS214     -0.2864
    118  CB       135.9940  101.1690   56.6170 C.3   214  CYS214      0.0983
    119  SG       137.3250  102.2840   56.1410 S.3   214  CYS214     -0.0798
@<TRIPOS>BOND
     1    54    52    1
     2    39    38    2
     3    49    48    1
     4    49    52    1
     5    49    50    1
     6    53    52    1
     7    38    37    1
     8    50    51    2
     9     7     5    1
    10    14    13    1
    11    14     8    1
    12     1     2    1
    13    13    12    1
    14    37    40    1
    15    37    36    1
    16     2     5    1
    17     2     3    1
    18    40    41    1
    19     5     6    1
    20     8     3   am
    21     8     9    1
    22    33    32    2
    23    12     9    1
    24     3     4    2
    25    43    41   ar
    26    43    45   ar
    27    41    42   ar
    28     9    10    1
    29    32    31    1
    30    35    34    1
    31    11    10    2
    32    34    31    1
    33    45    46   ar
    34    10    15   am
    35    42    44   ar
    36    31    30    1
    37    71    68    1
    38    71    72    1
    39   106   108   ar
    40   106   105   ar
    41    55    56    1
    42   103   102    2
    43   108   109   ar
    44    18    17    2
    45    63    61   ar
    46    63    65   ar
    47    15    16    1
    48    46    44   ar
    49    46    47    1
    50    17    16    1
    51    68    69    1
    52    68    67    1
    53    70    69    2
    54    61    60   ar
    55    66    65    1
    56   102   101    1
    57   102   110   am
    58    65    64   ar
    59   105   104    1
    60   105   107   ar
    61    16    19    1
    62   104   101    1
    63   101   100    1
    64    69    73   am
    65    97    96    2
    66   109   107   ar
    67    56    59    1
    68    56    57    1
    69    60    59    1
    70    60    62   ar
    71    58    57    2
    72   110   111    1
    73   111   112    1
    74    64    62   ar
    75   100    96   am
    76    96    95    1
    77    73    74    1
    78    19    20    1
    79    19    21    1
    80    83    81    1
    81    74    75    1
    82   112   113    2
    83   112   114   am
    84    94    95    1
    85    95    98    1
    86    75    77   am
    87    75    76    2
    88    99    98    1
    89    77    78    1
    90   114   115    1
    91    81    78    1
    92    81    82    1
    93    24    25    2
    94    24    23    1
    95    78    79    1
    96   115   118    1
    97   115   116    1
    98   119   118    1
    99    23    26    1
   100    23    22    1
   101    26    27    1
   102   117   116    2
   103    79    80    2
   104    28    27    1
   105    28    29    1
   106    93    91   ar
   107    93    92   ar
   108    91    89   ar
   109    92    90   ar
   110    89    90   ar
   111    89    88    1
   112    88    85    1
   113    84    85    1
   114    85    86    1
   115    87    86    2
