@<TRIPOS>MOLECULE
tmp/6j0oA00.pdb
 234 224 0 0 0
SMALL
GASTEIGER

@<TRIPOS>ATOM
      1  N        -16.9650    5.9250   -3.2930 N.3    73  PHE73      -0.1241
      2  CA       -18.3480    6.1200   -3.7470 C.3    73  PHE73       0.1605
      3  C        -18.4240    6.8480   -5.0930 C.2    73  PHE73       0.2264
      4  O        -19.3390    6.5980   -5.9040 O.2    73  PHE73      -0.2867
      5  CB       -19.1270    6.9090   -2.6710 C.3    73  PHE73       0.0534
      6  CG       -20.6260    7.0140   -2.9320 C.ar   73  PHE73      -0.0203
      7  CD1      -21.4410    5.8830   -2.8960 C.ar   73  PHE73      -0.0042
      8  CD2      -21.2400    8.2460   -3.0970 C.ar   73  PHE73      -0.0042
      9  CE1      -22.8270    5.9640   -3.0790 C.ar   73  PHE73      -0.0003
     10  CE2      -22.6240    8.3210   -3.2800 C.ar   73  PHE73      -0.0003
     11  CZ       -23.4130    7.1920   -3.2590 C.ar   73  PHE73      -0.0000
     12  N        -17.2160    0.9250   -9.3140 N.3    79  ARG79      -0.1245
     13  CA       -18.6510    0.8810   -9.1240 C.3    79  ARG79       0.1563
     14  C        -19.1470   -0.5640   -9.0680 C.2    79  ARG79       0.2260
     15  O        -19.8980   -0.9060   -8.1710 O.2    79  ARG79      -0.2867
     16  CB       -19.3420    1.7450  -10.1910 C.3    79  ARG79       0.0307
     17  CG       -20.7880    2.1020   -9.8890 C.3    79  ARG79       0.0489
     18  CD       -20.9360    3.1470   -8.8050 C.3    79  ARG79       0.2205
     19  NE       -21.5260    4.3200   -9.4160 N.pl3  79  ARG79      -0.0865
     20  CZ       -20.9580    5.4980   -9.4270 C.cat  79  ARG79       0.5346
     21  NH1      -21.5910    6.5010  -10.0140 N.pl3  79  ARG79       0.1354
     22  NH2      -19.7840    5.6690   -8.8210 N.pl3  79  ARG79       0.1354
     23  N        -19.1310   -2.9280   -5.8950 N.3    82  TRP82      -0.1227
     24  CA       -20.0330   -2.8190   -4.7550 C.3    82  TRP82       0.1737
     25  C        -21.5090   -2.6730   -5.1560 C.2    82  TRP82       0.2595
     26  O        -22.3770   -2.9890   -4.3520 O.2    82  TRP82      -0.2718
     27  CB       -19.5850   -1.7300   -3.7490 C.3    82  TRP82       0.0564
     28  CG       -19.5220   -0.3380   -4.3060 C.ar   82  TRP82       0.0003
     29  CD1      -18.4190    0.3020   -4.8130 C.ar   82  TRP82       0.0946
     30  CD2      -20.6080    0.6040   -4.4150 C.ar   82  TRP82       0.0152
     31  NE1      -18.7420    1.5750   -5.2170 N.ar   82  TRP82      -0.2442
     32  CE2      -20.0920    1.7700   -5.0280 C.ar   82  TRP82       0.0810
     33  CE3      -21.9710    0.5490   -4.1020 C.ar   82  TRP82       0.0012
     34  CZ2      -20.9010    2.8730   -5.3130 C.ar   82  TRP82       0.0191
     35  CZ3      -22.7780    1.6240   -4.4020 C.ar   82  TRP82       0.0001
     36  CH2      -22.2400    2.7780   -4.9790 C.ar   82  TRP82       0.0015
     37  N        -21.7960   -2.1030   -6.3260 N.am   83  GLU83      -0.1979
     38  CA       -23.1760   -1.9490   -6.7670 C.3    83  GLU83       0.1602
     39  C        -23.7760   -3.3070   -7.0760 C.2    83  GLU83       0.2287
     40  O        -23.0730   -4.1620   -7.6250 O.2    83  GLU83      -0.2864
     41  CB       -23.2320   -1.2630   -8.1340 C.3    83  GLU83       0.0415
     42  CG       -23.0380    0.2240   -8.0400 C.3    83  GLU83       0.1163
     43  CD       -24.3090    1.0410   -7.8590 C.2    83  GLU83       0.3649
     44  OE1      -24.3700    2.1620   -8.3950 O.co2  83  GLU83      -0.2457
     45  OE2      -25.2240    0.5570   -7.1940 O.co2  83  GLU83      -0.2457
     46  N        -27.5070   -3.2300   -8.0910 N.3    85  THR85      -0.1203
     47  CA       -28.7790   -3.0760   -8.7930 C.3    85  THR85       0.1994
     48  C        -28.6230   -2.4630  -10.1900 C.2    85  THR85       0.2617
     49  O        -29.6120   -2.2740  -10.8880 O.2    85  THR85      -0.2717
     50  CB       -29.7670   -2.2370   -7.9720 C.3    85  THR85       0.1784
     51  OG1      -29.3280   -0.8730   -7.9550 O.3    85  THR85      -0.2211
     52  CG2      -29.9390   -2.7480   -6.5550 C.3    85  THR85       0.0376
     53  N        -27.3980   -2.1170  -10.5920 N.am   86  ILE86      -0.1979
     54  CA       -27.1520   -1.4870  -11.8880 C.3    86  ILE86       0.1595
     55  C        -27.1570   -2.5410  -12.9970 C.2    86  ILE86       0.2287
     56  O        -26.5730   -3.6220  -12.8700 O.2    86  ILE86      -0.2864
     57  CB       -25.7900   -0.7440  -11.8460 C.3    86  ILE86       0.0276
     58  CG1      -25.7880    0.4320  -10.8720 C.3    86  ILE86       0.0022
     59  CG2      -25.3090   -0.3470  -13.2390 C.3    86  ILE86       0.0022
     60  CD1      -26.7330    1.5150  -11.2090 C.3    86  ILE86       0.0001
     61  N        -27.4950    5.7580  -16.1510 N.3   104  GLN104     -0.1245
     62  CA       -27.5070    4.3570  -15.7570 C.3   104  GLN104      0.1566
     63  C        -28.9320    3.7960  -15.7530 C.2   104  GLN104      0.2260
     64  O        -29.9010    4.5410  -15.6820 O.2   104  GLN104     -0.2867
     65  CB       -26.7930    4.1250  -14.4240 C.3   104  GLN104      0.0367
     66  CG       -27.4950    4.7510  -13.2270 C.3   104  GLN104      0.0905
     67  CD       -26.6690    4.7660  -11.9520 C.2   104  GLN104      0.2608
     68  OE1      -25.4570    4.9300  -11.9800 O.2   104  GLN104     -0.2717
     69  NE2      -27.3320    4.6270  -10.8060 N.am  104  GLN104     -0.0878
     70  N        -31.2800    0.5510  -13.9560 N.3   106  HIS106     -0.1226
     71  CA       -31.3630   -0.3410  -12.8090 C.3   106  HIS106      0.1752
     72  C        -32.1600   -1.6070  -13.1410 C.2   106  HIS106      0.2596
     73  O        -33.0370   -1.6190  -14.0040 O.2   106  HIS106     -0.2718
     74  CB       -32.0160    0.3740  -11.6170 C.3   106  HIS106      0.0759
     75  CG       -31.1230    1.4200  -11.0380 C.ar  106  HIS106      0.0818
     76  ND1      -30.2100    1.1340  -10.0440 N.ar  106  HIS106     -0.2268
     77  CD2      -30.9010    2.6990  -11.4050 C.ar  106  HIS106      0.1154
     78  CE1      -29.5410    2.2290   -9.7520 C.ar  106  HIS106      0.1986
     79  NE2      -29.9080    3.1830  -10.5870 N.ar  106  HIS106     -0.2212
     80  N        -31.8420   -2.6690  -12.4070 N.am  107  LYS107     -0.1966
     81  CA       -32.6330   -3.8960  -12.3840 C.3   107  LYS107      0.1728
     82  C        -34.0980   -3.6250  -12.0570 C.2   107  LYS107      0.2616
     83  O        -34.4390   -2.8050  -11.2040 O.2   107  LYS107     -0.2715
     84  CB       -31.9970   -4.8990  -11.4230 C.3   107  LYS107      0.0311
     85  CG       -30.6750   -5.4310  -11.9720 C.3   107  LYS107      0.0038
     86  CD       -29.9600   -6.3800  -11.0480 C.3   107  LYS107      0.0206
     87  CE       -28.4760   -6.4310  -11.3380 C.3   107  LYS107      0.1093
     88  NZ       -27.7910   -7.2660  -10.3300 N.3   107  LYS107     -0.1314
     89  N        -34.9730   -4.3190  -12.7930 N.am  108  ARG108     -0.1963
     90  CA       -36.3940   -4.0550  -12.6450 C.3   108  ARG108      0.1729
     91  C        -36.8760   -4.4280  -11.2270 C.2   108  ARG108      0.2616
     92  O        -36.4160   -5.4160  -10.6590 O.2   108  ARG108     -0.2715
     93  CB       -37.0940   -4.8180  -13.7740 C.3   108  ARG108      0.0348
     94  CG       -38.5920   -4.5950  -13.8130 C.3   108  ARG108      0.0492
     95  CD       -39.1380   -5.2000  -15.0970 C.3   108  ARG108      0.2205
     96  NE       -40.5730   -5.0200  -14.9910 N.pl3 108  ARG108     -0.0865
     97  CZ       -41.4190   -5.9210  -14.5090 C.cat 108  ARG108      0.5346
     98  NH1      -40.9830   -7.1100  -14.1190 N.pl3 108  ARG108      0.1354
     99  NH2      -42.7060   -5.6330  -14.4580 N.pl3 108  ARG108      0.1354
    100  N        -37.7450   -3.6060  -10.6230 N.am  109  VAL109     -0.1977
    101  CA       -38.4880   -3.9760   -9.4090 C.3   109  VAL109      0.1596
    102  C        -39.9370   -4.3480   -9.7980 C.2   109  VAL109      0.2287
    103  O        -40.7600   -3.4510   -9.9410 O.2   109  VAL109     -0.2864
    104  CB       -38.4370   -2.8250   -8.3810 C.3   109  VAL109      0.0276
    105  CG1      -39.2690   -3.0550   -7.1000 C.3   109  VAL109      0.0022
    106  CG2      -36.9820   -2.5170   -7.9880 C.3   109  VAL109      0.0022
    107  N        -36.2120    1.3630  -14.2520 N.3   115  ARG115     -0.1245
    108  CA       -35.8860    2.7820  -14.1370 C.3   115  ARG115      0.1563
    109  C        -34.4870    3.0490  -14.7060 C.2   115  ARG115      0.2260
    110  O        -33.5670    2.2410  -14.5240 O.2   115  ARG115     -0.2867
    111  CB       -35.8920    3.2430  -12.6630 C.3   115  ARG115      0.0307
    112  CG       -37.1960    3.8870  -12.1860 C.3   115  ARG115      0.0489
    113  CD       -38.4490    3.0620  -12.5300 C.3   115  ARG115      0.2205
    114  NE       -39.6190    3.8630  -12.1270 N.pl3 115  ARG115     -0.0865
    115  CZ       -40.8840    3.5070  -12.3110 C.cat 115  ARG115      0.5346
    116  NH1      -41.1610    2.3410  -12.8760 N.pl3 115  ARG115      0.1354
    117  NH2      -41.8580    4.3190  -11.9400 N.pl3 115  ARG115      0.1354
    118  N        -31.6820    6.7470  -15.0290 N.3   117  VAL117     -0.1245
    119  CA       -31.4280    7.9820  -14.3080 C.3   117  VAL117      0.1561
    120  C        -30.2320    8.6700  -14.9800 C.2   117  VAL117      0.2260
    121  O        -29.4190    8.0310  -15.6330 O.2   117  VAL117     -0.2867
    122  CB       -31.1400    7.6920  -12.8250 C.3   117  VAL117      0.0252
    123  CG1      -29.9080    6.8470  -12.6410 C.3   117  VAL117      0.0019
    124  CG2      -31.0290    8.9580  -11.9740 C.3   117  VAL117      0.0019
    125  N        -27.5950   11.7900  -14.0880 N.3   119  TYR119     -0.1241
    126  CA       -27.3010   12.6650  -12.9810 C.3   119  TYR119      0.1605
    127  C        -25.8670   13.1990  -13.0460 C.2   119  TYR119      0.2264
    128  O        -24.9720   12.5580  -13.5850 O.2   119  TYR119     -0.2867
    129  CB       -27.4690   11.9320  -11.6320 C.3   119  TYR119      0.0534
    130  CG       -26.6730   10.6530  -11.4320 C.ar  119  TYR119     -0.0201
    131  CD1      -27.0590    9.4330  -11.9850 C.ar  119  TYR119     -0.0009
    132  CD2      -25.5320   10.6540  -10.6400 C.ar  119  TYR119     -0.0009
    133  CE1      -26.3620    8.2510  -11.7370 C.ar  119  TYR119      0.0417
    134  CE2      -24.8160    9.4850  -10.4070 C.ar  119  TYR119      0.0417
    135  CZ       -25.2450    8.2780  -10.9300 C.ar  119  TYR119      0.1957
    136  OH       -24.4980    7.1490  -10.7530 O.3   119  TYR119     -0.2866
    137  N        -25.0380   13.3830   -5.8300 N.3   141  ASN141     -0.1240
    138  CA       -25.4880   12.8290   -7.1060 C.3   141  ASN141      0.1653
    139  C        -26.8790   13.4110   -7.3580 C.2   141  ASN141      0.2266
    140  O        -27.8150   13.0860   -6.6170 O.2   141  ASN141     -0.2867
    141  CB       -25.5500   11.3000   -7.1160 C.3   141  ASN141      0.1155
    142  CG       -24.1800   10.6310   -7.0300 C.2   141  ASN141      0.2627
    143  OD1      -23.1680   11.1890   -7.4630 O.2   141  ASN141     -0.2716
    144  ND2      -24.0970    9.4340   -6.4710 N.am  141  ASN141     -0.0877
    145  N        -36.2320    8.0550  -13.4780 N.3   158  ALA158     -0.1245
    146  CA       -36.2740    8.5120  -12.0900 C.3   158  ALA158      0.1562
    147  C        -35.5110    9.8180  -11.9920 C.2   158  ALA158      0.2260
    148  O        -34.6550   10.0880  -12.8400 O.2   158  ALA158     -0.2867
    149  CB       -35.6300    7.4890  -11.1920 C.3   158  ALA158      0.0290
    150  N        -33.1780   11.9090   -9.0200 N.3   160  ILE160     -0.1245
    151  CA       -32.5280   11.7040   -7.7180 C.3   160  ILE160      0.1561
    152  C        -31.8920   12.9720   -7.1680 C.2   160  ILE160      0.2260
    153  O        -31.4540   13.8760   -7.8880 O.2   160  ILE160     -0.2867
    154  CB       -31.5500   10.5180   -7.7510 C.3   160  ILE160      0.0252
    155  CG1      -30.2560   10.8210   -8.5510 C.3   160  ILE160      0.0019
    156  CG2      -32.2910    9.2730   -8.2750 C.3   160  ILE160      0.0019
    157  CD1      -29.1550    9.7440   -8.4280 C.3   160  ILE160      0.0001
    158  N        -29.0750   12.6330   -4.0830 N.3   162  VAL162     -0.1245
    159  CA       -28.4140   11.7700   -3.1030 C.3   162  VAL162      0.1561
    160  C        -27.1280   12.4670   -2.6320 C.2   162  VAL162      0.2260
    161  O        -26.4110   13.1300   -3.4080 O.2   162  VAL162     -0.2867
    162  CB       -28.0880   10.3880   -3.7250 C.3   162  VAL162      0.0252
    163  CG1      -27.1900    9.5140   -2.8400 C.3   162  VAL162      0.0019
    164  CG2      -29.3530    9.5970   -4.0920 C.3   162  VAL162      0.0019
    165  N        -25.9920    9.5960    4.9810 N.3   184  TYR184     -0.1241
    166  CA       -26.3790    9.3020    3.6130 C.3   184  TYR184      0.1605
    167  C        -27.8510    9.7070    3.4420 C.2   184  TYR184      0.2264
    168  O        -28.7120    9.3280    4.2540 O.2   184  TYR184     -0.2867
    169  CB       -26.2190    7.8070    3.3470 C.3   184  TYR184      0.0534
    170  CG       -26.7850    7.3400    2.0310 C.ar  184  TYR184     -0.0201
    171  CD1      -26.0570    7.4980    0.8670 C.ar  184  TYR184     -0.0009
    172  CD2      -28.0820    6.8240    1.9260 C.ar  184  TYR184     -0.0009
    173  CE1      -26.5810    7.0710   -0.3570 C.ar  184  TYR184      0.0417
    174  CE2      -28.6360    6.4600    0.7030 C.ar  184  TYR184      0.0417
    175  CZ       -27.8590    6.5360   -0.4420 C.ar  184  TYR184      0.1957
    176  OH       -28.3920    6.1580   -1.6530 O.3   184  TYR184     -0.2866
    177  N        -35.4840   10.1130   -3.9060 N.3   188  VAL188     -0.1245
    178  CA       -35.6660    9.4630   -5.1930 C.3   188  VAL188      0.1561
    179  C        -37.1130    9.6930   -5.6390 C.2   188  VAL188      0.2260
    180  O        -38.0730    9.3580   -4.9330 O.2   188  VAL188     -0.2867
    181  CB       -35.2610    7.9730   -5.1590 C.3   188  VAL188      0.0252
    182  CG1      -35.5930    7.2570   -6.4800 C.3   188  VAL188      0.0019
    183  CG2      -33.7740    7.7490   -4.8330 C.3   188  VAL188      0.0019
    184  N        -39.4490    8.1950   -8.3230 N.3   190  PRO190     -0.2116
    185  CA       -39.4540    7.0980   -9.2930 C.3   190  PRO190      0.1372
    186  C        -39.9880    7.4750  -10.6720 C.2   190  PRO190      0.2244
    187  O        -39.8650    6.6720  -11.5940 O.2   190  PRO190     -0.2868
    188  CB       -40.4920    6.1350   -8.7310 C.3   190  PRO190      0.0268
    189  CG       -40.5170    6.4160   -7.2420 C.3   190  PRO190      0.0207
    190  CD       -40.3120    7.9200   -7.1520 C.3   190  PRO190      0.0892
    191  N        -38.8710   -2.6690   -0.6640 N.3   202  VAL202     -0.1231
    192  CA       -37.5650   -2.6640   -1.2980 C.3   202  VAL202      0.1692
    193  C        -36.6360   -1.6200   -0.6670 C.2   202  VAL202      0.2591
    194  O        -35.4580   -1.9120   -0.4530 O.2   202  VAL202     -0.2718
    195  CB       -37.7240   -2.4610   -2.8110 C.3   202  VAL202      0.0266
    196  CG1      -36.4060   -2.2310   -3.5170 C.3   202  VAL202      0.0020
    197  CG2      -38.4510   -3.6660   -3.3930 C.3   202  VAL202      0.0020
    198  N        -37.1410   -0.4300   -0.3170 N.am  203  ALA203     -0.1980
    199  CA       -36.2560    0.5530    0.2880 C.3   203  ALA203      0.1597
    200  C        -35.7700   -0.0130    1.6230 C.2   203  ALA203      0.2287
    201  O        -34.6050    0.1360    1.9860 O.2   203  ALA203     -0.2864
    202  CB       -36.9370    1.9180    0.4220 C.3   203  ALA203      0.0319
    203  N        -33.2010   -2.8400    0.8850 N.3   206  GLU206     -0.1231
    204  CA       -32.0370   -2.6260    0.0370 C.3   206  GLU206      0.1699
    205  C        -31.1280   -1.5210    0.5830 C.2   206  GLU206      0.2592
    206  O        -29.9050   -1.5660    0.3750 O.2   206  GLU206     -0.2718
    207  CB       -32.4100   -2.2370   -1.3840 C.3   206  GLU206      0.0402
    208  CG       -33.0070   -3.3990   -2.1660 C.3   206  GLU206      0.1161
    209  CD       -32.0390   -4.5380   -2.4280 C.2   206  GLU206      0.3649
    210  OE1      -30.8790   -4.2610   -2.8710 O.co2 206  GLU206     -0.2457
    211  OE2      -32.4500   -5.7010   -2.1830 O.co2 206  GLU206     -0.2457
    212  N        -31.7140   -0.4780    1.1850 N.am  207  TYR207     -0.1976
    213  CA       -30.8370    0.6080    1.6200 C.3   207  TYR207      0.1639
    214  C        -29.8430    0.1050    2.6740 C.2   207  TYR207      0.2290
    215  O        -28.6370    0.4240    2.6210 O.2   207  TYR207     -0.2864
    216  CB       -31.6290    1.8560    2.0430 C.3   207  TYR207      0.0560
    217  CG       -32.0390    2.7760    0.9310 C.ar  207  TYR207     -0.0198
    218  CD1      -31.0950    3.5240    0.2290 C.ar  207  TYR207     -0.0009
    219  CD2      -33.3710    2.9240    0.5710 C.ar  207  TYR207     -0.0009
    220  CE1      -31.4630    4.4070   -0.7710 C.ar  207  TYR207      0.0417
    221  CE2      -33.7550    3.8050   -0.4320 C.ar  207  TYR207      0.0417
    222  CZ       -32.8050    4.5290   -1.1260 C.ar  207  TYR207      0.1957
    223  OH       -33.1600    5.4010   -2.1260 O.3   207  TYR207     -0.2866
    224  N        -27.1870   -2.0560    0.9370 N.3   210  PHE210     -0.1241
    225  CA       -26.2470   -1.1970    0.2240 C.3   210  PHE210      0.1605
    226  C        -25.2260   -0.5820    1.1960 C.2   210  PHE210      0.2264
    227  O        -24.0120   -0.6000    0.9400 O.2   210  PHE210     -0.2867
    228  CB       -26.9590   -0.1640   -0.6770 C.3   210  PHE210      0.0534
    229  CG       -26.2170    1.1620   -0.7680 C.ar  210  PHE210     -0.0203
    230  CD1      -24.9460    1.2630   -1.3090 C.ar  210  PHE210     -0.0042
    231  CD2      -26.7290    2.2940   -0.1600 C.ar  210  PHE210     -0.0042
    232  CE1      -24.2690    2.4800   -1.3290 C.ar  210  PHE210     -0.0003
    233  CE2      -26.0480    3.5090   -0.1520 C.ar  210  PHE210     -0.0003
    234  CZ       -24.8000    3.6060   -0.7310 C.ar  210  PHE210     -0.0000
@<TRIPOS>BOND
     1    61    62    1
     2    62    63    1
     3    62    65    1
     4    63    64    2
     5   121   120    2
     6    95    96    1
     7    95    94    1
     8   118   119    1
     9    96    97    2
    10   120   119    1
    11   109   110    2
    12   109   108    1
    13    97    99    1
    14    97    98    1
    15    65    66    1
    16   119   122    1
    17   107   108    1
    18   108   111    1
    19   125   126    1
    20    73    72    2
    21    70    71    1
    22    94    93    1
    23    93    90    1
    24   128   127    2
    25   145   146    1
    26    59    57    1
    27    66    67    1
    28    72    71    1
    29    72    80   am
    30   127   126    1
    31    55    56    2
    32    55    54    1
    33   126   129    1
    34   116   115    1
    35   148   147    2
    36   122   123    1
    37   122   124    1
    38    71    74    1
    39    89    90    1
    40    89    82   am
    41   111   112    1
    42    90    91    1
    43   113   112    1
    44   113   114    1
    45    80    81    1
    46    81    82    1
    47    81    84    1
    48   115   114    2
    49   115   117    1
    50   146   147    1
    51   146   149    1
    52    82    83    2
    53   131   133   ar
    54   131   130   ar
    55    68    67    2
    56    85    84    1
    57    85    86    1
    58    67    69   am
    59    54    57    1
    60    54    53    1
    61    57    58    1
    62   133   135   ar
    63   129   130    1
    64    74    75    1
    65   187   186    2
    66   130   132   ar
    67    77    75   ar
    68    77    79   ar
    69    87    86    1
    70    87    88    1
    71    91    92    2
    72    91   100   am
    73    60    58    1
    74    75    76   ar
    75   135   136    1
    76   135   134   ar
    77    49    48    2
    78   186   185    1
    79   132   134   ar
    80   100   101    1
    81    53    48   am
    82    79    78   ar
    83    16    17    1
    84    16    13    1
    85    48    47    1
    86    76    78   ar
    87    21    20    1
    88   103   102    2
    89    17    18    1
    90   102   101    1
    91    20    19    2
    92    20    22    1
    93    19    18    1
    94   101   104    1
    95    12    13    1
    96   185   188    1
    97   185   184    1
    98    13    14    1
    99    14    15    2
   100   150   151    1
   101    47    46    1
   102    47    50    1
   103   188   189    1
   104   155   157    1
   105   155   154    1
   106    44    43   ar
   107   104   106    1
   108   104   105    1
   109   184   190    1
   110   156   154    1
   111    41    42    1
   112    41    38    1
   113    42    43    1
   114    50    51    1
   115    50    52    1
   116   153   152    2
   117    43    45   ar
   118   154   151    1
   119   151   152    1
   120    40    39    2
   121   143   142    2
   122   139   138    1
   123   139   140    2
   124   189   190    1
   125   141   138    1
   126   141   142    1
   127   138   137    1
   128    39    38    1
   129   142   144   am
   130    38    37    1
   131   182   181    1
   132    37    25   am
   133     4     3    2
   134    23    24    1
   135   179   178    1
   136   179   180    2
   137    34    32   ar
   138    34    36   ar
   139    31    32   ar
   140    31    29   ar
   141   178   181    1
   142   178   177    1
   143   181   183    1
   144    25    24    1
   145    25    26    2
   146     3     2    1
   147    32    30   ar
   148    36    35   ar
   149    29    28   ar
   150    24    27    1
   151    30    28   ar
   152    30    33   ar
   153    35    33   ar
   154    28    27    1
   155   164   162    1
   156   158   159    1
   157     2     1    1
   158     2     5    1
   159   162   159    1
   160   162   163    1
   161   196   195    1
   162   161   160    2
   163   197   195    1
   164    10    11   ar
   165    10     8   ar
   166    11     9   ar
   167   159   160    1
   168     8     6   ar
   169     9     7   ar
   170     6     7   ar
   171     6     5    1
   172   210   209   ar
   173   195   192    1
   174   209   211   ar
   175   209   208    1
   176   208   207    1
   177   223   222    1
   178   176   175    1
   179   207   204    1
   180   232   230   ar
   181   232   234   ar
   182   230   229   ar
   183   192   193    1
   184   192   191    1
   185   222   220   ar
   186   222   221   ar
   187   220   218   ar
   188   229   228    1
   189   229   231   ar
   190   234   233   ar
   191   228   225    1
   192   193   194    2
   193   193   198   am
   194   175   173   ar
   195   175   174   ar
   196   221   219   ar
   197   173   171   ar
   198   198   199    1
   199   231   233   ar
   200   204   205    1
   201   204   203    1
   202   225   224    1
   203   225   226    1
   204   218   217   ar
   205   199   202    1
   206   199   200    1
   207   206   205    2
   208   219   217   ar
   209   205   212   am
   210   174   172   ar
   211   171   170   ar
   212   217   216    1
   213   227   226    2
   214   212   213    1
   215   213   216    1
   216   213   214    1
   217   200   201    2
   218   172   170   ar
   219   170   169    1
   220   215   214    2
   221   169   166    1
   222   167   166    1
   223   167   168    2
   224   166   165    1
