@<TRIPOS>MOLECULE
tmp/6j21A00.pdb
 223 216 0 0 0
SMALL
GASTEIGER

@<TRIPOS>ATOM
      1  N         18.2950  129.3610  199.9150 N.3    57  MET57      -0.1245
      2  CA        17.4350  129.5190  201.0940 C.3    57  MET57       0.1570
      3  C         16.8400  128.1790  201.5120 C.2    57  MET57       0.2261
      4  O         16.8050  127.8840  202.7070 O.2    57  MET57      -0.2867
      5  CB        16.3070  130.5330  200.8320 C.3    57  MET57       0.0387
      6  CG        15.8900  131.3390  202.0830 C.3    57  MET57       0.0595
      7  SD        14.2970  132.2640  202.0680 S.3    57  MET57      -0.1393
      8  CE        14.2030  132.7910  200.3290 C.3    57  MET57       0.0692
      9  N         17.9470  127.0660  205.3240 N.3    61  ASN61      -0.1240
     10  CA        16.9030  127.4000  206.2850 C.3    61  ASN61       0.1653
     11  C         15.7630  126.3930  206.5220 C.2    61  ASN61       0.2266
     12  O         15.3280  126.3200  207.6700 O.2    61  ASN61      -0.2867
     13  CB        16.3050  128.7440  205.9400 C.3    61  ASN61       0.1155
     14  CG        17.1990  129.8630  206.3910 C.2    61  ASN61       0.2627
     15  OD1       17.1550  130.2880  207.5520 O.2    61  ASN61      -0.2716
     16  ND2       18.0750  130.3200  205.5060 N.am   61  ASN61      -0.0877
     17  N         14.7660  125.8160  210.4220 N.3    65  ASN65      -0.1240
     18  CA        13.5220  126.5120  210.7780 C.3    65  ASN65       0.1653
     19  C         12.3880  125.5530  211.1400 C.2    65  ASN65       0.2266
     20  O         11.5310  125.9080  211.9560 O.2    65  ASN65      -0.2867
     21  CB        13.0870  127.5080  209.6920 C.3    65  ASN65       0.1155
     22  CG        13.8220  128.8330  209.7150 C.2    65  ASN65       0.2627
     23  OD1       14.9330  128.9680  209.1920 O.2    65  ASN65      -0.2716
     24  ND2       13.1880  129.8580  210.2760 N.am   65  ASN65      -0.0877
     25  N         20.9750  131.6650  210.5400 N.3    84  HIS84      -0.1226
     26  CA        19.5920  131.3240  210.1640 C.3    84  HIS84       0.1752
     27  C         18.6320  132.5380  210.2270 C.2    84  HIS84       0.2596
     28  O         17.5170  132.4750  209.6930 O.2    84  HIS84      -0.2718
     29  CB        19.0770  130.1190  210.9870 C.3    84  HIS84       0.0759
     30  CG        18.1050  130.4390  212.0900 C.ar   84  HIS84       0.0818
     31  ND1       16.7540  130.1380  211.9720 N.ar   84  HIS84      -0.2268
     32  CD2       18.3200  131.0050  213.3000 C.ar   84  HIS84       0.1154
     33  CE1       16.1960  130.5350  213.1060 C.ar   84  HIS84       0.1986
     34  NE2       17.0970  131.0710  213.9320 N.ar   84  HIS84      -0.2212
     35  N         19.0650  133.6200  210.9010 N.am   85  ASN85      -0.1974
     36  CA        18.3130  134.8660  211.0290 C.3    85  ASN85       0.1688
     37  C         18.8570  135.9180  210.0600 C.2    85  ASN85       0.2292
     38  O         18.1970  136.9240  209.8060 O.2    85  ASN85      -0.2864
     39  CB        18.3290  135.3890  212.4740 C.3    85  ASN85       0.1181
     40  CG        17.5050  134.5850  213.4650 C.2    85  ASN85       0.2629
     41  OD1       16.4000  134.1110  213.1760 O.2    85  ASN85      -0.2716
     42  ND2       17.9940  134.4720  214.6910 N.am   85  ASN85      -0.0877
     43  N         17.8910  134.3760  205.4220 N.3    88  PRO88      -0.2102
     44  CA        16.5590  134.5500  204.7930 C.3    88  PRO88       0.1504
     45  C         16.2680  135.9560  204.2690 C.2    88  PRO88       0.2575
     46  O         15.6940  136.0650  203.1910 O.2    88  PRO88      -0.2718
     47  CB        15.5710  134.1440  205.8920 C.3    88  PRO88       0.0282
     48  CG        16.3310  133.3210  206.8130 C.3    88  PRO88       0.0208
     49  CD        17.7620  133.7740  206.7650 C.3    88  PRO88       0.0893
     50  N         16.6870  137.0180  205.0060 N.am   89  ILE89      -0.1980
     51  CA        16.4940  138.4230  204.6110 C.3    89  ILE89       0.1595
     52  C         17.3220  138.7360  203.3720 C.2    89  ILE89       0.2287
     53  O         16.8190  139.3970  202.4600 O.2    89  ILE89      -0.2864
     54  CB        16.7330  139.4170  205.7860 C.3    89  ILE89       0.0276
     55  CG1       15.6470  139.2520  206.8610 C.3    89  ILE89       0.0022
     56  CG2       16.7890  140.8750  205.3050 C.3    89  ILE89       0.0022
     57  CD1       16.1340  139.4200  208.2460 C.3    89  ILE89       0.0001
     58  N         15.6650  136.6850  200.2700 N.3    92  VAL92      -0.1245
     59  CA        14.3810  137.2210  199.8040 C.3    92  VAL92       0.1561
     60  C         14.6050  138.5470  199.0550 C.2    92  VAL92       0.2260
     61  O         14.0080  138.7390  197.9900 O.2    92  VAL92      -0.2867
     62  CB        13.2760  137.3010  200.8840 C.3    92  VAL92       0.0252
     63  CG1       11.9760  137.8510  200.3080 C.3    92  VAL92       0.0019
     64  CG2       13.0170  135.9360  201.4980 C.3    92  VAL92       0.0019
     65  N         19.9240  141.9100  211.8170 N.3   141  ALA141     -0.1245
     66  CA        19.1810  140.7230  212.2760 C.3   141  ALA141      0.1562
     67  C         20.1070  139.5570  212.6410 C.2   141  ALA141      0.2260
     68  O         19.7730  138.7670  213.5210 O.2   141  ALA141     -0.2867
     69  CB        18.1630  140.2830  211.2390 C.3   141  ALA141      0.0290
     70  N         16.7760  136.8430  219.1730 N.3   158  ILE158     -0.1245
     71  CA        17.4500  138.0790  218.7650 C.3   158  ILE158      0.1561
     72  C         17.0960  139.2210  219.7470 C.2   158  ILE158      0.2260
     73  O         15.9230  139.5860  219.9230 O.2   158  ILE158     -0.2867
     74  CB        17.2600  138.4280  217.2410 C.3   158  ILE158      0.0252
     75  CG1       17.3550  139.9530  216.9720 C.3   158  ILE158      0.0019
     76  CG2       15.9790  137.8150  216.6410 C.3   158  ILE158      0.0019
     77  CD1       17.6620  140.3310  215.5830 C.3   158  ILE158      0.0001
     78  N         18.1190  143.1670  220.7520 N.3   160  TRP160     -0.1241
     79  CA        18.6530  144.4870  220.4100 C.3   160  TRP160      0.1605
     80  C         18.9920  145.2660  221.6950 C.2   160  TRP160      0.2264
     81  O         18.4270  144.9310  222.7370 O.2   160  TRP160     -0.2867
     82  CB        17.6090  145.2610  219.5800 C.3   160  TRP160      0.0550
     83  CG        17.5220  144.8550  218.1350 C.ar  160  TRP160      0.0003
     84  CD1       17.1770  143.6300  217.6440 C.ar  160  TRP160      0.0946
     85  CD2       17.7170  145.7030  216.9940 C.ar  160  TRP160      0.0152
     86  NE1       17.1940  143.6500  216.2720 N.ar  160  TRP160     -0.2442
     87  CE2       17.5010  144.9130  215.8450 C.ar  160  TRP160      0.0810
     88  CE3       18.0660  147.0530  216.8290 C.ar  160  TRP160      0.0012
     89  CZ2       17.6310  145.4240  214.5520 C.ar  160  TRP160      0.0191
     90  CZ3       18.1700  147.5630  215.5460 C.ar  160  TRP160      0.0001
     91  CH2       17.9530  146.7530  214.4260 C.ar  160  TRP160      0.0015
     92  N         14.4580  148.3750  216.6470 N.3   169  GLU169     -0.1245
     93  CA        14.1020  147.0010  216.2860 C.3   169  GLU169      0.1567
     94  C         12.8190  146.9900  215.4420 C.2   169  GLU169      0.2260
     95  O         12.7680  146.2960  214.4290 O.2   169  GLU169     -0.2867
     96  CB        13.9510  146.1290  217.5520 C.3   169  GLU169      0.0388
     97  CG        13.8050  144.6320  217.2810 C.3   169  GLU169      0.1160
     98  CD        13.7680  143.6530  218.4480 C.2   169  GLU169      0.3649
     99  OE1       14.0550  144.0540  219.5990 O.co2 169  GLU169     -0.2457
    100  OE2       13.4650  142.4630  218.1980 O.co2 169  GLU169     -0.2457
    101  N         13.4480  148.9210  211.8690 N.3   172  TYR172     -0.1227
    102  CA        14.2010  147.9720  211.0500 C.3   172  TYR172      0.1736
    103  C         13.2660  146.8850  210.5110 C.2   172  TYR172      0.2595
    104  O         13.2550  146.6600  209.3000 O.2   172  TYR172     -0.2718
    105  CB        15.3570  147.3620  211.8670 C.3   172  TYR172      0.0548
    106  CG        16.0770  146.2090  211.2060 C.ar  172  TYR172     -0.0200
    107  CD1       16.9990  146.4280  210.1890 C.ar  172  TYR172     -0.0009
    108  CD2       15.8780  144.9000  211.6360 C.ar  172  TYR172     -0.0009
    109  CE1       17.6790  145.3700  209.5910 C.ar  172  TYR172      0.0417
    110  CE2       16.5660  143.8350  211.0550 C.ar  172  TYR172      0.0417
    111  CZ        17.4680  144.0760  210.0350 C.ar  172  TYR172      0.1957
    112  OH        18.1420  143.0310  209.4580 O.3   172  TYR172     -0.2866
    113  N         12.4490  146.2560  211.3950 N.am  173  HIS173     -0.1975
    114  CA        11.4950  145.2210  210.9980 C.3   173  HIS173      0.1656
    115  C         10.5560  145.7350  209.9110 C.2   173  HIS173      0.2291
    116  O         10.3110  145.0220  208.9370 O.2   173  HIS173     -0.2864
    117  CB        10.6960  144.7000  212.2000 C.3   173  HIS173      0.0771
    118  CG         9.5840  143.7720  211.8050 C.ar  173  HIS173      0.0820
    119  ND1        9.8050  142.4290  211.6130 N.ar  173  HIS173     -0.2267
    120  CD2        8.2890  144.0420  211.5200 C.ar  173  HIS173      0.1154
    121  CE1        8.6410  141.9190  211.2420 C.ar  173  HIS173      0.1986
    122  NE2        7.7030  142.8510  211.1650 N.ar  173  HIS173     -0.2212
    123  N         12.5400  146.4540  206.4390 N.3   176  VAL176     -0.1231
    124  CA        12.8330  145.1720  205.7990 C.3   176  VAL176      0.1692
    125  C         11.5710  144.7200  205.0670 C.2   176  VAL176      0.2592
    126  O         11.6440  144.4650  203.8660 O.2   176  VAL176     -0.2718
    127  CB        13.3880  144.1310  206.8140 C.3   176  VAL176      0.0266
    128  CG1       13.3410  142.7120  206.2600 C.3   176  VAL176      0.0020
    129  CG2       14.8070  144.4900  207.2490 C.3   176  VAL176      0.0020
    130  N         10.4030  144.7520  205.7600 N.am  177  THR177     -0.1953
    131  CA         9.0840  144.4000  205.2130 C.3   177  THR177      0.1897
    132  C          8.7570  145.2480  203.9450 C.2   177  THR177      0.2313
    133  O          8.1360  144.7310  203.0100 O.2   177  THR177     -0.2863
    134  CB         8.0110  144.4650  206.3300 C.3   177  THR177      0.1794
    135  OG1        8.2930  143.4710  207.3220 O.3   177  THR177     -0.2208
    136  CG2        6.6070  144.2400  205.8210 C.3   177  THR177      0.0378
    137  N         11.6300  144.2860  200.9690 N.3   180  ILE180     -0.1245
    138  CA        11.5030  142.8780  200.5900 C.3   180  ILE180      0.1561
    139  C         10.1120  142.5410  200.0160 C.2   180  ILE180      0.2260
    140  O          9.9640  141.4930  199.3790 O.2   180  ILE180     -0.2867
    141  CB        11.9160  142.0110  201.8300 C.3   180  ILE180      0.0252
    142  CG1       13.3410  141.5080  201.6670 C.3   180  ILE180      0.0019
    143  CG2       10.9560  140.8790  202.2500 C.3   180  ILE180      0.0019
    144  CD1       14.2980  142.1570  202.6230 C.3   180  ILE180      0.0001
    145  N          4.1260  135.2770  200.3350 N.3   338  TRP338     -0.1241
    146  CA         4.7180  136.0600  201.4160 C.3   338  TRP338      0.1605
    147  C          3.7240  136.8870  202.2440 C.2   338  TRP338      0.2264
    148  O          4.0490  137.2250  203.3840 O.2   338  TRP338     -0.2867
    149  CB         5.8810  136.9250  200.8880 C.3   338  TRP338      0.0550
    150  CG         7.1080  136.0900  200.6610 C.ar  338  TRP338      0.0003
    151  CD1        7.5250  135.5570  199.4740 C.ar  338  TRP338      0.0946
    152  CD2        7.9370  135.4970  201.6790 C.ar  338  TRP338      0.0152
    153  NE1        8.6050  134.7220  199.6800 N.ar  338  TRP338     -0.2442
    154  CE2        8.8790  134.6680  201.0250 C.ar  338  TRP338      0.0810
    155  CE3        7.9870  135.6010  203.0840 C.ar  338  TRP338      0.0012
    156  CZ2        9.8790  133.9740  201.7240 C.ar  338  TRP338      0.0191
    157  CZ3        8.9820  134.9210  203.7720 C.ar  338  TRP338      0.0001
    158  CH2        9.9090  134.1140  203.0970 C.ar  338  TRP338      0.0015
    159  N          2.8420  135.5130  205.8690 N.3   341  PHE341     -0.1227
    160  CA         4.0690  135.5880  206.6520 C.3   341  PHE341      0.1736
    161  C          4.2670  137.0000  207.1850 C.2   341  PHE341      0.2595
    162  O          4.4490  137.1630  208.3930 O.2   341  PHE341     -0.2718
    163  CB         5.2830  135.1140  205.8310 C.3   341  PHE341      0.0547
    164  CG         6.5830  135.0380  206.6040 C.ar  341  PHE341     -0.0202
    165  CD1        6.9740  133.8570  207.2200 C.ar  341  PHE341     -0.0042
    166  CD2        7.4220  136.1420  206.6990 C.ar  341  PHE341     -0.0042
    167  CE1        8.1680  133.7900  207.9390 C.ar  341  PHE341     -0.0003
    168  CE2        8.6150  136.0720  207.4150 C.ar  341  PHE341     -0.0003
    169  CZ         8.9800  134.8970  208.0300 C.ar  341  PHE341     -0.0000
    170  N          4.1930  138.0140  206.3030 N.am  342  HIS342     -0.1975
    171  CA         4.3630  139.4060  206.7030 C.3   342  HIS342      0.1656
    172  C          3.2750  139.8820  207.6610 C.2   342  HIS342      0.2291
    173  O          3.5970  140.5850  208.6140 O.2   342  HIS342     -0.2864
    174  CB         4.5120  140.3270  205.4930 C.3   342  HIS342      0.0771
    175  CG         5.8010  140.1100  204.7620 C.ar  342  HIS342      0.0820
    176  ND1        7.0240  140.1650  205.4140 N.ar  342  HIS342     -0.2267
    177  CD2        6.0170  139.8460  203.4530 C.ar  342  HIS342      0.1154
    178  CE1        7.9350  139.9310  204.4860 C.ar  342  HIS342      0.1986
    179  NE2        7.3780  139.7370  203.2890 N.ar  342  HIS342     -0.2212
    180  N          3.9160  138.4160  211.3770 N.3   345  PHE345     -0.1241
    181  CA         4.9030  139.1790  212.1380 C.3   345  PHE345      0.1605
    182  C          4.5170  140.6400  212.3550 C.2   345  PHE345      0.2264
    183  O          5.1160  141.3070  213.2000 O.2   345  PHE345     -0.2867
    184  CB         6.2870  139.0540  211.4950 C.3   345  PHE345      0.0534
    185  CG         6.9030  137.6950  211.7000 C.ar  345  PHE345     -0.0203
    186  CD1        7.7010  137.4370  212.8060 C.ar  345  PHE345     -0.0042
    187  CD2        6.6690  136.6640  210.8000 C.ar  345  PHE345     -0.0042
    188  CE1        8.2550  136.1740  213.0090 C.ar  345  PHE345     -0.0003
    189  CE2        7.2210  135.3990  211.0050 C.ar  345  PHE345     -0.0003
    190  CZ         8.0190  135.1650  212.1020 C.ar  345  PHE345     -0.0000
    191  N          1.6420  128.8420  212.6260 N.3   364  TYR364     -0.1241
    192  CA         2.9740  129.2470  212.1900 C.3   364  TYR364      0.1605
    193  C          3.5550  128.2320  211.2240 C.2   364  TYR364      0.2264
    194  O          4.1420  128.6390  210.2290 O.2   364  TYR364     -0.2867
    195  CB         3.9510  129.5620  213.3450 C.3   364  TYR364      0.0534
    196  CG         5.2860  130.0850  212.8430 C.ar  364  TYR364     -0.0201
    197  CD1        5.3550  131.2170  212.0300 C.ar  364  TYR364     -0.0009
    198  CD2        6.4700  129.4060  213.1130 C.ar  364  TYR364     -0.0009
    199  CE1        6.5700  131.6650  211.5070 C.ar  364  TYR364      0.0417
    200  CE2        7.6960  129.8560  212.6130 C.ar  364  TYR364      0.0417
    201  CZ         7.7420  130.9860  211.8060 C.ar  364  TYR364      0.1957
    202  OH         8.9440  131.4440  211.2990 O.3   364  TYR364     -0.2866
    203  N          4.5600  129.4480  207.6100 N.3   368  MET368     -0.1245
    204  CA         5.9670  129.2680  207.2380 C.3   368  MET368      0.1570
    205  C          6.1280  128.2920  206.0550 C.2   368  MET368      0.2261
    206  O          7.0990  128.4260  205.3060 O.2   368  MET368     -0.2867
    207  CB         6.8130  128.8380  208.4480 C.3   368  MET368      0.0387
    208  CG         8.3080  128.9960  208.2430 C.3   368  MET368      0.0595
    209  SD         9.3010  128.4440  209.6540 S.3   368  MET368     -0.1393
    210  CE         9.0480  126.6730  209.5860 C.3   368  MET368      0.0692
    211  N          5.3400  130.4540  202.6730 N.3   371  ALA371     -0.1231
    212  CA         6.4650  131.3700  202.4470 C.3   371  ALA371      0.1694
    213  C          7.6500  130.6440  201.8110 C.2   371  ALA371      0.2591
    214  O          8.1630  131.0890  200.7840 O.2   371  ALA371     -0.2718
    215  CB         6.8870  132.0090  203.7580 C.3   371  ALA371      0.0304
    216  N          8.0290  129.4930  202.3790 N.am  372  MET372     -0.1979
    217  CA         9.1370  128.6760  201.8950 C.3   372  MET372      0.1605
    218  C          8.8330  127.9280  200.5850 C.2   372  MET372      0.2287
    219  O          9.7760  127.5530  199.8880 O.2   372  MET372     -0.2864
    220  CB         9.6300  127.7100  202.9910 C.3   372  MET372      0.0413
    221  CG        10.2470  128.4210  204.1860 C.3   372  MET372      0.0598
    222  SD        11.9920  128.0410  204.4550 S.3   372  MET372     -0.1393
    223  CE        12.7500  128.9740  203.1380 C.3   372  MET372      0.0692
@<TRIPOS>BOND
     1    61    60    2
     2    60    59    1
     3   140   139    2
     4   151   153   ar
     5   151   150   ar
     6   153   154   ar
     7    59    58    1
     8    59    62    1
     9   219   218    2
    10     1     2    1
    11   139   138    1
    12    63    62    1
    13     8     7    1
    14   145   146    1
    15   218   217    1
    16   138   137    1
    17   138   141    1
    18   150   149    1
    19   150   152   ar
    20   214   213    2
    21     5     2    1
    22     5     6    1
    23    62    64    1
    24   149   146    1
    25   154   152   ar
    26   154   156   ar
    27     2     3    1
    28   146   147    1
    29     3     4    2
    30   142   141    1
    31   142   144    1
    32   152   155   ar
    33   156   158   ar
    34   213   216   am
    35   213   212    1
    36   141   143    1
    37   217   216    1
    38   217   220    1
    39     7     6    1
    40   147   148    2
    41   212   211    1
    42   212   215    1
    43    53    52    2
    44   220   221    1
    45   133   132    2
    46   155   157   ar
    47   158   157   ar
    48   223   222    1
    49    46    45    2
    50   179   177   ar
    51   179   178   ar
    52    52    51    1
    53   177   175   ar
    54   126   125    2
    55   132   131    1
    56   221   222    1
    57    45    44    1
    58    45    50   am
    59   178   176   ar
    60    51    50    1
    61    51    54    1
    62   175   176   ar
    63   175   174    1
    64    44    43    1
    65    44    47    1
    66   125   130   am
    67   125   124    1
    68   131   130    1
    69   131   134    1
    70    56    54    1
    71   206   205    2
    72     9    10    1
    73    43    49    1
    74   174   171    1
    75    16    14   am
    76    54    55    1
    77   124   123    1
    78   124   127    1
    79   136   134    1
    80   163   164    1
    81   163   160    1
    82   159   160    1
    83    47    48    1
    84    13    10    1
    85    13    14    1
    86   205   204    1
    87   128   127    1
    88    10    11    1
    89   170   171    1
    90   170   161   am
    91   134   135    1
    92    14    15    2
    93    11    12    2
    94   164   166   ar
    95   164   165   ar
    96   160   161    1
    97   166   168   ar
    98   171   172    1
    99    49    48    1
   100   127   129    1
   101    55    57    1
   102   161   162    2
   103   165   167   ar
   104   204   203    1
   105   204   207    1
   106   168   169   ar
   107   172   173    2
   108   167   169   ar
   109   208   207    1
   110   208   209    1
   111   116   115    2
   112    23    22    2
   113   104   103    2
   114   112   111    1
   115   210   209    1
   116   109   111   ar
   117   109   107   ar
   118    21    22    1
   119    21    18    1
   120    28    27    2
   121    22    24   am
   122    38    37    2
   123   115   114    1
   124   111   110   ar
   125    37    36    1
   126    26    27    1
   127    26    25    1
   128    26    29    1
   129   107   106   ar
   130    27    35   am
   131   194   193    2
   132    17    18    1
   133   103   102    1
   134   103   113   am
   135    18    19    1
   136   187   189   ar
   137   187   185   ar
   138    35    36    1
   139    29    30    1
   140   114   113    1
   141   114   117    1
   142   189   190   ar
   143    36    39    1
   144   102   105    1
   145   102   101    1
   146   110   108   ar
   147    19    20    2
   148   122   121   ar
   149   122   120   ar
   150   106   108   ar
   151   106   105    1
   152   193   192    1
   153    69    66    1
   154   121   119   ar
   155   202   201    1
   156   180   181    1
   157   184   185    1
   158   184   181    1
   159   199   201   ar
   160   199   197   ar
   161   120   118   ar
   162   119   118   ar
   163   185   186   ar
   164   118   117    1
   165   201   200   ar
   166    65    66    1
   167    31    30   ar
   168    31    33   ar
   169   197   196   ar
   170    30    32   ar
   171   190   188   ar
   172   181   182    1
   173   192   191    1
   174   192   195    1
   175    66    67    1
   176   182   183    2
   177    39    40    1
   178   200   198   ar
   179    67    68    2
   180   186   188   ar
   181   196   198   ar
   182   196   195    1
   183    33    34   ar
   184    41    40    2
   185    32    34   ar
   186    40    42   am
   187    91    89   ar
   188    91    90   ar
   189    95    94    2
   190    89    87   ar
   191    94    93    1
   192    90    88   ar
   193    77    75    1
   194    87    86   ar
   195    87    85   ar
   196    86    84   ar
   197    93    92    1
   198    93    96    1
   199    76    74    1
   200    88    85   ar
   201    75    74    1
   202    85    83   ar
   203    74    71    1
   204    97    96    1
   205    97    98    1
   206    84    83   ar
   207    83    82    1
   208   100    98   ar
   209    98    99   ar
   210    71    70    1
   211    71    72    1
   212    82    79    1
   213    72    73    2
   214    79    78    1
   215    79    80    1
   216    80    81    2
