@<TRIPOS>MOLECULE
tmp/6j21A01.pdb
 96 91 0 0 0
SMALL
GASTEIGER

@<TRIPOS>ATOM
      1  N          7.1690  145.1530  194.7750 N.3   185  LEU185     -0.1245
      2  CA         5.9190  144.6540  194.1700 C.3   185  LEU185      0.1561
      3  C          5.1250  145.7810  193.5130 C.2   185  LEU185      0.2260
      4  O          4.4750  145.5690  192.4860 O.2   185  LEU185     -0.2867
      5  CB         5.0310  143.8670  195.1530 C.3   185  LEU185      0.0270
      6  CG         5.4210  142.4100  195.4400 C.3   185  LEU185      0.0019
      7  CD1        4.5710  141.8450  196.5360 C.3   185  LEU185      0.0001
      8  CD2        5.3200  141.5280  194.1960 C.3   185  LEU185      0.0001
      9  N          7.2600  146.5220  190.1850 N.3   188  ILE188     -0.1231
     10  CA         7.0090  145.4180  189.2410 C.3   188  ILE188      0.1692
     11  C          5.5790  145.5400  188.7030 C.2   188  ILE188      0.2592
     12  O          5.3670  145.3740  187.5010 O.2   188  ILE188     -0.2718
     13  CB         7.2770  144.0140  189.8670 C.3   188  ILE188      0.0266
     14  CG1        8.7610  143.8340  190.2440 C.3   188  ILE188      0.0019
     15  CG2        6.8360  142.9090  188.9160 C.3   188  ILE188      0.0020
     16  CD1        9.0910  142.6670  191.2160 C.3   188  ILE188      0.0001
     17  N          4.6350  145.8630  189.5900 N.am  189  GLY189     -0.1957
     18  CA         3.2390  146.0730  189.2360 C.3   189  GLY189      0.1869
     19  C          3.0690  147.1210  188.1550 C.2   189  GLY189      0.2309
     20  O          2.3990  146.8630  187.1490 O.2   189  GLY189     -0.2863
     21  N          4.9170  146.0220  184.3640 N.3   192  TYR192     -0.1227
     22  CA         4.1220  145.0080  183.6600 C.3   192  TYR192      0.1736
     23  C          2.7050  145.4760  183.3260 C.2   192  TYR192      0.2596
     24  O          2.1250  144.9370  182.3850 O.2   192  TYR192     -0.2718
     25  CB         4.1130  143.6350  184.3740 C.3   192  TYR192      0.0548
     26  CG         5.4380  142.8950  184.3170 C.ar  192  TYR192     -0.0200
     27  CD1        6.1640  142.8060  183.1280 C.ar  192  TYR192     -0.0009
     28  CD2        5.9510  142.2590  185.4410 C.ar  192  TYR192     -0.0009
     29  CE1        7.3980  142.1530  183.0780 C.ar  192  TYR192      0.0417
     30  CE2        7.1740  141.5860  185.3980 C.ar  192  TYR192      0.0417
     31  CZ         7.8940  141.5350  184.2150 C.ar  192  TYR192      0.1957
     32  OH         9.1000  140.8790  184.1830 O.3   192  TYR192     -0.2866
     33  N          2.1590  146.4990  184.0200 N.am  193  THR193     -0.1953
     34  CA         0.8380  146.9800  183.6060 C.3   193  THR193      0.1897
     35  C          0.9970  147.8490  182.3080 C.2   193  THR193      0.2313
     36  O          0.2930  147.5950  181.3270 O.2   193  THR193     -0.2863
     37  CB         0.0020  147.6060  184.7500 C.3   193  THR193      0.1794
     38  OG1       -1.2270  148.0800  184.2010 O.3   193  THR193     -0.2208
     39  CG2        0.6770  148.7520  185.4380 C.3   193  THR193      0.0378
     40  N          1.9170  145.5640  179.6310 N.3   196  GLY196     -0.1210
     41  CA         0.7690  144.7060  179.3560 C.3   196  GLY196      0.1956
     42  C         -0.2080  145.3590  178.4000 C.2   196  GLY196      0.2611
     43  O         -0.7270  144.7110  177.4850 O.2   196  GLY196     -0.2717
     44  N         -0.4330  146.6680  178.6110 N.am  197  ILE197     -0.1979
     45  CA        -1.2890  147.5320  177.8060 C.3   197  ILE197      0.1595
     46  C         -0.6920  147.6840  176.3900 C.2   197  ILE197      0.2287
     47  O         -1.4290  147.5950  175.4060 O.2   197  ILE197     -0.2864
     48  CB        -1.4920  148.8830  178.5510 C.3   197  ILE197      0.0276
     49  CG1       -2.5690  148.7430  179.6430 C.3   197  ILE197      0.0022
     50  CG2       -1.8300  150.0350  177.5940 C.3   197  ILE197      0.0022
     51  CD1       -2.4040  149.6770  180.8280 C.3   197  ILE197      0.0001
     52  N         -0.8680  143.9820  174.3940 N.3   200  TRP200     -0.1227
     53  CA        -2.1820  143.3980  174.1580 C.3   200  TRP200      0.1737
     54  C         -3.2240  144.4050  173.6360 C.2   200  TRP200      0.2595
     55  O         -3.8580  144.1250  172.6190 O.2   200  TRP200     -0.2718
     56  CB        -2.6640  142.6460  175.4120 C.3   200  TRP200      0.0564
     57  CG        -2.0020  141.2980  175.5610 C.ar  200  TRP200      0.0003
     58  CD1       -2.3410  140.1510  174.9060 C.ar  200  TRP200      0.0946
     59  CD2       -0.8490  140.9710  176.3690 C.ar  200  TRP200      0.0152
     60  NE1       -1.4890  139.1270  175.2640 N.ar  200  TRP200     -0.2442
     61  CE2       -0.5660  139.6010  176.1640 C.ar  200  TRP200      0.0810
     62  CE3       -0.0370  141.6980  177.2600 C.ar  200  TRP200      0.0012
     63  CZ2        0.4960  138.9470  176.8070 C.ar  200  TRP200      0.0191
     64  CZ3        1.0150  141.0460  177.8950 C.ar  200  TRP200      0.0001
     65  CH2        1.2670  139.6870  177.6720 C.ar  200  TRP200      0.0015
     66  N         -3.3670  145.5750  174.2840 N.am  201  ALA201     -0.1980
     67  CA        -4.3450  146.6010  173.8950 C.3   201  ALA201      0.1597
     68  C         -3.9260  147.4980  172.7080 C.2   201  ALA201      0.2287
     69  O         -2.7350  147.6040  172.3970 O.2   201  ALA201     -0.2864
     70  CB        -4.7020  147.4610  175.1030 C.3   201  ALA201      0.0319
     71  N          4.6340  137.5570  184.9620 N.3   328  ILE328     -0.1245
     72  CA         3.4800  138.0430  185.7300 C.3   328  ILE328      0.1561
     73  C          3.0410  136.9610  186.7290 C.2   328  ILE328      0.2260
     74  O          2.8510  137.2670  187.9090 O.2   328  ILE328     -0.2867
     75  CB         2.3080  138.5810  184.8440 C.3   328  ILE328      0.0252
     76  CG1        2.7340  139.8410  184.0690 C.3   328  ILE328      0.0019
     77  CG2        1.0430  138.8680  185.6880 C.3   328  ILE328      0.0019
     78  CD1        1.7080  140.3520  183.0350 C.3   328  ILE328      0.0001
     79  N          5.5130  136.5780  189.7610 N.3   331  VAL331     -0.1231
     80  CA         5.3450  137.7160  190.6770 C.3   331  VAL331      0.1692
     81  C          4.1200  137.5330  191.5730 C.2   331  VAL331      0.2592
     82  O          4.2040  137.7320  192.7870 O.2   331  VAL331     -0.2718
     83  CB         5.3330  139.0460  189.8760 C.3   331  VAL331      0.0266
     84  CG1        4.7100  140.2000  190.6580 C.3   331  VAL331      0.0020
     85  CG2        6.7430  139.3990  189.4170 C.3   331  VAL331      0.0020
     86  N          2.9980  137.1230  190.9710 N.am  332  CYS332     -0.1970
     87  CA         1.7390  136.8880  191.6730 C.3   332  CYS332      0.1712
     88  C          1.8330  135.7290  192.6710 C.2   332  CYS332      0.2296
     89  O          1.1610  135.7510  193.7030 O.2   332  CYS332     -0.2864
     90  CB         0.5960  136.7080  190.6800 C.3   332  CYS332      0.0983
     91  SG         0.2110  138.2080  189.7350 S.3   332  CYS332     -0.0798
     92  N          3.8570  137.2360  195.7570 N.3   335  ALA335     -0.1245
     93  CA         2.9150  138.0830  196.4990 C.3   335  ALA335      0.1562
     94  C          1.9700  137.2670  197.3920 C.2   335  ALA335      0.2260
     95  O          1.7720  137.6200  198.5560 O.2   335  ALA335     -0.2867
     96  CB         2.1210  138.9480  195.5270 C.3   335  ALA335      0.0290
@<TRIPOS>BOND
     1    69    68    2
     2    55    54    2
     3    68    67    1
     4    54    53    1
     5    54    66   am
     6    67    66    1
     7    67    70    1
     8    53    52    1
     9    53    56    1
    10    58    60   ar
    11    58    57   ar
    12    60    61   ar
    13    47    46    2
    14    56    57    1
    15    57    59   ar
    16    61    59   ar
    17    61    63   ar
    18    59    62   ar
    19    46    45    1
    20    63    65   ar
    21    62    64   ar
    22    43    42    2
    23    50    48    1
    24    65    64   ar
    25    45    48    1
    26    45    44    1
    27    42    44   am
    28    42    41    1
    29    48    49    1
    30    41    40    1
    31    49    51    1
    32    36    35    2
    33    35    34    1
    34    24    23    2
    35    78    76    1
    36    29    27   ar
    37    29    31   ar
    38    27    26   ar
    39    23    22    1
    40    23    33   am
    41    34    33    1
    42    34    37    1
    43    22    21    1
    44    22    25    1
    45    76    75    1
    46    32    31    1
    47    38    37    1
    48    31    30   ar
    49    26    25    1
    50    26    28   ar
    51    37    39    1
    52    75    77    1
    53    75    72    1
    54    71    72    1
    55    30    28   ar
    56    72    73    1
    57    73    74    2
    58    20    19    2
    59    12    11    2
    60    19    18    1
    61    11    10    1
    62    11    17   am
    63    15    13    1
    64    18    17    1
    65    10    13    1
    66    10     9    1
    67    85    83    1
    68    91    90    1
    69    79    80    1
    70    13    14    1
    71    83    84    1
    72    83    80    1
    73    14    16    1
    74    80    81    1
    75    90    87    1
    76    86    81   am
    77    86    87    1
    78    81    82    2
    79    87    88    1
    80     4     3    2
    81    88    89    2
    82     3     2    1
    83     2     1    1
    84     2     5    1
    85     8     6    1
    86     5     6    1
    87     6     7    1
    88    96    93    1
    89    92    93    1
    90    93    94    1
    91    94    95    2
