@<TRIPOS>MOLECULE
tmp/6j3mA00.pdb
 107 105 0 0 0
SMALL
GASTEIGER

@<TRIPOS>ATOM
      1  N         37.5980   -4.0440  -19.5620 N.3     8  TYR8       -0.1228
      2  CA        37.0690   -5.2810  -18.9770 C.3     8  TYR8        0.1721
      3  C         35.7790   -4.9540  -18.2500 C.2     8  TYR8        0.2437
      4  O         35.7780   -4.6990  -17.0710 O.2     8  TYR8       -0.2733
      5  CB        38.0970   -5.8890  -18.0530 C.3     8  TYR8        0.0547
      6  CG        37.6950   -7.2230  -17.5040 C.ar    8  TYR8       -0.0200
      7  CD1       36.7430   -8.0250  -18.1060 C.ar    8  TYR8       -0.0009
      8  CD2       38.3270   -7.7160  -16.3950 C.ar    8  TYR8       -0.0009
      9  CE1       36.4380   -9.2810  -17.6120 C.ar    8  TYR8        0.0417
     10  CE2       38.0310   -8.9620  -15.8840 C.ar    8  TYR8        0.0417
     11  CZ        37.1030   -9.7520  -16.5110 C.ar    8  TYR8        0.1957
     12  OH        36.8260  -10.9490  -15.9620 O.3     8  TYR8       -0.2866
     13  N         34.6360   -4.9550  -18.9390 N.am    9  PRO9       -0.2718
     14  CA        33.3570   -4.6390  -18.3300 C.3     9  PRO9        0.1535
     15  C         32.7560   -5.8680  -17.6610 C.2     9  PRO9        0.2599
     16  O         33.0300   -6.9620  -18.0580 O.2     9  PRO9       -0.2715
     17  CB        32.4980   -4.2230  -19.5100 C.3     9  PRO9        0.0310
     18  CG        33.0120   -5.1090  -20.6440 C.3     9  PRO9        0.0237
     19  CD        34.4920   -5.3110  -20.3490 C.3     9  PRO9        0.0939
     20  N         31.9370   -5.6310  -16.6490 N.am   10  GLY10      -0.1941
     21  CA        31.3830   -6.6540  -15.7410 C.3    10  GLY10       0.2014
     22  C         30.5450   -5.9780  -14.6550 C.2    10  GLY10       0.2640
     23  O         30.6860   -4.7650  -14.4400 O.2    10  GLY10      -0.2714
     24  N         29.7170   -6.7390  -13.9700 N.am   11  THR11      -0.1936
     25  CA        29.0750   -6.2530  -12.7470 C.3    11  THR11       0.2028
     26  C         30.0570   -6.4250  -11.5790 C.2    11  THR11       0.2642
     27  O         29.9070   -5.6660  -10.6870 O.2    11  THR11      -0.2714
     28  CB        27.7040   -6.9020  -12.5590 C.3    11  THR11       0.1808
     29  OG1       27.9970   -8.2860  -12.3810 O.3    11  THR11      -0.2208
     30  CG2       26.7840   -6.5890  -13.7130 C.3    11  THR11       0.0379
     31  N         31.0140   -7.3650  -11.5820 N.am   12  PHE12      -0.1973
     32  CA        31.9710   -7.5520  -10.4530 C.3    12  PHE12       0.1639
     33  C         31.2350   -7.4390   -9.1010 C.2    12  PHE12       0.2290
     34  O         31.5930   -6.5960   -8.2210 O.2    12  PHE12      -0.2864
     35  CB        33.0810   -6.5020  -10.4970 C.3    12  PHE12       0.0560
     36  CG        33.8730   -6.5430  -11.7590 C.ar   12  PHE12      -0.0200
     37  CD1       34.8360   -7.5190  -11.9400 C.ar   12  PHE12      -0.0042
     38  CD2       33.5750   -5.7000  -12.8100 C.ar   12  PHE12      -0.0042
     39  CE1       35.5360   -7.6020  -13.1370 C.ar   12  PHE12      -0.0003
     40  CE2       34.2850   -5.7800  -14.0000 C.ar   12  PHE12      -0.0003
     41  CZ        35.2580   -6.7360  -14.1640 C.ar   12  PHE12      -0.0000
     42  N         35.9250  -11.8530   -7.9800 N.3    16  THR16      -0.1218
     43  CA        36.3750  -13.2160   -7.6120 C.3    16  THR16       0.1862
     44  C         37.8260  -13.4130   -8.0330 C.2    16  THR16       0.2287
     45  O         38.3630  -12.6120   -8.7900 O.2    16  THR16      -0.2866
     46  CB        35.5580  -14.3050   -8.3330 C.3    16  THR16       0.1770
     47  OG1       36.0200  -14.3220   -9.6880 O.3    16  THR16      -0.2211
     48  CG2       34.0700  -14.0180   -8.3050 C.3    16  THR16       0.0375
     49  N         38.1790  -13.2320  -11.7810 N.3    19  HIS19      -0.1241
     50  CA        38.3800  -11.8940  -12.3740 C.3    19  HIS19       0.1621
     51  C         39.8280  -11.4290  -12.1600 C.2    19  HIS19       0.2264
     52  O         40.3300  -10.7630  -13.0060 O.2    19  HIS19      -0.2867
     53  CB        37.4390  -10.8630  -11.7780 C.3    19  HIS19       0.0745
     54  CG        36.0140  -11.1320  -11.9940 C.ar   19  HIS19       0.0817
     55  ND1       35.2170  -11.6160  -10.9840 N.ar   19  HIS19      -0.2268
     56  CD2       35.2330  -10.9600  -13.0760 C.ar   19  HIS19       0.1154
     57  CE1       33.9900  -11.7610  -11.4430 C.ar   19  HIS19       0.1986
     58  NE2       33.9670  -11.3220  -12.7100 N.ar   19  HIS19      -0.2212
     59  N         36.7010  -10.0180  -22.4940 N.3    89  ARG89      -0.1241
     60  CA        35.7500  -10.8170  -21.6870 C.3    89  ARG89       0.1606
     61  C         36.3950  -12.1650  -21.4160 C.2    89  ARG89       0.2264
     62  O         37.2750  -12.5790  -22.2120 O.2    89  ARG89      -0.2867
     63  CB        34.4140  -10.9630  -22.4250 C.3    89  ARG89       0.0562
     64  CG        33.8270   -9.6910  -23.0510 C.2    89  ARG89       0.0159
     65  CD        32.5210   -9.0730  -22.4980 C.2    89  ARG89       0.1886
     66  NE        31.8460   -9.7200  -21.3550 N.pl3  89  ARG89      -0.0578
     67  CZ        32.3570   -9.8480  -20.1140 C.cat  89  ARG89       0.5393
     68  NH1       33.5590   -9.3700  -19.8490 N.pl3  89  ARG89       0.1358
     69  NH2       31.6930  -10.4690  -19.1440 N.pl3  89  ARG89       0.1358
     70  N         33.9210  -18.9060  -19.9010 N.3    92  ARG92      -0.1245
     71  CA        34.0560  -19.9980  -18.9090 C.3    92  ARG92       0.1563
     72  C         33.3950  -21.2470  -19.4810 C.2    92  ARG92       0.2260
     73  O         33.9630  -22.3360  -19.3170 O.2    92  ARG92      -0.2867
     74  CB        33.4110  -19.5990  -17.5760 C.3    92  ARG92       0.0307
     75  CG        34.2260  -18.6590  -16.6910 C.3    92  ARG92       0.0489
     76  CD        33.7540  -18.7450  -15.2430 C.3    92  ARG92       0.2205
     77  NE        32.2920  -18.7600  -15.1830 N.pl3  92  ARG92      -0.0865
     78  CZ        31.5090  -19.8440  -15.0950 C.cat  92  ARG92       0.5346
     79  NH1       30.1970  -19.6810  -15.0890 N.pl3  92  ARG92       0.1354
     80  NH2       32.0070  -21.0730  -15.0110 N.pl3  92  ARG92       0.1354
     81  N         34.3690  -20.9940  -10.9130 N.3   128  ILE128     -0.1231
     82  CA        33.9870  -19.8070  -10.1010 C.3   128  ILE128      0.1692
     83  C         33.1810  -18.8200  -10.9560 C.2   128  ILE128      0.2593
     84  O         33.6950  -18.3930  -12.0140 O.2   128  ILE128     -0.2718
     85  CB        35.2300  -19.1570   -9.4990 C.3   128  ILE128      0.0266
     86  CG1       36.0220  -20.1350   -8.6270 C.3   128  ILE128      0.0019
     87  CG2       34.8460  -17.9100   -8.7360 C.3   128  ILE128      0.0020
     88  CD1       37.2910  -19.5170   -8.0060 C.3   128  ILE128      0.0001
     89  N         31.9960  -18.4070  -10.4770 N.am  129  SER129     -0.1938
     90  CA        31.2250  -17.2150  -10.9600 C.3   129  SER129      0.2055
     91  C         30.7760  -16.3040   -9.7890 C.2   129  SER129      0.2644
     92  O         30.4270  -16.8410   -8.7240 O.2   129  SER129     -0.2714
     93  CB        29.9850  -17.6470  -11.6830 C.3   129  SER129      0.2130
     94  OG        29.0220  -18.0090  -10.7040 O.3   129  SER129     -0.2179
     95  N         30.5710  -15.0100  -10.0220 N.am  130  SER130     -0.1935
     96  CA        30.0280  -14.1020   -8.9730 C.3   130  SER130      0.2055
     97  C         28.6970  -14.6850   -8.4210 C.2   130  SER130      0.2643
     98  O         28.5840  -14.8950   -7.1760 O.2   130  SER130     -0.2714
     99  CB        29.8990  -12.6920   -9.4960 C.3   130  SER130      0.2130
    100  OG        31.1640  -12.1220   -9.7880 O.3   130  SER130     -0.2179
    101  N         27.7730  -15.0940   -9.2960 N.am  131  THR131     -0.1950
    102  CA        26.4170  -15.6220   -8.9250 C.3   131  THR131      0.1897
    103  C         26.5100  -16.7840   -7.9450 C.2   131  THR131      0.2313
    104  O         25.7440  -16.8480   -6.9890 O.2   131  THR131     -0.2863
    105  CB        25.6270  -16.0480  -10.1680 C.3   131  THR131      0.1794
    106  OG1       25.5990  -14.8350  -10.9280 O.3   131  THR131     -0.2208
    107  CG2       24.2350  -16.5800   -9.8800 C.3   131  THR131      0.0378
@<TRIPOS>BOND
     1    64    65    2
     2    64    63    1
     3    65    66    1
     4    59    60    1
     5    63    60    1
     6    62    61    2
     7    60    61    1
     8    66    67    2
     9    18    19    1
    10    18    17    1
    11    19    13    1
    12    67    68    1
    13    67    69    1
    14    70    71    1
    15     1     2    1
    16    17    14    1
    17    72    73    2
    18    72    71    1
    19     2     3    1
    20     2     5    1
    21    13    14    1
    22    13     3   am
    23    71    74    1
    24    14    15    1
    25     3     4    2
    26     7     9   ar
    27     7     6   ar
    28    16    15    2
    29     5     6    1
    30    15    20   am
    31     9    11   ar
    32    74    75    1
    33     6     8   ar
    34    75    76    1
    35    20    21    1
    36    11    12    1
    37    11    10   ar
    38     8    10   ar
    39    21    22    1
    40    76    77    1
    41    77    78    2
    42    78    79    1
    43    78    80    1
    44    22    23    2
    45    22    24   am
    46    41    40   ar
    47    41    39   ar
    48    40    38   ar
    49    24    25    1
    50    30    28    1
    51    39    37   ar
    52    56    58   ar
    53    56    54   ar
    54    52    51    2
    55    38    36   ar
    56    25    28    1
    57    25    26    1
    58    58    57   ar
    59    28    29    1
    60    50    51    1
    61    50    49    1
    62    50    53    1
    63    84    83    2
    64    54    53    1
    65    54    55   ar
    66    37    36   ar
    67    36    35    1
    68    93    90    1
    69    93    94    1
    70    31    26   am
    71    31    32    1
    72    26    27    2
    73    57    55   ar
    74    90    89    1
    75    90    91    1
    76    83    89   am
    77    83    82    1
    78   106   105    1
    79    81    82    1
    80    35    32    1
    81    32    33    1
    82   105   107    1
    83   105   102    1
    84    82    85    1
    85    95    91   am
    86    95    96    1
    87    91    92    2
    88   100    99    1
    89    47    46    1
    90    85    87    1
    91    85    86    1
    92    99    96    1
    93   101   102    1
    94   101    97   am
    95    33    34    2
    96    96    97    1
    97   102   103    1
    98    45    44    2
    99    86    88    1
   100    97    98    2
   101    46    48    1
   102    46    43    1
   103    44    43    1
   104    42    43    1
   105   103   104    2
