@<TRIPOS>MOLECULE
tmp/6j3wC01.pdb
 78 78 0 0 0
SMALL
GASTEIGER

@<TRIPOS>ATOM
      1  N         33.4410   35.5800   57.0600 N.3    61  TRP61      -0.1241
      2  CA        32.0510   35.9160   57.4750 C.3    61  TRP61       0.1605
      3  C         31.6980   37.3820   57.1560 C.2    61  TRP61       0.2264
      4  O         32.6220   38.2060   57.0440 O.2    61  TRP61      -0.2867
      5  CB        31.8900   35.6300   58.9770 C.3    61  TRP61       0.0550
      6  CG        31.8250   34.1780   59.3120 C.ar   61  TRP61       0.0003
      7  CD1       31.9640   33.1210   58.4640 C.ar   61  TRP61       0.0946
      8  CD2       31.5620   33.6220   60.6100 C.ar   61  TRP61       0.0152
      9  NE1       31.8220   31.9440   59.1480 N.ar   61  TRP61      -0.2442
     10  CE2       31.5770   32.2170   60.4660 C.ar   61  TRP61       0.0810
     11  CE3       31.3260   34.1700   61.8770 C.ar   61  TRP61       0.0012
     12  CZ2       31.3470   31.3570   61.5410 C.ar   61  TRP61       0.0191
     13  CZ3       31.1240   33.3170   62.9400 C.ar   61  TRP61       0.0001
     14  CH2       31.1160   31.9320   62.7690 C.ar   61  TRP61       0.0015
     15  N         20.5430   38.7260   62.5290 N.3    85  LYS85      -0.1245
     16  CA        20.8570   37.3150   62.8770 C.3    85  LYS85       0.1561
     17  C         22.3720   37.1690   63.0400 C.2    85  LYS85       0.2260
     18  O         23.1250   37.5860   62.1330 O.2    85  LYS85      -0.2867
     19  CB        20.3260   36.3520   61.8210 C.3    85  LYS85       0.0271
     20  CG        20.4500   34.8910   62.2160 C.3    85  LYS85       0.0035
     21  CD        19.6830   33.9200   61.3240 C.3    85  LYS85       0.0206
     22  CE        20.1640   33.8010   59.8980 C.3    85  LYS85       0.1093
     23  NZ        21.6240   33.5780   59.8400 N.3    85  LYS85      -0.1314
     24  N         25.8650   34.6430   64.0270 N.3    87  ALA87      -0.1231
     25  CA        26.4750   33.3390   63.6840 C.3    87  ALA87       0.1694
     26  C         27.3200   32.9170   64.8850 C.2    87  ALA87       0.2592
     27  O         28.5240   33.2540   64.9060 O.2    87  ALA87      -0.2718
     28  CB        27.3110   33.4720   62.4320 C.3    87  ALA87       0.0304
     29  N         26.6800   32.2640   65.8660 N.am   88  HIS88      -0.1962
     30  CA        27.2780   32.0160   67.1990 C.3    88  HIS88       0.1787
     31  C         26.7840   30.6990   67.8170 C.2    88  HIS88       0.2620
     32  O         27.4380   30.2520   68.7890 O.2    88  HIS88      -0.2715
     33  CB        27.0050   33.2150   68.1230 C.3    88  HIS88       0.0785
     34  CG        25.5540   33.5190   68.2580 C.ar   88  HIS88       0.0821
     35  ND1       24.7270   32.8250   69.1120 N.ar   88  HIS88      -0.2267
     36  CD2       24.7900   34.4370   67.6420 C.ar   88  HIS88       0.1154
     37  CE1       23.5050   33.2740   68.9810 C.ar   88  HIS88       0.1986
     38  NE2       23.5110   34.2740   68.0810 N.ar   88  HIS88      -0.2212
     39  N         25.6680   30.1340   67.3600 N.am   89  ALA89      -0.1963
     40  CA        25.0480   28.9550   68.0130 C.3    89  ALA89       0.1728
     41  C         24.4720   27.9440   67.0050 C.2    89  ALA89       0.2617
     42  O         23.6520   27.1050   67.4320 O.2    89  ALA89      -0.2715
     43  CB        23.9910   29.4690   68.9720 C.3    89  ALA89       0.0334
     44  N         24.8640   27.9930   65.7320 N.am   90  GLY90      -0.1941
     45  CA        24.3700   27.0750   64.6920 C.3    90  GLY90       0.1998
     46  C         22.9870   27.4500   64.1450 C.2    90  GLY90       0.2480
     47  O         22.3270   28.3360   64.6570 O.2    90  GLY90      -0.2729
     48  N         22.5120   26.7460   63.0890 N.am   91  PRO91      -0.2726
     49  CA        21.3880   27.1970   62.2660 C.3    91  PRO91       0.1402
     50  C         19.9980   27.0960   62.8980 C.2    91  PRO91       0.2269
     51  O         19.0620   27.6690   62.3460 O.2    91  PRO91      -0.2865
     52  CB        21.4540   26.2770   61.0340 C.3    91  PRO91       0.0296
     53  CG        22.1170   25.0000   61.5480 C.3    91  PRO91       0.0237
     54  CD        23.1060   25.4980   62.5780 C.3    91  PRO91       0.0939
     55  N         20.6760   30.3760   65.9060 N.3    94  ASN94      -0.1226
     56  CA        21.0440   31.7180   65.3730 C.3    94  ASN94       0.1770
     57  C         19.7940   32.5370   65.0630 C.2    94  ASN94       0.2439
     58  O         19.7040   33.6900   65.4730 O.2    94  ASN94      -0.2733
     59  CB        21.9160   31.6040   64.1230 C.3    94  ASN94       0.1168
     60  CG        23.3360   31.2300   64.4450 C.2    94  ASN94       0.2627
     61  OD1       23.7980   31.4350   65.5590 O.2    94  ASN94      -0.2716
     62  ND2       24.0190   30.6970   63.4490 N.am   94  ASN94      -0.0877
     63  N         18.8200   32.0030   64.2880 N.am   95  PRO95      -0.2729
     64  CA        17.6760   32.7980   63.8540 C.3    95  PRO95       0.1401
     65  C         16.6680   33.1430   64.9490 C.2    95  PRO95       0.2269
     66  O         15.8170   33.9310   64.6540 O.2    95  PRO95      -0.2865
     67  CB        16.9580   31.9320   62.8070 C.3    95  PRO95       0.0296
     68  CG        17.4410   30.5170   63.0650 C.3    95  PRO95       0.0237
     69  CD        18.8190   30.6630   63.6750 C.3    95  PRO95       0.0939
     70  N         25.2110   23.5380   71.5110 N.3   145  GLN145     -0.1245
     71  CA        26.3170   23.1770   70.5960 C.3   145  GLN145      0.1566
     72  C         27.4170   22.4990   71.4070 C.2   145  GLN145      0.2260
     73  O         27.6700   22.8950   72.5410 O.2   145  GLN145     -0.2867
     74  CB        26.9490   24.4090   69.9380 C.3   145  GLN145      0.0367
     75  CG        26.0020   25.2590   69.1100 C.3   145  GLN145      0.0905
     76  CD        26.5630   25.4570   67.7290 C.2   145  GLN145      0.2608
     77  OE1       26.1600   24.7360   66.8240 O.2   145  GLN145     -0.2717
     78  NE2       27.5610   26.3330   67.5940 N.am  145  GLN145     -0.0878
@<TRIPOS>BOND
     1     4     3    2
     2     1     2    1
     3     3     2    1
     4     2     5    1
     5     7     9   ar
     6     7     6   ar
     7     5     6    1
     8     9    10   ar
     9     6     8   ar
    10    23    22    1
    11    22    21    1
    12    10     8   ar
    13    10    12   ar
    14     8    11   ar
    15    52    53    1
    16    52    49    1
    17    21    20    1
    18    12    14   ar
    19    53    54    1
    20    19    20    1
    21    19    16    1
    22    11    13   ar
    23    18    17    2
    24    49    50    1
    25    49    48    1
    26    51    50    2
    27    28    25    1
    28    15    16    1
    29    54    48    1
    30    14    13   ar
    31    67    68    1
    32    67    64    1
    33    16    17    1
    34    68    69    1
    35    48    46   am
    36    62    60   am
    37    69    63    1
    38    25    24    1
    39    25    26    1
    40    64    63    1
    41    64    65    1
    42    59    60    1
    43    59    56    1
    44    46    47    2
    45    46    45    1
    46    63    57   am
    47    60    61    2
    48    66    65    2
    49    45    44    1
    50    26    27    2
    51    26    29   am
    52    57    56    1
    53    57    58    2
    54    56    55    1
    55    44    41   am
    56    29    30    1
    57    77    76    2
    58    41    42    2
    59    41    40    1
    60    30    31    1
    61    30    33    1
    62    39    31   am
    63    39    40    1
    64    78    76   am
    65    36    38   ar
    66    36    34   ar
    67    76    75    1
    68    31    32    2
    69    40    43    1
    70    38    37   ar
    71    33    34    1
    72    34    35   ar
    73    37    35   ar
    74    75    74    1
    75    74    71    1
    76    71    72    1
    77    71    70    1
    78    72    73    2
