@<TRIPOS>MOLECULE
tmp/6j47A00.pdb
 144 132 0 0 0
SMALL
GASTEIGER

@<TRIPOS>ATOM
      1  N         15.0820  -22.1570    5.2410 N.3    93  VAL93      -0.1245
      2  CA        14.7090  -23.0030    4.1130 C.3    93  VAL93       0.1561
      3  C         13.3820  -23.6710    4.4230 C.2    93  VAL93       0.2260
      4  O         13.1910  -24.2260    5.5130 O.2    93  VAL93      -0.2867
      5  CB        15.7990  -24.0480    3.8360 C.3    93  VAL93       0.0252
      6  CG1       15.3740  -24.9820    2.7130 C.3    93  VAL93       0.0019
      7  CG2       17.1000  -23.3650    3.4930 C.3    93  VAL93       0.0019
      8  N         10.9170  -27.2130   -2.2080 N.3   110  ILE110     -0.1245
      9  CA        11.8940  -26.6300   -1.3040 C.3   110  ILE110      0.1561
     10  C         12.0820  -25.1800   -1.7180 C.2   110  ILE110      0.2260
     11  O         12.4610  -24.9060   -2.8650 O.2   110  ILE110     -0.2867
     12  CB        13.2260  -27.3900   -1.3430 C.3   110  ILE110      0.0252
     13  CG1       12.9950  -28.8670   -1.0300 C.3   110  ILE110      0.0019
     14  CG2       14.2350  -26.7380   -0.4140 C.3   110  ILE110      0.0019
     15  CD1       14.1930  -29.7110   -1.2140 C.3   110  ILE110      0.0001
     16  N         14.3130  -21.8880   -1.0360 N.3   112  ARG112     -0.1245
     17  CA        15.6080  -21.5600   -0.4610 C.3   112  ARG112      0.1563
     18  C         15.5540  -20.2450    0.3110 C.2   112  ARG112      0.2260
     19  O         14.6010  -19.4700    0.2190 O.2   112  ARG112     -0.2867
     20  CB        16.6720  -21.4630   -1.5570 C.3   112  ARG112      0.0307
     21  CG        17.0430  -22.7900   -2.1770 C.3   112  ARG112      0.0489
     22  CD        18.4360  -22.7440   -2.7910 C.3   112  ARG112      0.2205
     23  NE        18.7070  -23.9650   -3.5320 N.pl3 112  ARG112     -0.0865
     24  CZ        18.2760  -24.2010   -4.7660 C.cat 112  ARG112      0.5346
     25  NH1       17.5530  -23.2910   -5.4120 N.pl3 112  ARG112      0.1354
     26  NH2       18.5800  -25.3450   -5.3570 N.pl3 112  ARG112      0.1354
     27  N         13.2950  -25.5510   -5.4560 N.3   118  LEU118     -0.1245
     28  CA        13.2750  -26.8410   -6.1400 C.3   118  LEU118      0.1561
     29  C         11.8700  -27.4190   -6.0260 C.2   118  LEU118      0.2260
     30  O         11.2910  -27.4390   -4.9290 O.2   118  LEU118     -0.2867
     31  CB        14.3000  -27.8020   -5.5370 C.3   118  LEU118      0.0270
     32  CG        15.7640  -27.5830   -5.9040 C.3   118  LEU118      0.0019
     33  CD1       16.6110  -28.3720   -4.9390 C.3   118  LEU118      0.0001
     34  CD2       16.0730  -28.0220   -7.3400 C.3   118  LEU118      0.0001
     35  N         13.8190  -26.4760  -11.2070 N.3   133  GLU133     -0.1245
     36  CA        14.4640  -25.4910  -10.3540 C.3   133  GLU133      0.1567
     37  C         14.0870  -24.1000  -10.8320 C.2   133  GLU133      0.2260
     38  O         14.2540  -23.7800  -12.0130 O.2   133  GLU133     -0.2867
     39  CB        15.9900  -25.6450  -10.3350 C.3   133  GLU133      0.0388
     40  CG        16.6050  -24.7940   -9.2240 C.3   133  GLU133      0.1160
     41  CD        18.0880  -25.0340   -9.0200 C.2   133  GLU133      0.3649
     42  OE1       18.7490  -25.4950   -9.9680 O.co2 133  GLU133     -0.2457
     43  OE2       18.5830  -24.7560   -7.9030 O.co2 133  GLU133     -0.2457
     44  N         14.8090  -20.2730  -10.6550 N.3   135  LEU135     -0.1245
     45  CA        15.8660  -19.3280  -10.3500 C.3   135  LEU135      0.1561
     46  C         15.4160  -17.9300  -10.7530 C.2   135  LEU135      0.2260
     47  O         14.3290  -17.7340  -11.3010 O.2   135  LEU135     -0.2867
     48  CB        17.1650  -19.7280  -11.0660 C.3   135  LEU135      0.0270
     49  CG        17.4880  -21.1670  -10.6540 C.3   135  LEU135      0.0019
     50  CD1       18.2350  -21.9240  -11.7260 C.3   135  LEU135      0.0001
     51  CD2       18.2530  -21.1840   -9.3180 C.3   135  LEU135      0.0001
     52  N         14.7630  -17.4210  -14.8320 N.3   138  TYR138     -0.1241
     53  CA        14.5940  -18.5930  -15.6790 C.3   138  TYR138      0.1605
     54  C         14.3930  -19.8190  -14.8100 C.2   138  TYR138      0.2264
     55  O         14.7000  -19.8250  -13.6160 O.2   138  TYR138     -0.2867
     56  CB        15.7920  -18.8230  -16.6060 C.3   138  TYR138      0.0534
     57  CG        17.1000  -18.9860  -15.8760 C.ar  138  TYR138     -0.0201
     58  CD1       17.8480  -17.8810  -15.5000 C.ar  138  TYR138     -0.0009
     59  CD2       17.5910  -20.2520  -15.5460 C.ar  138  TYR138     -0.0009
     60  CE1       19.0540  -18.0280  -14.8140 C.ar  138  TYR138      0.0417
     61  CE2       18.7920  -20.4000  -14.8650 C.ar  138  TYR138      0.0417
     62  CZ        19.5210  -19.2880  -14.5070 C.ar  138  TYR138      0.1957
     63  OH        20.7240  -19.4270  -13.8320 O.3   138  TYR138     -0.2866
     64  N         23.0270  -30.4130  -14.3670 N.3   162  LYS162     -0.1245
     65  CA        23.3400  -29.9500  -13.0240 C.3   162  LYS162      0.1561
     66  C         22.7690  -30.9760  -12.0590 C.2   162  LYS162      0.2260
     67  O         21.5510  -31.1680  -12.0130 O.2   162  LYS162     -0.2867
     68  CB        22.7360  -28.5690  -12.7640 C.3   162  LYS162      0.0271
     69  CG        22.9040  -28.0710  -11.3350 C.3   162  LYS162      0.0035
     70  CD        21.7320  -27.1910  -10.9220 C.3   162  LYS162      0.0206
     71  CE        22.1540  -25.7690  -10.6310 C.3   162  LYS162      0.1093
     72  NZ        21.5410  -25.2260   -9.3780 N.3   162  LYS162     -0.1314
     73  N         22.1120  -32.6200   -8.2910 N.3   164  ILE164     -0.1245
     74  CA        22.0480  -32.3130   -6.8590 C.3   164  ILE164      0.1561
     75  C         21.8420  -33.6180   -6.1000 C.2   164  ILE164      0.2260
     76  O         20.8320  -34.2990   -6.2940 O.2   164  ILE164     -0.2867
     77  CB        20.9390  -31.3060   -6.5330 C.3   164  ILE164      0.0252
     78  CG1       21.1050  -30.0380   -7.3740 C.3   164  ILE164      0.0019
     79  CG2       20.9220  -30.9810   -5.0160 C.3   164  ILE164      0.0019
     80  CD1       19.8630  -29.1420   -7.3700 C.3   164  ILE164      0.0001
     81  N         22.4760  -32.4340   -1.0080 N.3   168  GLY168     -0.1225
     82  CA        22.5550  -31.0660   -1.4810 C.3   168  GLY168      0.1811
     83  C         23.8410  -30.6910   -2.1880 C.2   168  GLY168      0.2280
     84  O         23.9990  -29.5240   -2.5760 O.2   168  GLY168     -0.2866
     85  N         26.4290  -30.3430   -5.2720 N.3   170  VAL170     -0.1245
     86  CA        26.2060  -30.0210   -6.6790 C.3   170  VAL170      0.1561
     87  C         27.3800  -30.5340   -7.5000 C.2   170  VAL170      0.2260
     88  O         28.5470  -30.3250   -7.1420 O.2   170  VAL170     -0.2867
     89  CB        26.0220  -28.5080   -6.8940 C.3   170  VAL170      0.0252
     90  CG1       25.9810  -28.1850   -8.3880 C.3   170  VAL170      0.0019
     91  CG2       24.7580  -28.0210   -6.2110 C.3   170  VAL170      0.0019
     92  N         33.1090  -24.5070   -7.4520 N.3   194  SER194     -0.1217
     93  CA        31.7740  -24.4930   -8.0720 C.3   194  SER194      0.1889
     94  C         31.8440  -24.0540   -9.5290 C.2   194  SER194      0.2288
     95  O         30.9560  -23.3620  -10.0300 O.2   194  SER194     -0.2866
     96  CB        30.8090  -23.6150   -7.2780 C.3   194  SER194      0.2089
     97  OG        29.4630  -24.0000   -7.5340 O.3   194  SER194     -0.2183
     98  N         28.8150  -21.6950  -10.6920 N.3   210  PHE210     -0.1227
     99  CA        27.4860  -21.8850  -10.1200 C.3   210  PHE210      0.1736
    100  C         27.5530  -21.3290   -8.7000 C.2   210  PHE210      0.2596
    101  O         28.0510  -21.9930   -7.7900 O.2   210  PHE210     -0.2718
    102  CB        27.1130  -23.3630  -10.1560 C.3   210  PHE210      0.0547
    103  CG        26.7840  -23.8620  -11.5270 C.ar  210  PHE210     -0.0202
    104  CD1       27.7750  -23.9770  -12.5020 C.ar  210  PHE210     -0.0042
    105  CD2       25.4770  -24.2050  -11.8570 C.ar  210  PHE210     -0.0042
    106  CE1       27.4740  -24.4190  -13.7770 C.ar  210  PHE210     -0.0003
    107  CE2       25.1700  -24.6550  -13.1360 C.ar  210  PHE210     -0.0003
    108  CZ        26.1710  -24.7580  -14.1000 C.ar  210  PHE210     -0.0000
    109  N         27.0510  -20.1090   -8.5210 N.am  211  THR211     -0.1939
    110  CA        27.4090  -19.3000   -7.3700 C.3   211  THR211      0.2028
    111  C         26.5470  -19.6340   -6.1590 C.2   211  THR211      0.2642
    112  O         25.4490  -20.1970   -6.2630 O.2   211  THR211     -0.2714
    113  CB        27.2690  -17.8060   -7.6780 C.3   211  THR211      0.1808
    114  OG1       25.8880  -17.4370   -7.6330 O.3   211  THR211     -0.2208
    115  CG2       27.8440  -17.4750   -9.0770 C.3   211  THR211      0.0379
    116  N         27.0600  -19.2440   -4.9930 N.am  212  SER212     -0.1949
    117  CA        26.3010  -19.3550   -3.7530 C.3   212  SER212      0.1924
    118  C         24.9990  -18.5650   -3.7870 C.2   212  SER212      0.2314
    119  O         24.1300  -18.7840   -2.9340 O.2   212  SER212     -0.2863
    120  CB        27.1560  -18.8570   -2.5920 C.3   212  SER212      0.2116
    121  OG        27.4540  -17.4870   -2.7930 O.3   212  SER212     -0.2180
    122  N         22.8270  -18.8230   -6.0650 N.3   214  ASN214     -0.1225
    123  CA        21.9840  -19.5650   -7.0010 C.3   214  ASN214      0.1785
    124  C         21.8960  -18.8450   -8.3410 C.2   214  ASN214      0.2598
    125  O         20.8290  -18.7750   -8.9540 O.2   214  ASN214     -0.2718
    126  CB        20.5900  -19.8140   -6.4230 C.3   214  ASN214      0.1169
    127  CG        20.6360  -20.5520   -5.0960 C.2   214  ASN214      0.2627
    128  OD1       21.1610  -21.6650   -5.0020 O.2   214  ASN214     -0.2716
    129  ND2       20.1050  -19.9250   -4.0620 N.am  214  ASN214     -0.0877
    130  N         23.0260  -18.2980   -8.7980 N.am  215  THR215     -0.1939
    131  CA        23.1590  -17.7370  -10.1390 C.3   215  THR215      0.2028
    132  C         24.2650  -18.4700  -10.8900 C.2   215  THR215      0.2642
    133  O         25.0270  -19.2470  -10.3180 O.2   215  THR215     -0.2714
    134  CB        23.4510  -16.2220  -10.1020 C.3   215  THR215      0.1808
    135  OG1       24.7460  -15.9720   -9.5240 O.3   215  THR215     -0.2208
    136  CG2       22.3760  -15.4900   -9.2960 C.3   215  THR215      0.0379
    137  N         24.3270  -18.2520  -12.1970 N.am  216  ILE216     -0.1977
    138  CA        25.4130  -18.7810  -13.0120 C.3   216  ILE216      0.1596
    139  C         26.1390  -17.6040  -13.6320 C.2   216  ILE216      0.2287
    140  O         25.5050  -16.6640  -14.1250 O.2   216  ILE216     -0.2864
    141  CB        24.9030  -19.7530  -14.1010 C.3   216  ILE216      0.0276
    142  CG1       24.2270  -20.9700  -13.4590 C.3   216  ILE216      0.0022
    143  CG2       26.0490  -20.1810  -15.0430 C.3   216  ILE216      0.0022
    144  CD1       23.4220  -21.8300  -14.4460 C.3   216  ILE216      0.0001
@<TRIPOS>BOND
     1    56    57    1
     2    56    53    1
     3    57    59   ar
     4    57    58   ar
     5    53    52    1
     6    53    54    1
     7    59    61   ar
     8    58    60   ar
     9   143   141    1
    10    61    62   ar
    11    60    62   ar
    12    54    55    2
    13    62    63    1
    14   144   142    1
    15    64    65    1
    16   140   139    2
    17   141   142    1
    18   141   138    1
    19   108   106   ar
    20   108   107   ar
    21   106   104   ar
    22   139   138    1
    23   107   105   ar
    24    65    68    1
    25    65    66    1
    26   138   137    1
    27    68    69    1
    28   104   103   ar
    29   137   132   am
    30    66    67    2
    31    38    37    2
    32   105   103   ar
    33    50    49    1
    34   103   102    1
    35    69    70    1
    36    47    46    2
    37    35    36    1
    38    48    49    1
    39    48    45    1
    40    70    71    1
    41   132   133    2
    42   132   131    1
    43    37    36    1
    44    46    45    1
    45    98    99    1
    46    44    45    1
    47    49    51    1
    48    71    72    1
    49    36    39    1
    50    39    40    1
    51   102    99    1
    52   131   134    1
    53   131   130    1
    54    99   100    1
    55   134   135    1
    56   134   136    1
    57    95    94    2
    58    42    41   ar
    59    94    93    1
    60    40    41    1
    61   115   113    1
    62    41    43   ar
    63   125   124    2
    64   130   124   am
    65   100   109   am
    66   100   101    2
    67   109   110    1
    68    90    89    1
    69   124   123    1
    70    73    74    1
    71    93    92    1
    72    93    96    1
    73   113   114    1
    74   113   110    1
    75    97    96    1
    76    87    88    2
    77    87    86    1
    78    78    80    1
    79    78    77    1
    80   110   111    1
    81    34    32    1
    82   123   126    1
    83   123   122    1
    84    89    86    1
    85    89    91    1
    86    74    77    1
    87    74    75    1
    88    86    85    1
    89    77    79    1
    90   126   127    1
    91    76    75    2
    92   112   111    2
    93   111   116   am
    94    28    29    1
    95    28    31    1
    96    28    27    1
    97    29    30    2
    98    32    31    1
    99    32    33    1
   100    25    24    1
   101    26    24    1
   102   127   128    2
   103   127   129   am
   104   116   117    1
   105    24    23    2
   106   118   117    1
   107   118   119    2
   108   117   120    1
   109    23    22    1
   110    11    10    2
   111   121   120    1
   112    22    21    1
   113    84    83    2
   114     8     9    1
   115    83    82    1
   116    21    20    1
   117    10     9    1
   118    20    17    1
   119    82    81    1
   120    12     9    1
   121    12    13    1
   122    12    14    1
   123    15    13    1
   124    16    17    1
   125    17    18    1
   126    19    18    2
   127     6     5    1
   128     7     5    1
   129     5     2    1
   130     2     3    1
   131     2     1    1
   132     3     4    2
