@<TRIPOS>MOLECULE
tmp/6j47A02.pdb
 76 70 0 0 0
SMALL
GASTEIGER

@<TRIPOS>ATOM
      1  N         21.3470  -27.7080  -25.9260 N.3   155  GLU155     -0.1231
      2  CA        21.6200  -26.7270  -26.9710 C.3   155  GLU155      0.1699
      3  C         22.2830  -27.4990  -28.1050 C.2   155  GLU155      0.2593
      4  O         23.4520  -27.8610  -28.0040 O.2   155  GLU155     -0.2718
      5  CB        22.4960  -25.5870  -26.4680 C.3   155  GLU155      0.0402
      6  CG        22.9960  -24.6360  -27.5630 C.3   155  GLU155      0.1161
      7  CD        21.8760  -23.9510  -28.3260 C.2   155  GLU155      0.3649
      8  OE1       20.8090  -23.6990  -27.7140 O.co2 155  GLU155     -0.2457
      9  OE2       22.0750  -23.6390  -29.5340 O.co2 155  GLU155     -0.2457
     10  N         21.5110  -27.7860  -29.1470 N.am  156  GLY156     -0.1942
     11  CA        22.0320  -28.6130  -30.2160 C.3   156  GLY156      0.2014
     12  C         22.4310  -29.9670  -29.6790 C.2   156  GLY156      0.2640
     13  O         21.6750  -30.6100  -28.9460 O.2   156  GLY156     -0.2714
     14  N         23.6580  -30.3860  -30.0080 N.am  157  THR157     -0.1936
     15  CA        24.2050  -31.6620  -29.5540 C.3   157  THR157      0.2028
     16  C         24.6750  -31.6500  -28.0970 C.2   157  THR157      0.2642
     17  O         25.0580  -32.7040  -27.5800 O.2   157  THR157     -0.2714
     18  CB        25.3860  -32.0550  -30.4340 C.3   157  THR157      0.1808
     19  OG1       26.3660  -31.0140  -30.3750 O.3   157  THR157     -0.2208
     20  CG2       24.9330  -32.2310  -31.8950 C.3   157  THR157      0.0379
     21  N         24.6590  -30.5160  -27.4300 N.am  158  VAL158     -0.1977
     22  CA        25.2430  -30.3920  -26.0930 C.3   158  VAL158      0.1596
     23  C         24.1490  -30.5090  -25.0470 C.2   158  VAL158      0.2287
     24  O         23.0860  -29.8930  -25.1780 O.2   158  VAL158     -0.2864
     25  CB        25.9950  -29.0570  -25.9350 C.3   158  VAL158      0.0276
     26  CG1       26.4120  -28.8330  -24.4620 C.3   158  VAL158      0.0022
     27  CG2       27.2050  -29.0180  -26.8390 C.3   158  VAL158      0.0022
     28  N         28.3440  -34.0210  -25.0610 N.3   176  ASP176     -0.1239
     29  CA        28.2340  -33.4970  -26.4140 C.3   176  ASP176      0.1674
     30  C         28.2690  -34.6650  -27.3850 C.2   176  ASP176      0.2266
     31  O         29.2400  -35.4270  -27.4010 O.2   176  ASP176     -0.2867
     32  CB        29.3690  -32.5170  -26.7260 C.3   176  ASP176      0.1410
     33  CG        29.1140  -31.7100  -27.9840 C.2   176  ASP176      0.3668
     34  OD1       28.1520  -32.0240  -28.7130 O.co2 176  ASP176     -0.2456
     35  OD2       29.8720  -30.7490  -28.2330 O.co2 176  ASP176     -0.2456
     36  N         28.3620  -34.2020  -30.5400 N.3   178  ASP178     -0.1239
     37  CA        29.1500  -33.7490  -31.6800 C.3   178  ASP178      0.1674
     38  C         30.2500  -34.7560  -31.9800 C.2   178  ASP178      0.2266
     39  O         30.9800  -35.1830  -31.0810 O.2   178  ASP178     -0.2867
     40  CB        29.7450  -32.3710  -31.3660 C.3   178  ASP178      0.1410
     41  CG        30.3210  -31.6640  -32.5850 C.2   178  ASP178      0.3668
     42  OD1       30.4140  -32.2760  -33.6760 O.co2 178  ASP178     -0.2456
     43  OD2       30.6850  -30.4720  -32.4350 O.co2 178  ASP178     -0.2456
     44  N         35.2010  -29.5300  -32.7580 N.3   183  THR183     -0.1218
     45  CA        34.1370  -28.7500  -32.1370 C.3   183  THR183      0.1862
     46  C         33.4760  -29.4170  -30.9420 C.2   183  THR183      0.2287
     47  O         32.7140  -28.7450  -30.2380 O.2   183  THR183     -0.2866
     48  CB        33.0360  -28.3950  -33.1560 C.3   183  THR183      0.1770
     49  OG1       32.6520  -29.5610  -33.8900 O.3   183  THR183     -0.2211
     50  CG2       33.5140  -27.3200  -34.1140 C.3   183  THR183      0.0375
     51  N         32.5500  -30.4680  -27.3750 N.3   185  LYS185     -0.1245
     52  CA        32.8470  -29.9140  -26.0580 C.3   185  LYS185      0.1561
     53  C         32.9980  -31.0330  -25.0440 C.2   185  LYS185      0.2260
     54  O         32.2710  -32.0320  -25.0850 O.2   185  LYS185     -0.2867
     55  CB        31.7370  -28.9660  -25.5860 C.3   185  LYS185      0.0271
     56  CG        31.6830  -27.6290  -26.2910 C.3   185  LYS185      0.0035
     57  CD        30.6400  -27.6620  -27.4030 C.3   185  LYS185      0.0206
     58  CE        30.6370  -26.3710  -28.2060 C.3   185  LYS185      0.1093
     59  NZ        30.7480  -26.6600  -29.6640 N.3   185  LYS185     -0.1314
     60  N         26.7190  -22.6830  -24.4970 N.3   245  LEU245     -0.1231
     61  CA        26.8930  -24.0830  -24.8560 C.3   245  LEU245      0.1693
     62  C         27.0820  -24.2840  -26.3580 C.2   245  LEU245      0.2591
     63  O         27.2010  -25.4300  -26.8060 O.2   245  LEU245     -0.2718
     64  CB        25.6820  -24.9060  -24.3870 C.3   245  LEU245      0.0284
     65  CG        25.4400  -24.9540  -22.8680 C.3   245  LEU245      0.0019
     66  CD1       24.1880  -25.7480  -22.5490 C.3   245  LEU245      0.0001
     67  CD2       26.6550  -25.5380  -22.1220 C.3   245  LEU245      0.0001
     68  N         27.0890  -23.2140  -27.1450 N.am  246  LYS246     -0.1980
     69  CA        27.2560  -23.3550  -28.5940 C.3   246  LYS246      0.1596
     70  C         28.7180  -23.5690  -28.9620 C.2   246  LYS246      0.2287
     71  O         29.6080  -23.0740  -28.2610 O.2   246  LYS246     -0.2864
     72  CB        26.7270  -22.1240  -29.3290 C.3   246  LYS246      0.0298
     73  CG        25.2490  -21.8970  -29.2320 C.3   246  LYS246      0.0038
     74  CD        24.8470  -20.6580  -30.0240 C.3   246  LYS246      0.0206
     75  CE        23.3870  -20.3290  -29.8320 C.3   246  LYS246      0.1093
     76  NZ        22.8400  -19.6250  -31.0230 N.3   246  LYS246     -0.1314
@<TRIPOS>BOND
     1    50    48    1
     2    49    48    1
     3    42    41   ar
     4    48    45    1
     5    44    45    1
     6    41    43   ar
     7    41    40    1
     8    45    46    1
     9    38    37    1
    10    38    39    2
    11    20    18    1
    12    37    40    1
    13    37    36    1
    14    76    75    1
    15    46    47    2
    16    18    19    1
    17    18    15    1
    18    11    12    1
    19    11    10    1
    20    74    75    1
    21    74    73    1
    22    14    12   am
    23    14    15    1
    24    12    13    2
    25    59    58    1
    26    15    16    1
    27     9     7   ar
    28    72    73    1
    29    72    69    1
    30    10     3   am
    31    70    69    1
    32    70    71    2
    33    34    33   ar
    34    69    68    1
    35     7     8   ar
    36     7     6    1
    37    35    33   ar
    38    58    57    1
    39     3     4    2
    40     3     2    1
    41    16    17    2
    42    16    21   am
    43    33    32    1
    44     6     5    1
    45    21    22    1
    46    57    56    1
    47    31    30    2
    48    30    29    1
    49    51    52    1
    50    68    62   am
    51     2     5    1
    52     2     1    1
    53    27    25    1
    54    63    62    2
    55    32    29    1
    56    29    28    1
    57    62    61    1
    58    56    55    1
    59    22    25    1
    60    22    23    1
    61    52    55    1
    62    52    53    1
    63    25    26    1
    64    24    23    2
    65    54    53    2
    66    61    60    1
    67    61    64    1
    68    64    65    1
    69    65    66    1
    70    65    67    1
