@<TRIPOS>MOLECULE
tmp/6j49A00.pdb
 85 75 0 0 0
SMALL
GASTEIGER

@<TRIPOS>ATOM
      1  N          5.4600   -0.7330   -4.0660 N.3    95  ALA95      -0.1245
      2  CA         5.8200   -1.9740   -3.3730 C.3    95  ALA95       0.1562
      3  C          7.3290   -2.1470   -3.4860 C.2    95  ALA95       0.2260
      4  O          7.8480   -2.3350   -4.5910 O.2    95  ALA95      -0.2867
      5  CB         5.0920   -3.1840   -3.9580 C.3    95  ALA95       0.0290
      6  N         10.9690  -13.8140   -0.9130 N.3   105  VAL105     -0.1245
      7  CA        10.6540  -12.5100   -0.3420 C.3   105  VAL105      0.1561
      8  C         11.0100  -12.5260    1.1330 C.2   105  VAL105      0.2260
      9  O         10.6060  -13.4330    1.8710 O.2   105  VAL105     -0.2867
     10  CB         9.1710  -12.1730   -0.5490 C.3   105  VAL105      0.0252
     11  CG1        8.8020  -10.9120    0.2170 C.3   105  VAL105      0.0019
     12  CG2        8.8670  -11.9850   -2.0320 C.3   105  VAL105      0.0019
     13  N          8.8690   -6.5170    2.6080 N.3   108  LYS108     -0.1245
     14  CA         7.9830   -5.8340    1.6680 C.3   108  LYS108      0.1561
     15  C          7.4850   -4.5740    2.3480 C.2   108  LYS108      0.2260
     16  O          6.8310   -4.6630    3.3930 O.2   108  LYS108     -0.2867
     17  CB         6.8040   -6.7170    1.2470 C.3   108  LYS108      0.0271
     18  CG         5.9000   -6.0670    0.2030 C.3   108  LYS108      0.0035
     19  CD         4.5440   -6.7450    0.1500 C.3   108  LYS108      0.0206
     20  CE         4.6340   -8.1290   -0.4320 C.3   108  LYS108      0.1093
     21  NZ         3.2900   -8.7680   -0.4290 N.3   108  LYS108     -0.1314
     22  N          5.0690   -1.3760    1.6070 N.3   110  ILE110     -0.1245
     23  CA         4.0470   -0.7840    0.7440 C.3   110  ILE110      0.1561
     24  C          3.8650    0.6660    1.1560 C.2   110  ILE110      0.2260
     25  O          3.5350    0.9420    2.3140 O.2   110  ILE110     -0.2867
     26  CB         2.7090   -1.5300    0.8590 C.3   110  ILE110      0.0252
     27  CG1        2.8810   -3.0270    0.5890 C.3   110  ILE110      0.0019
     28  CG2        1.6870   -0.9140   -0.0740 C.3   110  ILE110      0.0019
     29  CD1        3.3660   -3.3320   -0.7830 C.3   110  ILE110      0.0001
     30  N          2.6220    0.1870    4.9740 N.3   118  LEU118     -0.1245
     31  CA         2.6510   -1.1110    5.6370 C.3   118  LEU118      0.1561
     32  C          4.0490   -1.6870    5.4740 C.2   118  LEU118      0.2260
     33  O          4.5270   -1.8420    4.3500 O.2   118  LEU118     -0.2867
     34  CB         1.6110   -2.0530    5.0450 C.3   118  LEU118      0.0270
     35  CG         0.1840   -1.7020    5.4380 C.3   118  LEU118      0.0019
     36  CD1       -0.7810   -2.4460    4.5440 C.3   118  LEU118      0.0001
     37  CD2       -0.0390   -2.0720    6.8880 C.3   118  LEU118      0.0001
     38  N          6.4750   -4.8550    6.2390 N.3   120  TYR120     -0.1241
     39  CA         6.5790   -6.2630    6.6110 C.3   120  TYR120      0.1605
     40  C          8.0420   -6.6750    6.5640 C.2   120  TYR120      0.2264
     41  O          8.6740   -6.5840    5.5090 O.2   120  TYR120     -0.2867
     42  CB         5.7430   -7.1220    5.6710 C.3   120  TYR120      0.0534
     43  CG         4.2780   -6.7940    5.7170 C.ar  120  TYR120     -0.0201
     44  CD1        3.5260   -7.1080    6.8360 C.ar  120  TYR120     -0.0009
     45  CD2        3.6400   -6.1650    4.6410 C.ar  120  TYR120     -0.0009
     46  CE1        2.1870   -6.8230    6.8910 C.ar  120  TYR120      0.0417
     47  CE2        2.2750   -5.8790    4.6900 C.ar  120  TYR120      0.0417
     48  CZ         1.5700   -6.2100    5.8220 C.ar  120  TYR120      0.1957
     49  OH         0.2250   -5.9470    5.9090 O.3   120  TYR120     -0.2866
     50  N         10.3100  -11.6730    7.0110 N.3   123  ILE123     -0.1245
     51  CA         9.3040  -12.5660    6.4720 C.3   123  ILE123      0.1561
     52  C          9.9040  -13.9540    6.2860 C.2   123  ILE123      0.2260
     53  O         11.0110  -14.1090    5.7430 O.2   123  ILE123     -0.2867
     54  CB         8.7470  -12.0050    5.1560 C.3   123  ILE123      0.0252
     55  CG1        8.1960  -10.5830    5.3610 C.3   123  ILE123      0.0019
     56  CG2        7.6770  -12.9310    4.6110 C.3   123  ILE123      0.0019
     57  CD1        7.8080   -9.9050    4.0540 C.3   123  ILE123      0.0001
     58  N          5.2110  -17.1510    5.0930 N.3   127  GLY127     -0.1225
     59  CA         4.5320  -15.8770    4.9970 C.3   127  GLY127      0.1811
     60  C          4.3100  -15.1500    6.3040 C.2   127  GLY127      0.2280
     61  O          3.5810  -14.1470    6.3160 O.2   127  GLY127     -0.2866
     62  N          2.5050  -10.4170   11.1490 N.3   144  LEU144     -0.1245
     63  CA         1.9460  -10.8850    9.8910 C.3   144  LEU144      0.1561
     64  C          1.8750  -12.4080    9.9280 C.2   144  LEU144      0.2260
     65  O          2.8390  -13.0630   10.3420 O.2   144  LEU144     -0.2867
     66  CB         2.8340  -10.4250    8.7270 C.3   144  LEU144      0.0270
     67  CG         2.6150  -11.0750    7.3600 C.3   144  LEU144      0.0019
     68  CD1        1.3560  -10.5110    6.7420 C.3   144  LEU144      0.0001
     69  CD2        3.8250  -10.8310    6.4580 C.3   144  LEU144      0.0001
     70  N         -2.6720   -9.5610    8.9120 N.3   149  THR149     -0.1218
     71  CA        -1.8200   -8.6600    9.6710 C.3   149  THR149      0.1862
     72  C         -2.6030   -8.2710   10.9220 C.2   149  THR149      0.2287
     73  O         -3.7850   -7.9490   10.8220 O.2   149  THR149     -0.2866
     74  CB        -1.5080   -7.4050    8.8460 C.3   149  THR149      0.1770
     75  OG1       -0.8050   -7.7580    7.6420 O.3   149  THR149     -0.2211
     76  CG2       -0.6620   -6.4210    9.6460 C.3   149  THR149      0.0375
     77  N         -5.6610  -11.0570    4.4830 N.3   166  LYS166     -0.1245
     78  CA        -4.8950  -11.2850    3.2660 C.3   166  LYS166      0.1561
     79  C         -5.6240  -10.7270    2.0520 C.2   166  LYS166      0.2260
     80  O         -4.9880  -10.3840    1.0500 O.2   166  LYS166     -0.2867
     81  CB        -4.6240  -12.7810    3.0950 C.3   166  LYS166      0.0271
     82  CG        -5.8850  -13.6380    3.0340 C.3   166  LYS166      0.0035
     83  CD        -5.5740  -15.1150    2.8310 C.3   166  LYS166      0.0206
     84  CE        -6.8630  -15.9230    2.7190 C.3   166  LYS166      0.1093
     85  NZ        -6.6330  -17.3940    2.6440 N.3   166  LYS166     -0.1314
@<TRIPOS>BOND
     1     4     3    2
     2     1     2    1
     3     5     2    1
     4     3     2    1
     5    12    10    1
     6     6     7    1
     7    29    27    1
     8    10     7    1
     9    10    11    1
    10    20    21    1
    11    20    19    1
    12     7     8    1
    13    28    26    1
    14    19    18    1
    15    18    17    1
    16    27    26    1
    17    23    26    1
    18    23    24    1
    19    23    22    1
    20    80    79    2
    21     8     9    2
    22    24    25    2
    23    17    14    1
    24    14    15    1
    25    14    13    1
    26    79    78    1
    27    15    16    2
    28    85    84    1
    29    84    83    1
    30    83    82    1
    31    82    81    1
    32    81    78    1
    33    78    77    1
    34    57    55    1
    35    33    32    2
    36    36    35    1
    37    56    54    1
    38    45    47   ar
    39    45    43   ar
    40    47    48   ar
    41    30    31    1
    42    59    58    1
    43    59    60    1
    44    34    35    1
    45    34    31    1
    46    54    55    1
    47    54    51    1
    48    35    37    1
    49    32    31    1
    50    41    40    2
    51    42    43    1
    52    42    39    1
    53    43    44   ar
    54    53    52    2
    55    48    49    1
    56    48    46   ar
    57    38    39    1
    58    52    51    1
    59    60    61    2
    60    69    67    1
    61    51    50    1
    62    40    39    1
    63    68    67    1
    64    44    46   ar
    65    67    66    1
    66    75    74    1
    67    66    63    1
    68    74    76    1
    69    74    71    1
    70    70    71    1
    71    71    72    1
    72    63    64    1
    73    63    62    1
    74    64    65    2
    75    73    72    2
