@<TRIPOS>MOLECULE
tmp/6j49A01.pdb
 81 74 0 0 0
SMALL
GASTEIGER

@<TRIPOS>ATOM
      1  N         19.0830    6.0290  -13.7140 N.3    31  VAL31      -0.1231
      2  CA        18.4270    5.8520  -12.4250 C.3    31  VAL31       0.1692
      3  C         19.4940    5.9400  -11.3400 C.2    31  VAL31       0.2592
      4  O         20.3970    5.0990  -11.2880 O.2    31  VAL31      -0.2718
      5  CB        17.6630    4.5220  -12.3570 C.3    31  VAL31       0.0266
      6  CG1       17.0360    4.3550  -10.9900 C.3    31  VAL31       0.0020
      7  CG2       16.5860    4.4720  -13.4510 C.3    31  VAL31       0.0020
      8  N         19.3780    6.9430  -10.4650 N.am   32  ASP32      -0.1960
      9  CA        20.4470    7.2990   -9.5300 C.3    32  ASP32       0.1840
     10  C         21.6200    7.6550  -10.4400 C.2    32  ASP32       0.2622
     11  O         21.4800    8.5800  -11.2550 O.2    32  ASP32      -0.2715
     12  CB        20.6330    6.1570   -8.5220 C.3    32  ASP32       0.1450
     13  CG        21.3380    6.5780   -7.2370 C.2    32  ASP32       0.3671
     14  OD1       21.6440    7.7720   -7.0430 O.co2  32  ASP32      -0.2456
     15  OD2       21.5650    5.6810   -6.3950 O.co2  32  ASP32      -0.2456
     16  N         22.7350    6.9520  -10.4050 N.am   33  ALA33      -0.1963
     17  CA        23.8030    7.2850  -11.3400 C.3    33  ALA33       0.1728
     18  C         23.9780    6.2430  -12.4370 C.2    33  ALA33       0.2616
     19  O         24.9530    6.3180  -13.2010 O.2    33  ALA33      -0.2715
     20  CB        25.1110    7.4850  -10.5850 C.3    33  ALA33       0.0334
     21  N         23.0630    5.2840  -12.5440 N.am   34  LEU34      -0.1977
     22  CA        23.2450    4.1290  -13.4120 C.3    34  LEU34       0.1596
     23  C         22.5770    4.3570  -14.7620 C.2    34  LEU34       0.2287
     24  O         21.3920    4.7010  -14.8290 O.2    34  LEU34      -0.2864
     25  CB        22.6970    2.8610  -12.7490 C.3    34  LEU34       0.0297
     26  CG        23.0570    1.5610  -13.4600 C.3    34  LEU34       0.0022
     27  CD1       24.5550    1.3490  -13.3280 C.3    34  LEU34       0.0001
     28  CD2       22.2930    0.4030  -12.8670 C.3    34  LEU34       0.0001
     29  N         25.2890   -2.7390  -12.2680 N.3    53  LYS53      -0.1245
     30  CA        25.8640   -1.9300  -11.2060 C.3    53  LYS53       0.1561
     31  C         27.3760   -2.1190  -11.1500 C.2    53  LYS53       0.2260
     32  O         27.9370   -3.0760  -11.6900 O.2    53  LYS53      -0.2867
     33  CB        25.2780   -2.3090   -9.8510 C.3    53  LYS53       0.0271
     34  CG        23.8060   -2.0200   -9.6950 C.3    53  LYS53       0.0035
     35  CD        23.4660   -1.8700   -8.2370 C.3    53  LYS53       0.0206
     36  CE        22.0490   -1.3680   -8.0570 C.3    53  LYS53       0.1093
     37  NZ        21.7430   -1.1260   -6.6190 N.3    53  LYS53      -0.1314
     38  N         20.5880   -4.9500  -13.4810 N.3    59  VAL59      -0.1245
     39  CA        19.4360   -4.0840  -13.2400 C.3    59  VAL59       0.1561
     40  C         18.5190   -4.1260  -14.4510 C.2    59  VAL59       0.2260
     41  O         18.9850   -4.0720  -15.5940 O.2    59  VAL59      -0.2867
     42  CB        19.8650   -2.6340  -12.9490 C.3    59  VAL59       0.0252
     43  CG1       18.6500   -1.7410  -12.7410 C.3    59  VAL59       0.0019
     44  CG2       20.7660   -2.6020  -11.7130 C.3    59  VAL59       0.0019
     45  N         11.3910   -1.8420  -11.1390 N.3    72  LEU72      -0.1245
     46  CA        12.8460   -1.7260  -11.1340 C.3    72  LEU72       0.1561
     47  C         13.3970   -2.8930  -10.3260 C.2    72  LEU72       0.2260
     48  O         13.1160   -3.0100   -9.1270 O.2    72  LEU72      -0.2867
     49  CB        13.2950   -0.3890  -10.5450 C.3    72  LEU72       0.0270
     50  CG        14.8010   -0.0990  -10.5270 C.3    72  LEU72       0.0019
     51  CD1       15.3630    0.0160  -11.9600 C.3    72  LEU72       0.0001
     52  CD2       15.0280    1.1930   -9.7680 C.3    72  LEU72       0.0001
     53  N         16.7320   -5.5460   -9.2810 N.3    74  VAL74      -0.1245
     54  CA        18.1630   -5.8080   -9.1640 C.3    74  VAL74       0.1561
     55  C         18.3400   -7.3020   -8.9580 C.2    74  VAL74       0.2260
     56  O         17.6190   -7.9090   -8.1600 O.2    74  VAL74      -0.2867
     57  CB        18.8020   -5.0180   -8.0050 C.3    74  VAL74       0.0252
     58  CG1       20.3060   -5.3070   -7.9590 C.3    74  VAL74       0.0019
     59  CG2       18.5700   -3.5340   -8.1960 C.3    74  VAL74       0.0019
     60  N         17.3930   -9.7000   -6.1060 N.3    83  VAL83      -0.1231
     61  CA        17.8460   -9.0740   -4.8760 C.3    83  VAL83       0.1692
     62  C         16.8240   -8.0480   -4.3730 C.2    83  VAL83       0.2592
     63  O         16.5390   -7.9920   -3.1760 O.2    83  VAL83      -0.2718
     64  CB        19.2310   -8.4180   -5.0770 C.3    83  VAL83       0.0266
     65  CG1       19.6320   -7.6050   -3.8530 C.3    83  VAL83       0.0020
     66  CG2       20.2870   -9.4820   -5.4190 C.3    83  VAL83       0.0020
     67  N         16.2600   -7.2530   -5.2800 N.am   84  SER84      -0.1952
     68  CA        15.2430   -6.2780   -4.8990 C.3    84  SER84       0.1924
     69  C         14.3340   -6.0110   -6.0860 C.2    84  SER84       0.2314
     70  O         14.7260   -6.1930   -7.2370 O.2    84  SER84      -0.2863
     71  CB        15.8550   -4.9660   -4.4090 C.3    84  SER84       0.2116
     72  OG        16.6190   -4.3660   -5.4190 O.3    84  SER84      -0.2180
     73  N         11.2170   -3.0450   -7.0810 N.3    86  LYS86      -0.1245
     74  CA        10.4340   -1.8570   -6.7410 C.3    86  LYS86       0.1561
     75  C          9.3840   -1.6500   -7.8230 C.2    86  LYS86       0.2260
     76  O          9.7310   -1.4000   -8.9780 O.2    86  LYS86      -0.2867
     77  CB        11.3300   -0.6220   -6.6410 C.3    86  LYS86       0.0271
     78  CG        12.3960   -0.7110   -5.5680 C.3    86  LYS86       0.0035
     79  CD        13.2770    0.5330   -5.5880 C.3    86  LYS86       0.0206
     80  CE        12.4350    1.8020   -5.6690 C.3    86  LYS86       0.1093
     81  NZ        12.5950    2.6470   -4.4490 N.3    86  LYS86      -0.1314
@<TRIPOS>BOND
     1    41    40    2
     2    24    23    2
     3    23    22    1
     4    40    39    1
     5     1     2    1
     6    38    39    1
     7    26    27    1
     8    26    28    1
     9    26    25    1
    10     7     5    1
    11    22    25    1
    12    22    21    1
    13    39    42    1
    14    19    18    2
    15    42    43    1
    16    42    44    1
    17    21    18   am
    18    18    17    1
    19     2     5    1
    20     2     3    1
    21     5     6    1
    22    29    30    1
    23    51    50    1
    24    32    31    2
    25    17    20    1
    26    17    16    1
    27     3     4    2
    28     3     8   am
    29    11    10    2
    30    30    31    1
    31    30    33    1
    32    45    46    1
    33    46    49    1
    34    46    47    1
    35    49    50    1
    36    50    52    1
    37     8     9    1
    38    10    16   am
    39    10     9    1
    40    47    48    2
    41    33    34    1
    42    34    35    1
    43     9    12    1
    44    53    54    1
    45    54    55    1
    46    54    57    1
    47    76    75    2
    48    55    56    2
    49    12    13    1
    50    35    36    1
    51    59    57    1
    52    36    37    1
    53    57    58    1
    54    75    74    1
    55    13    14   ar
    56    13    15   ar
    57    70    69    2
    58    73    74    1
    59    74    77    1
    60    77    78    1
    61    60    61    1
    62    69    68    1
    63    80    79    1
    64    80    81    1
    65    79    78    1
    66    66    64    1
    67    72    71    1
    68    67    68    1
    69    67    62   am
    70    64    61    1
    71    64    65    1
    72    68    71    1
    73    61    62    1
    74    62    63    2
