@<TRIPOS>MOLECULE
tmp/6j67A00.pdb
 190 180 0 0 0
SMALL
GASTEIGER

@<TRIPOS>ATOM
      1  N         -2.6860  -13.9560  -31.0620 N.3    38  ARG38      -0.1231
      2  CA        -2.5860  -13.0820  -29.8980 C.3    38  ARG38       0.1694
      3  C         -3.1350  -11.6940  -30.2030 C.2    38  ARG38       0.2592
      4  O         -3.8320  -11.0900  -29.3810 O.2    38  ARG38      -0.2718
      5  CB        -1.1270  -12.9910  -29.4510 C.3    38  ARG38       0.0321
      6  CG        -0.8610  -11.9530  -28.3770 C.3    38  ARG38       0.0489
      7  CD         0.5920  -11.5040  -28.4120 C.3    38  ARG38       0.2205
      8  NE         0.8700  -10.6540  -29.5700 N.pl3  38  ARG38      -0.0865
      9  CZ         2.0770  -10.2040  -29.8980 C.cat  38  ARG38       0.5346
     10  NH1        3.1320  -10.5240  -29.1600 N.pl3  38  ARG38       0.1354
     11  NH2        2.2310   -9.4330  -30.9670 N.pl3  38  ARG38       0.1354
     12  N         -2.8250  -11.1700  -31.3910 N.am   39  ASP39      -0.1974
     13  CA        -3.2900   -9.8340  -31.7490 C.3    39  ASP39       0.1709
     14  C         -4.8050   -9.8010  -31.9080 C.2    39  ASP39       0.2293
     15  O         -5.4510   -8.8010  -31.5690 O.2    39  ASP39      -0.2864
     16  CB        -2.5980   -9.3660  -33.0280 C.3    39  ASP39       0.1436
     17  CG        -1.1310   -9.0300  -32.8060 C.2    39  ASP39       0.3671
     18  OD1       -0.3710   -8.9980  -33.8000 O.co2  39  ASP39      -0.2456
     19  OD2       -0.7420   -8.8170  -31.6360 O.co2  39  ASP39      -0.2456
     20  N         -6.8910  -11.7160  -30.1500 N.3    41  MET41      -0.1230
     21  CA        -7.4080  -11.7270  -28.7840 C.3    41  MET41       0.1702
     22  C         -7.2610  -10.3620  -28.1280 C.2    41  MET41       0.2592
     23  O         -8.1450   -9.9300  -27.3770 O.2    41  MET41      -0.2718
     24  CB        -6.6940  -12.8020  -27.9610 C.3    41  MET41       0.0401
     25  CG        -6.9930  -14.2280  -28.4030 C.3    41  MET41       0.0596
     26  SD        -5.9870  -15.4440  -27.5320 S.3    41  MET41      -0.1393
     27  CE        -6.7940  -15.4240  -25.9370 C.3    41  MET41       0.0692
     28  N         -6.1570   -9.6620  -28.4030 N.am   42  GLN42      -0.1979
     29  CA        -5.9470   -8.3380  -27.8250 C.3    42  GLN42       0.1601
     30  C         -7.0270   -7.3640  -28.2790 C.2    42  GLN42       0.2287
     31  O         -7.5760   -6.6040  -27.4730 O.2    42  GLN42      -0.2864
     32  CB        -4.5590   -7.8170  -28.2030 C.3    42  GLN42       0.0394
     33  CG        -4.2050   -6.4640  -27.6020 C.3    42  GLN42       0.0908
     34  CD        -3.9280   -6.5350  -26.1130 C.2    42  GLN42       0.2608
     35  OE1       -2.7880   -6.7350  -25.6920 O.2    42  GLN42      -0.2717
     36  NE2       -4.9700   -6.3620  -25.3070 N.am   42  GLN42      -0.0878
     37  N        -10.3930   -8.0110  -26.5550 N.3    45  LEU45      -0.1245
     38  CA       -10.4830   -7.7410  -25.1230 C.3    45  LEU45       0.1561
     39  C        -11.0800   -6.3780  -24.7980 C.2    45  LEU45       0.2260
     40  O        -11.4370   -6.1450  -23.6390 O.2    45  LEU45      -0.2867
     41  CB        -9.1000   -7.8580  -24.4790 C.3    45  LEU45       0.0270
     42  CG        -8.5720   -9.2820  -24.3020 C.3    45  LEU45       0.0019
     43  CD1       -7.2580   -9.2840  -23.5300 C.3    45  LEU45       0.0001
     44  CD2       -9.6140  -10.1480  -23.6120 C.3    45  LEU45       0.0001
     45  N        -13.9050   -5.3730  -25.9630 N.3    47  ARG47      -0.1245
     46  CA       -15.3360   -5.6090  -26.0620 C.3    47  ARG47       0.1563
     47  C        -15.8580   -6.2590  -24.7880 C.2    47  ARG47       0.2260
     48  O        -15.0960   -6.8670  -24.0300 O.2    47  ARG47      -0.2867
     49  CB       -15.6300   -6.4990  -27.2680 C.3    47  ARG47       0.0307
     50  CG       -15.3660   -5.8340  -28.6090 C.3    47  ARG47       0.0489
     51  CD       -16.5890   -5.0780  -29.0960 C.3    47  ARG47       0.2205
     52  NE       -16.5760   -3.6710  -28.7160 N.pl3  47  ARG47      -0.0865
     53  CZ       -17.6610   -2.9070  -28.6600 C.cat  47  ARG47       0.5346
     54  NH1      -18.8510   -3.4200  -28.9430 N.pl3  47  ARG47       0.1354
     55  NH2      -17.5600   -1.6340  -28.3090 N.pl3  47  ARG47       0.1354
     56  N        -17.2590   -8.8850  -22.2620 N.3    49  LEU49      -0.1231
     57  CA       -17.1770  -10.3360  -22.1570 C.3    49  LEU49       0.1693
     58  C        -18.0250  -10.8890  -21.0170 C.2    49  LEU49       0.2593
     59  O        -17.9430  -12.0890  -20.7300 O.2    49  LEU49      -0.2718
     60  CB       -15.7200  -10.7730  -21.9710 C.3    49  LEU49       0.0284
     61  CG       -14.7210  -10.4900  -23.0960 C.3    49  LEU49       0.0019
     62  CD1      -13.2970  -10.6520  -22.5950 C.3    49  LEU49       0.0001
     63  CD2      -14.9690  -11.4140  -24.2670 C.3    49  LEU49       0.0001
     64  N        -18.8410  -10.0620  -20.3740 N.am   50  GLY50      -0.1942
     65  CA       -19.4450  -10.4880  -19.1220 C.3    50  GLY50       0.2014
     66  C        -18.3180  -10.7840  -18.1550 C.2    50  GLY50       0.2638
     67  O        -17.5020   -9.9070  -17.8480 O.2    50  GLY50      -0.2714
     68  N        -18.2550  -12.0340  -17.6830 N.am   51  LYS51      -0.1977
     69  CA       -17.0590  -12.5710  -17.0390 C.3    51  LYS51       0.1596
     70  C        -17.2450  -14.0270  -16.6300 C.2    51  LYS51       0.2287
     71  O        -18.3490  -14.4420  -16.2620 O.2    51  LYS51      -0.2864
     72  CB       -16.6610  -11.7610  -15.8020 C.3    51  LYS51       0.0298
     73  CG       -15.2300  -12.0030  -15.3740 C.3    51  LYS51       0.0038
     74  CD       -14.2810  -11.6960  -16.5170 C.3    51  LYS51       0.0206
     75  CE       -12.9240  -12.3200  -16.2820 C.3    51  LYS51       0.1093
     76  NZ       -13.0230  -13.7120  -15.8120 N.3    51  LYS51      -0.1314
     77  N        -12.3280  -17.2650  -18.2750 N.3    55  VAL55      -0.1231
     78  CA       -11.7320  -16.1880  -19.0620 C.3    55  VAL55       0.1692
     79  C        -10.5670  -15.5550  -18.3110 C.2    55  VAL55       0.2592
     80  O         -9.5100  -15.2860  -18.8930 O.2    55  VAL55      -0.2718
     81  CB       -12.8010  -15.1450  -19.4390 C.3    55  VAL55       0.0266
     82  CG1      -12.1690  -13.9700  -20.1660 C.3    55  VAL55       0.0020
     83  CG2      -13.8800  -15.7830  -20.3010 C.3    55  VAL55       0.0020
     84  N        -10.7330  -15.3200  -17.0070 N.am   56  SER56      -0.1952
     85  CA        -9.6560  -14.7180  -16.2260 C.3    56  SER56       0.1924
     86  C         -8.4230  -15.6120  -16.2000 C.2    56  SER56       0.2314
     87  O         -7.2930  -15.1300  -16.3380 O.2    56  SER56      -0.2863
     88  CB       -10.1320  -14.4300  -14.8030 C.3    56  SER56       0.2116
     89  OG        -9.1210  -13.7860  -14.0500 O.3    56  SER56      -0.2180
     90  N         -6.7490  -15.7380  -19.7200 N.3    59  LEU59      -0.1231
     91  CA        -6.0810  -14.4880  -20.0700 C.3    59  LEU59       0.1693
     92  C         -4.7730  -14.3180  -19.3080 C.2    59  LEU59       0.2591
     93  O         -3.8180  -13.7460  -19.8450 O.2    59  LEU59      -0.2718
     94  CB        -7.0100  -13.3000  -19.8180 C.3    59  LEU59       0.0284
     95  CG        -8.1790  -13.1680  -20.7970 C.3    59  LEU59       0.0019
     96  CD1       -9.0440  -11.9710  -20.4460 C.3    59  LEU59       0.0001
     97  CD2       -7.6750  -13.0680  -22.2290 C.3    59  LEU59       0.0001
     98  N         -4.7070  -14.8070  -18.0660 N.am   60  ARG60      -0.1980
     99  CA        -3.4470  -14.7920  -17.3300 C.3    60  ARG60       0.1597
    100  C         -2.4020  -15.6600  -18.0210 C.2    60  ARG60       0.2287
    101  O         -1.2580  -15.2360  -18.2210 O.2    60  ARG60      -0.2864
    102  CB        -3.6700  -15.2610  -15.8930 C.3    60  ARG60       0.0334
    103  CG        -4.2880  -14.2170  -14.9830 C.3    60  ARG60       0.0492
    104  CD        -3.4060  -12.9840  -14.8900 C.3    60  ARG60       0.2205
    105  NE        -3.8660  -12.0650  -13.8550 N.pl3  60  ARG60      -0.0865
    106  CZ        -3.4610  -10.8050  -13.7410 C.cat  60  ARG60       0.5346
    107  NH1       -2.5850  -10.3050  -14.6020 N.pl3  60  ARG60       0.1354
    108  NH2       -3.9350  -10.0420  -12.7640 N.pl3  60  ARG60       0.1354
    109  N         -2.4310  -16.5930  -21.1650 N.3    62  MET62      -0.1230
    110  CA        -2.1180  -15.9060  -22.4150 C.3    62  MET62       0.1702
    111  C         -1.1700  -14.7360  -22.1790 C.2    62  MET62       0.2592
    112  O         -0.2480  -14.5040  -22.9710 O.2    62  MET62      -0.2718
    113  CB        -3.4040  -15.4240  -23.0860 C.3    62  MET62       0.0401
    114  CG        -3.2350  -15.0490  -24.5460 C.3    62  MET62       0.0596
    115  SD        -2.6750  -16.4250  -25.5700 S.3    62  MET62      -0.1393
    116  CE        -2.2990  -15.5570  -27.0920 C.3    62  MET62       0.0692
    117  N         -1.3880  -13.9820  -21.0980 N.am   63  GLN63      -0.1979
    118  CA        -0.4670  -12.9090  -20.7310 C.3    63  GLN63       0.1601
    119  C          0.9480  -13.4430  -20.5420 C.2    63  GLN63       0.2287
    120  O          1.9150  -12.8840  -21.0730 O.2    63  GLN63      -0.2864
    121  CB        -0.9430  -12.2260  -19.4500 C.3    63  GLN63       0.0394
    122  CG        -1.5240  -10.8410  -19.6320 C.3    63  GLN63       0.0908
    123  CD        -1.6930  -10.1200  -18.3080 C.2    63  GLN63       0.2608
    124  OE1       -1.8080  -10.7510  -17.2560 O.2    63  GLN63      -0.2717
    125  NE2       -1.6960   -8.7920  -18.3520 N.am   63  GLN63      -0.0878
    126  N          2.6410  -14.7690  -23.8110 N.3    66  SER66      -0.1202
    127  CA         2.9800  -13.7120  -24.7580 C.3    66  SER66       0.2020
    128  C          4.2640  -12.9980  -24.3560 C.2    66  SER66       0.2618
    129  O          5.0560  -12.6020  -25.2190 O.2    66  SER66      -0.2717
    130  CB         1.8240  -12.7200  -24.8680 C.3    66  SER66       0.2103
    131  OG         0.6580  -13.3540  -25.3620 O.3    66  SER66      -0.2182
    132  N          4.4850  -12.8180  -23.0520 N.am   67  ARG67      -0.1979
    133  CA         5.7430  -12.2410  -22.5930 C.3    67  ARG67       0.1597
    134  C          6.9020  -13.2050  -22.8100 C.2    67  ARG67       0.2287
    135  O          8.0030  -12.7870  -23.1860 O.2    67  ARG67      -0.2864
    136  CB         5.6300  -11.8500  -21.1200 C.3    67  ARG67       0.0334
    137  CG         4.8600  -10.5600  -20.8960 C.3    67  ARG67       0.0492
    138  CD         3.9720  -10.6430  -19.6700 C.3    67  ARG67       0.2205
    139  NE         3.1800   -9.4290  -19.5030 N.pl3  67  ARG67      -0.0865
    140  CZ         2.0760   -9.1580  -20.1910 C.cat  67  ARG67       0.5346
    141  NH1        1.6310  -10.0150  -21.1010 N.pl3  67  ARG67       0.1354
    142  NH2        1.4190   -8.0280  -19.9730 N.pl3  67  ARG67       0.1354
    143  N          7.9360  -13.2200  -26.4940 N.3    70  GLU70      -0.1245
    144  CA         8.7120  -12.0350  -26.8360 C.3    70  GLU70       0.1567
    145  C          9.9620  -11.8780  -25.9720 C.2    70  GLU70       0.2260
    146  O         10.5960  -10.8200  -26.0140 O.2    70  GLU70      -0.2867
    147  CB         7.8380  -10.7820  -26.7130 C.3    70  GLU70       0.0388
    148  CG         6.6030  -10.7750  -27.6080 C.3    70  GLU70       0.1160
    149  CD         6.8680  -10.1570  -28.9690 C.2    70  GLU70       0.3649
    150  OE1        5.8920   -9.8160  -29.6710 O.co2  70  GLU70      -0.2457
    151  OE2        8.0530  -10.0100  -29.3360 O.co2  70  GLU70      -0.2457
    152  N         11.1320   -4.8300  -26.5150 N.3    76  CYS76      -0.1221
    153  CA         9.7090   -4.8850  -26.2130 C.3    76  CYS76       0.1808
    154  C          9.4510   -4.5670  -24.7470 C.2    76  CYS76       0.2602
    155  O         10.2190   -4.9570  -23.8620 O.2    76  CYS76      -0.2717
    156  CB         9.1440   -6.2650  -26.5480 C.3    76  CYS76       0.0970
    157  SG         9.1030   -6.6440  -28.3120 S.3    76  CYS76      -0.0800
    158  N          8.3550   -3.8600  -24.4970 N.am   77  SER77      -0.1938
    159  CA         7.9270   -3.5160  -23.1510 C.3    77  SER77       0.2055
    160  C          6.4620   -3.8860  -22.9880 C.2    77  SER77       0.2643
    161  O          5.6700   -3.7420  -23.9230 O.2    77  SER77      -0.2714
    162  CB         8.1280   -2.0220  -22.8650 C.3    77  SER77       0.2130
    163  OG         7.5450   -1.6540  -21.6270 O.3    77  SER77      -0.2179
    164  N          6.1080   -4.3800  -21.8050 N.am   78  PHE78      -0.1959
    165  CA         4.7150   -4.6320  -21.4620 C.3    78  PHE78       0.1771
    166  C          4.2190   -3.6790  -20.3830 C.2    78  PHE78       0.2620
    167  O          3.1020   -3.8420  -19.8810 O.2    78  PHE78      -0.2715
    168  CB         4.5330   -6.0940  -21.0490 C.3    78  PHE78       0.0574
    169  CG         4.7810   -7.0680  -22.1720 C.ar   78  PHE78      -0.0200
    170  CD1        6.0680   -7.4850  -22.4760 C.ar   78  PHE78      -0.0042
    171  CD2        3.7300   -7.5440  -22.9400 C.ar   78  PHE78      -0.0042
    172  CE1        6.3000   -8.3700  -23.5140 C.ar   78  PHE78      -0.0003
    173  CE2        3.9560   -8.4290  -23.9790 C.ar   78  PHE78      -0.0003
    174  CZ         5.2430   -8.8430  -24.2650 C.ar   78  PHE78      -0.0000
    175  N          5.0310   -2.6850  -20.0240 N.am   79  ASP79      -0.1957
    176  CA         4.6030   -1.5670  -19.1880 C.3    79  ASP79       0.1840
    177  C          5.4720   -0.3790  -19.5780 C.2    79  ASP79       0.2621
    178  O          6.6680   -0.3610  -19.2720 O.2    79  ASP79      -0.2715
    179  CB         4.7410   -1.8900  -17.7020 C.3    79  ASP79       0.1450
    180  CG         4.1290   -0.8200  -16.8100 C.2    79  ASP79       0.3671
    181  OD1        3.8150    0.2810  -17.3110 O.co2  79  ASP79      -0.2456
    182  OD2        3.9630   -1.0820  -15.5990 O.co2  79  ASP79      -0.2456
    183  N          4.8800    0.6090  -20.2520 N.am   80  MET80      -0.1977
    184  CA         5.6680    1.7380  -20.7310 C.3    80  MET80       0.1605
    185  C          6.1450    2.6450  -19.6050 C.2    80  MET80       0.2287
    186  O          7.1120    3.3890  -19.7980 O.2    80  MET80      -0.2864
    187  CB         4.8720    2.5460  -21.7550 C.3    80  MET80       0.0413
    188  CG         4.9810    1.9940  -23.1600 C.3    80  MET80       0.0598
    189  SD         6.7130    1.6760  -23.5480 S.3    80  MET80      -0.1393
    190  CE         6.7360    1.9600  -25.3100 C.3    80  MET80       0.0692
@<TRIPOS>BOND
     1    18    17   ar
     2    16    17    1
     3    16    13    1
     4    17    19   ar
     5    14    13    1
     6    14    15    2
     7    13    12    1
     8    12     3   am
     9     1     2    1
    10    11     9    1
    11     3     2    1
    12     3     4    2
    13    20    21    1
    14     9     8    2
    15     9    10    1
    16     2     5    1
    17   150   149   ar
    18     8     7    1
    19     5     6    1
    20   151   149   ar
    21    51    52    1
    22    51    50    1
    23   149   148    1
    24    54    53    1
    25    21    22    1
    26    21    24    1
    27    52    53    2
    28    53    55    1
    29    50    49    1
    30     7     6    1
    31    25    24    1
    32    25    26    1
    33    28    22   am
    34    28    29    1
    35   157   156    1
    36    30    29    1
    37    30    31    2
    38    32    29    1
    39    32    33    1
    40    22    23    2
    41   148   147    1
    42    33    34    1
    43    26    27    1
    44    49    46    1
    45   116   115    1
    46   144   147    1
    47   144   143    1
    48   144   145    1
    49    37    38    1
    50   156   153    1
    51   152   153    1
    52   153   154    1
    53    34    35    2
    54    34    36   am
    55    46    45    1
    56    46    47    1
    57   146   145    2
    58   115   114    1
    59   131   130    1
    60   190   189    1
    61   129   128    2
    62    38    39    1
    63    38    41    1
    64   130   127    1
    65    39    40    2
    66    47    48    2
    67   127   128    1
    68   127   126    1
    69   154   158   am
    70   154   155    2
    71   114   113    1
    72   158   159    1
    73    41    42    1
    74   128   132   am
    75    42    44    1
    76    42    43    1
    77    63    61    1
    78   174   173   ar
    79   174   172   ar
    80   173   171   ar
    81   161   160    2
    82   189   188    1
    83   172   170   ar
    84   135   134    2
    85   188   187    1
    86   159   160    1
    87   159   162    1
    88    61    62    1
    89    61    60    1
    90   113   110    1
    91   132   133    1
    92   160   164   am
    93   112   111    2
    94   171   169   ar
    95   162   163    1
    96   134   133    1
    97   133   136    1
    98   170   169   ar
    99   110   111    1
   100   110   109    1
   101    56    57    1
   102    97    95    1
   103   111   117   am
   104   169   168    1
   105    57    60    1
   106    57    58    1
   107   164   165    1
   108   187   184    1
   109   165   168    1
   110   165   166    1
   111   136   137    1
   112   141   140    1
   113   117   118    1
   114   120   119    2
   115    58    59    2
   116    58    64   am
   117   137   138    1
   118    95    96    1
   119    95    94    1
   120   118   119    1
   121   118   121    1
   122   184   183    1
   123   184   185    1
   124   166   175   am
   125   166   167    2
   126    64    65    1
   127    83    81    1
   128   183   177   am
   129   140   142    1
   130   140   139    2
   131    82    81    1
   132    91    94    1
   133    91    90    1
   134    91    92    1
   135   175   176    1
   136    93    92    2
   137   186   185    2
   138   138   139    1
   139   122   121    1
   140   122   123    1
   141   177   178    2
   142   177   176    1
   143    81    78    1
   144    92    98   am
   145   176   179    1
   146    65    66    1
   147    78    79    1
   148    78    77    1
   149    80    79    2
   150   125   123   am
   151    79    84   am
   152   123   124    2
   153   101   100    2
   154    66    67    2
   155    66    68   am
   156    98    99    1
   157   100    99    1
   158   179   180    1
   159    68    69    1
   160    99   102    1
   161   181   180   ar
   162    69    70    1
   163    69    72    1
   164    84    85    1
   165   180   182   ar
   166    70    71    2
   167    74    75    1
   168    74    73    1
   169    87    86    2
   170    75    76    1
   171    85    86    1
   172    85    88    1
   173   102   103    1
   174    72    73    1
   175   103   104    1
   176   104   105    1
   177    88    89    1
   178   107   106    1
   179   105   106    2
   180   106   108    1
