@<TRIPOS>MOLECULE
tmp/6j7cA00.pdb
 127 121 0 0 0
SMALL
GASTEIGER

@<TRIPOS>ATOM
      1  N         32.9680   51.8230   61.8790 N.3    62  PHE62      -0.1241
      2  CA        33.1480   51.3710   60.5090 C.3    62  PHE62       0.1605
      3  C         32.2530   50.1700   60.2510 C.2    62  PHE62       0.2264
      4  O         31.9790   49.3820   61.1590 O.2    62  PHE62      -0.2867
      5  CB        34.6130   51.0300   60.2470 C.3    62  PHE62       0.0534
      6  CG        35.0010   51.1100   58.8270 C.ar   62  PHE62      -0.0203
      7  CD1       34.7440   50.0510   57.9640 C.ar   62  PHE62      -0.0042
      8  CD2       35.6220   52.2430   58.3440 C.ar   62  PHE62      -0.0042
      9  CE1       35.1040   50.1210   56.6140 C.ar   62  PHE62      -0.0003
     10  CE2       35.9900   52.3350   57.0080 C.ar   62  PHE62      -0.0003
     11  CZ        35.7360   51.2680   56.1380 C.ar   62  PHE62      -0.0000
     12  N         34.0620   53.9000   51.2700 N.3    85  LEU85      -0.1245
     13  CA        35.3640   53.8050   50.6320 C.3    85  LEU85       0.1561
     14  C         35.4180   52.6260   49.6630 C.2    85  LEU85       0.2260
     15  O         34.6470   51.6670   49.7600 O.2    85  LEU85      -0.2867
     16  CB        36.4510   53.6990   51.6880 C.3    85  LEU85       0.0270
     17  CG        36.4650   54.9800   52.5100 C.3    85  LEU85       0.0019
     18  CD1       37.2580   54.7360   53.7640 C.3    85  LEU85       0.0001
     19  CD2       37.0180   56.1600   51.7110 C.3    85  LEU85       0.0001
     20  N         37.8230   50.4910   49.1730 N.3    87  MET87      -0.1230
     21  CA        38.4210   49.3140   49.7670 C.3    87  MET87       0.1702
     22  C         38.8360   49.7180   51.1710 C.2    87  MET87       0.2592
     23  O         38.9110   50.9070   51.4900 O.2    87  MET87      -0.2718
     24  CB        39.6070   48.8150   48.9270 C.3    87  MET87       0.0401
     25  CG        39.6930   47.3010   48.7550 C.3    87  MET87       0.0596
     26  SD        39.3960   46.4990   50.3240 S.3    87  MET87      -0.1393
     27  CE        39.7160   44.8320   49.9580 C.3    87  MET87       0.0692
     28  N         39.0990   48.7200   52.0130 N.am   88  CYS88      -0.1956
     29  CA        39.5520   48.9780   53.3730 C.3    88  CYS88       0.1843
     30  C         40.2460   47.7240   53.8900 C.2    88  CYS88       0.2626
     31  O         39.7230   46.6130   53.7340 O.2    88  CYS88      -0.2714
     32  CB        38.3750   49.3810   54.2580 C.3    88  CYS88       0.0997
     33  SG        38.6460   49.2570   56.0130 S.3    88  CYS88      -0.0797
     34  N         41.4280   47.9020   54.4830 N.am   89  GLY89      -0.1940
     35  CA        42.2110   46.7770   54.9490 C.3    89  GLY89       0.2014
     36  C         41.5990   46.0660   56.1380 C.2    89  GLY89       0.2638
     37  O         41.2920   44.8720   56.0660 O.2    89  GLY89      -0.2714
     38  N         41.4070   46.8010   57.2340 N.am   90  HIS90      -0.1973
     39  CA        41.0170   46.1770   58.4940 C.3    90  HIS90       0.1656
     40  C         39.6300   45.5510   58.4250 C.2    90  HIS90       0.2291
     41  O         39.3680   44.5610   59.1250 O.2    90  HIS90      -0.2864
     42  CB        41.0670   47.2010   59.6300 C.3    90  HIS90       0.0771
     43  CG        39.8900   48.1090   59.6520 C.ar   90  HIS90       0.0820
     44  ND1       39.9440   49.4050   59.1810 N.ar   90  HIS90      -0.2267
     45  CD2       38.6170   47.9050   60.0600 C.ar   90  HIS90       0.1154
     46  CE1       38.7490   49.9580   59.2910 C.ar   90  HIS90       0.1986
     47  NE2       37.9290   49.0730   59.8350 N.ar   90  HIS90      -0.2212
     48  N         42.2820   52.9510   48.0310 N.3   169  ASN169     -0.1240
     49  CA        41.8120   54.3230   48.0000 C.3   169  ASN169      0.1653
     50  C         43.0450   55.1830   47.7620 C.2   169  ASN169      0.2266
     51  O         44.1690   54.7650   48.0440 O.2   169  ASN169     -0.2867
     52  CB        41.1250   54.7580   49.3100 C.3   169  ASN169      0.1155
     53  CG        39.9660   53.8530   49.7160 C.2   169  ASN169      0.2627
     54  OD1       38.8430   53.9310   49.1760 O.2   169  ASN169     -0.2716
     55  ND2       40.2300   52.9930   50.6870 N.am  169  ASN169     -0.0877
     56  N         45.4890   58.2280   48.7390 N.3   171  TYR171     -0.1241
     57  CA        45.9150   58.7900   50.0140 C.3   171  TYR171      0.1605
     58  C         46.8150   60.0020   49.7940 C.2   171  TYR171      0.2264
     59  O         47.5570   60.0660   48.8060 O.2   171  TYR171     -0.2867
     60  CB        46.6670   57.7240   50.8590 C.3   171  TYR171      0.0534
     61  CG        45.7560   56.7450   51.5700 C.ar  171  TYR171     -0.0201
     62  CD1       45.1450   55.7170   50.8720 C.ar  171  TYR171     -0.0009
     63  CD2       45.4930   56.8660   52.9390 C.ar  171  TYR171     -0.0009
     64  CE1       44.3000   54.8200   51.5000 C.ar  171  TYR171      0.0417
     65  CE2       44.6450   55.9810   53.5910 C.ar  171  TYR171      0.0417
     66  CZ        44.0410   54.9530   52.8630 C.ar  171  TYR171      0.1957
     67  OH        43.1840   54.0530   53.4960 O.3   171  TYR171     -0.2866
     68  N         41.5620   60.0610   51.8350 N.3   221  LEU221     -0.1245
     69  CA        42.1090   59.8540   53.1660 C.3   221  LEU221      0.1561
     70  C         43.4750   60.5350   53.2920 C.2   221  LEU221      0.2260
     71  O         44.2280   60.6480   52.3220 O.2   221  LEU221     -0.2867
     72  CB        42.1990   58.3410   53.4790 C.3   221  LEU221      0.0270
     73  CG        40.9130   57.4990   53.3900 C.3   221  LEU221      0.0019
     74  CD1       40.7920   56.7950   52.0730 C.3   221  LEU221      0.0001
     75  CD2       40.8120   56.4870   54.5220 C.3   221  LEU221      0.0001
     76  N         45.7480   57.6340   60.0330 N.3   239  VAL239     -0.1245
     77  CA        44.9300   57.8750   58.8500 C.3   239  VAL239      0.1561
     78  C         43.6130   58.4970   59.3000 C.2   239  VAL239      0.2260
     79  O         42.9620   58.0000   60.2310 O.2   239  VAL239     -0.2867
     80  CB        44.7110   56.5820   58.0420 C.3   239  VAL239      0.0252
     81  CG1       43.5690   56.7550   57.0440 C.3   239  VAL239      0.0019
     82  CG2       45.9940   56.2090   57.3210 C.3   239  VAL239      0.0019
     83  N         40.0300   60.6640   57.8130 N.3   241  TRP241     -0.1241
     84  CA        39.2640   61.0130   56.6110 C.3   241  TRP241      0.1605
     85  C         37.8700   61.4840   57.0050 C.2   241  TRP241      0.2264
     86  O         37.6020   61.7810   58.1760 O.2   241  TRP241     -0.2867
     87  CB        39.2160   59.8380   55.6230 C.3   241  TRP241      0.0550
     88  CG        38.2730   58.7290   55.9910 C.ar  241  TRP241      0.0003
     89  CD1       37.1420   58.3560   55.3230 C.ar  241  TRP241      0.0946
     90  CD2       38.3920   57.8400   57.1050 C.ar  241  TRP241      0.0152
     91  NE1       36.5470   57.2970   55.9560 N.ar  241  TRP241     -0.2442
     92  CE2       37.2960   56.9590   57.0530 C.ar  241  TRP241      0.0810
     93  CE3       39.3270   57.6970   58.1340 C.ar  241  TRP241      0.0012
     94  CZ2       37.1070   55.9550   57.9900 C.ar  241  TRP241      0.0191
     95  CZ3       39.1400   56.7010   59.0590 C.ar  241  TRP241      0.0001
     96  CH2       38.0370   55.8450   58.9850 C.ar  241  TRP241      0.0015
     97  N         41.7590   56.3900   62.0990 N.3   247  ASP247     -0.1239
     98  CA        42.0150   54.9590   62.1030 C.3   247  ASP247      0.1674
     99  C         42.8070   54.5620   63.3480 C.2   247  ASP247      0.2266
    100  O         43.9160   55.0590   63.5840 O.2   247  ASP247     -0.2867
    101  CB        42.7540   54.5430   60.8430 C.3   247  ASP247      0.1410
    102  CG        42.6390   53.0500   60.5830 C.2   247  ASP247      0.3668
    103  OD1       42.4150   52.2580   61.5370 O.co2 247  ASP247     -0.2456
    104  OD2       42.7880   52.6590   59.4140 O.co2 247  ASP247     -0.2456
    105  N         43.9680   51.6060   63.7240 N.3   249  SER249     -0.1217
    106  CA        44.9100   50.6310   63.1930 C.3   249  SER249      0.1889
    107  C         45.9240   51.3130   62.2910 C.2   249  SER249      0.2288
    108  O         45.7710   52.4820   61.9400 O.2   249  SER249     -0.2866
    109  CB        44.1640   49.5600   62.3940 C.3   249  SER249      0.2089
    110  OG        44.1860   49.8830   61.0140 O.3   249  SER249     -0.2183
    111  N         46.0620   51.0590   59.3400 N.3   251  CYS251     -0.1221
    112  CA        45.3250   51.2900   58.1000 C.3   251  CYS251      0.1808
    113  C         45.8920   50.4700   56.9530 C.2   251  CYS251      0.2602
    114  O         46.9240   50.8270   56.3850 O.2   251  CYS251     -0.2717
    115  CB        45.3050   52.7780   57.7300 C.3   251  CYS251      0.0970
    116  SG        44.4760   53.1360   56.1360 S.3   251  CYS251     -0.0800
    117  N         45.1920   49.3950   56.5820 N.am  252  GLY252     -0.1942
    118  CA        45.7160   48.4830   55.5780 C.3   252  GLY252      0.2014
    119  C         45.8960   49.1320   54.2210 C.2   252  GLY252      0.2639
    120  O         46.9750   49.0720   53.6300 O.2   252  GLY252     -0.2714
    121  N         44.8350   49.7580   53.7030 N.am  253  THR253     -0.1950
    122  CA        44.8830   50.2900   52.3400 C.3   253  THR253      0.1897
    123  C         45.8550   51.4590   52.2240 C.2   253  THR253      0.2313
    124  O         46.4610   51.6560   51.1650 O.2   253  THR253     -0.2863
    125  CB        43.4890   50.7270   51.8640 C.3   253  THR253      0.1794
    126  OG1       42.9020   51.6420   52.7990 O.3   253  THR253     -0.2208
    127  CG2       42.5840   49.5330   51.6870 C.3   253  THR253      0.0378
@<TRIPOS>BOND
     1    50    49    1
     2    50    51    2
     3    49    48    1
     4    49    52    1
     5    56    57    1
     6    25    24    1
     7    25    26    1
     8    59    58    2
     9    24    21    1
    10    20    21    1
    11    54    53    2
    12    52    53    1
    13    14    15    2
    14    14    13    1
    15    53    55   am
    16    21    22    1
    17    58    57    1
    18    27    26    1
    19    57    60    1
    20    13    12    1
    21    13    16    1
    22    60    61    1
    23    62    64   ar
    24    62    61   ar
    25   124   123    2
    26    22    23    2
    27    22    28   am
    28    64    66   ar
    29    61    63   ar
    30   127   125    1
    31    16    17    1
    32    19    17    1
    33    68    69    1
    34   125   122    1
    35   125   126    1
    36    28    29    1
    37    74    73    1
    38   123   122    1
    39    71    70    2
    40   122   121    1
    41    17    18    1
    42    66    67    1
    43    66    65   ar
    44    63    65   ar
    45    69    70    1
    46    69    72    1
    47    29    30    1
    48    29    32    1
    49    73    72    1
    50    73    75    1
    51   120   119    2
    52   121   119   am
    53    31    30    2
    54    30    34   am
    55   119   118    1
    56    32    33    1
    57    34    35    1
    58    35    36    1
    59    89    91   ar
    60    89    88   ar
    61   118   117    1
    62    87    88    1
    63    87    84    1
    64    91    92   ar
    65    88    90   ar
    66    37    36    2
    67   116   115    1
    68    36    38   am
    69    11     9   ar
    70    11    10   ar
    71   114   113    2
    72   117   113   am
    73    84    85    1
    74    84    83    1
    75     9     7   ar
    76   113   112    1
    77    85    86    2
    78    10     8   ar
    79    81    80    1
    80    92    90   ar
    81    92    94   ar
    82    90    93   ar
    83    38    39    1
    84    82    80    1
    85   115   112    1
    86     7     6   ar
    87    94    96   ar
    88    80    77    1
    89   112   111    1
    90    93    95   ar
    91     8     6   ar
    92    40    39    1
    93    40    41    2
    94    39    42    1
    95     6     5    1
    96    77    78    1
    97    77    76    1
    98    96    95   ar
    99    44    46   ar
   100    44    43   ar
   101    46    47   ar
   102    78    79    2
   103   104   102   ar
   104    42    43    1
   105    43    45   ar
   106    47    45   ar
   107     5     2    1
   108     3     2    1
   109     3     4    2
   110     2     1    1
   111   102   101    1
   112   102   103   ar
   113   101    98    1
   114   110   109    1
   115   108   107    2
   116    97    98    1
   117    98    99    1
   118   107   106    1
   119   109   106    1
   120   106   105    1
   121    99   100    2
