@<TRIPOS>MOLECULE
tmp/6j81A00.pdb
 222 210 0 0 0
SMALL
GASTEIGER

@<TRIPOS>ATOM
      1  N        -18.2720    6.1840   -3.5670 N.3    73  PHE73      -0.1241
      2  CA       -19.6730    6.3630   -3.9590 C.3    73  PHE73       0.1605
      3  C        -19.7900    7.1290   -5.2790 C.2    73  PHE73       0.2264
      4  O        -20.6700    6.8600   -6.1140 O.2    73  PHE73      -0.2867
      5  CB       -20.4670    7.0100   -2.8050 C.3    73  PHE73       0.0534
      6  CG       -21.9670    7.1410   -3.0510 C.ar   73  PHE73      -0.0203
      7  CD1      -22.7490    5.9960   -3.1840 C.ar   73  PHE73      -0.0042
      8  CD2      -22.5960    8.3810   -3.1560 C.ar   73  PHE73      -0.0042
      9  CE1      -24.1210    6.1210   -3.3740 C.ar   73  PHE73      -0.0003
     10  CE2      -23.9660    8.4980   -3.4100 C.ar   73  PHE73      -0.0003
     11  CZ       -24.7270    7.3600   -3.4620 C.ar   73  PHE73      -0.0000
     12  N        -18.2530    1.6900   -9.9580 N.3    79  ARG79      -0.1245
     13  CA       -19.6960    1.5990   -9.8030 C.3    79  ARG79       0.1563
     14  C        -20.1500    0.1400   -9.8810 C.2    79  ARG79       0.2260
     15  O        -20.8660   -0.3290   -9.0040 O.2    79  ARG79      -0.2867
     16  CB       -20.3370    2.5600  -10.8050 C.3    79  ARG79       0.0307
     17  CG       -21.8440    2.5980  -10.6950 C.3    79  ARG79       0.0489
     18  CD       -22.3580    3.2840   -9.4360 C.3    79  ARG79       0.2205
     19  NE       -22.8370    4.6120   -9.8350 N.pl3  79  ARG79      -0.0865
     20  CZ       -22.2710    5.7620   -9.5130 C.cat  79  ARG79       0.5346
     21  NH1      -22.8180    6.8900   -9.9370 N.pl3  79  ARG79       0.1354
     22  NH2      -21.1710    5.7770   -8.7670 N.pl3  79  ARG79       0.1354
     23  N        -20.0040   -2.4510   -6.7400 N.3    82  TRP82      -0.1227
     24  CA       -20.8280   -2.5230   -5.5460 C.3    82  TRP82       0.1737
     25  C        -22.3160   -2.4260   -5.9060 C.2    82  TRP82       0.2595
     26  O        -23.1500   -2.9140   -5.1410 O.2    82  TRP82      -0.2718
     27  CB       -20.4010   -1.4630   -4.4970 C.3    82  TRP82       0.0564
     28  CG       -20.3950   -0.0570   -5.0350 C.ar   82  TRP82       0.0003
     29  CD1      -19.3270    0.6650   -5.5040 C.ar   82  TRP82       0.0946
     30  CD2      -21.5210    0.8300   -5.1070 C.ar   82  TRP82       0.0152
     31  NE1      -19.7300    1.9200   -5.9250 N.ar   82  TRP82      -0.2442
     32  CE2      -21.0680    2.0570   -5.6600 C.ar   82  TRP82       0.0810
     33  CE3      -22.8680    0.7110   -4.7440 C.ar   82  TRP82       0.0012
     34  CZ2      -21.9190    3.1500   -5.8570 C.ar   82  TRP82       0.0191
     35  CZ3      -23.7210    1.7720   -4.9890 C.ar   82  TRP82       0.0001
     36  CH2      -23.2530    2.9690   -5.5470 C.ar   82  TRP82       0.0015
     37  N        -22.6420   -1.8240   -7.0540 N.am   83  GLU83      -0.1979
     38  CA       -24.0400   -1.6230   -7.4250 C.3    83  GLU83       0.1602
     39  C        -24.6120   -2.9740   -7.8410 C.2    83  GLU83       0.2287
     40  O        -23.8940   -3.7320   -8.4900 O.2    83  GLU83      -0.2864
     41  CB       -24.1680   -0.8120   -8.7090 C.3    83  GLU83       0.0415
     42  CG       -25.6120   -0.7270   -9.1950 C.3    83  GLU83       0.1163
     43  CD       -26.5280    0.0820   -8.2850 C.2    83  GLU83       0.3649
     44  OE1      -26.2050    1.2680   -8.0330 O.co2  83  GLU83      -0.2457
     45  OE2      -27.5520   -0.4570   -7.8200 O.co2  83  GLU83      -0.2457
     46  N        -28.2820   -3.0720   -8.6960 N.3    85  THR85      -0.1203
     47  CA       -29.6030   -2.8860   -9.2650 C.3    85  THR85       0.1994
     48  C        -29.5680   -2.1670  -10.6170 C.2    85  THR85       0.2617
     49  O        -30.6280   -1.8850  -11.1790 O.2    85  THR85      -0.2717
     50  CB       -30.5590   -2.1840   -8.2910 C.3    85  THR85       0.1784
     51  OG1      -30.1090   -0.8380   -8.1710 O.3    85  THR85      -0.2211
     52  CG2      -30.6630   -2.8560   -6.9320 C.3    85  THR85       0.0376
     53  N        -28.3790   -1.9190  -11.1710 N.am   86  ILE86      -0.1979
     54  CA       -28.2240   -1.1780  -12.4220 C.3    86  ILE86       0.1595
     55  C        -28.0930   -2.1410  -13.6090 C.2    86  ILE86       0.2287
     56  O        -27.3050   -3.0800  -13.5580 O.2    86  ILE86      -0.2864
     57  CB       -26.9020   -0.3800  -12.3530 C.3    86  ILE86       0.0276
     58  CG1      -26.9580    0.6400  -11.2330 C.3    86  ILE86       0.0022
     59  CG2      -26.6160    0.2990  -13.6870 C.3    86  ILE86       0.0022
     60  CD1      -27.9850    1.6620  -11.4860 C.3    86  ILE86       0.0001
     61  N        -28.8920    6.2160  -16.3430 N.3   104  GLN104     -0.1245
     62  CA       -28.7720    4.8060  -15.9790 C.3   104  GLN104      0.1566
     63  C        -30.1430    4.1360  -15.9810 C.2   104  GLN104      0.2260
     64  O        -31.1590    4.7970  -15.8180 O.2   104  GLN104     -0.2867
     65  CB       -28.0380    4.5340  -14.6650 C.3   104  GLN104      0.0367
     66  CG       -28.8630    4.9000  -13.4110 C.3   104  GLN104      0.0905
     67  CD       -28.1080    5.0830  -12.1040 C.2   104  GLN104      0.2608
     68  OE1      -26.9100    5.3650  -12.0940 O.2   104  GLN104     -0.2717
     69  NE2      -28.8060    4.9250  -10.9710 N.am  104  GLN104     -0.0878
     70  N        -32.3590    0.8330  -14.3400 N.3   106  HIS106     -0.1241
     71  CA       -32.3910   -0.1060  -13.2320 C.3   106  HIS106      0.1621
     72  C        -33.0200   -1.4390  -13.6550 C.2   106  HIS106      0.2264
     73  O        -33.8710   -1.4560  -14.5240 O.2   106  HIS106     -0.2867
     74  CB       -33.1540    0.5360  -12.0490 C.3   106  HIS106      0.0745
     75  CG       -32.3170    1.5800  -11.3800 C.ar  106  HIS106      0.0817
     76  ND1      -31.4930    1.2850  -10.2910 N.ar  106  HIS106     -0.2268
     77  CD2      -32.1700    2.9110  -11.6430 C.ar  106  HIS106      0.1154
     78  CE1      -30.8360    2.4040   -9.9150 C.ar  106  HIS106      0.1986
     79  NE2      -31.2530    3.4150  -10.7510 N.ar  106  HIS106     -0.2212
     80  N        -38.2440   -4.5400  -11.5990 N.3   109  VAL109     -0.1245
     81  CA       -38.7810   -5.3820  -10.5400 C.3   109  VAL109      0.1561
     82  C        -40.2290   -5.7440  -10.8840 C.2   109  VAL109      0.2260
     83  O        -41.1340   -4.9270  -10.8190 O.2   109  VAL109     -0.2867
     84  CB       -38.6360   -4.8090   -9.1160 C.3   109  VAL109      0.0252
     85  CG1      -37.1710   -4.5370   -8.7580 C.3   109  VAL109      0.0019
     86  CG2      -39.5390   -3.6090   -8.8420 C.3   109  VAL109      0.0019
     87  N        -37.4520    1.3510  -14.7410 N.3   115  ARG115     -0.1245
     88  CA       -37.1780    2.7940  -14.6280 C.3   115  ARG115      0.1563
     89  C        -35.7910    3.1820  -15.1610 C.2   115  ARG115      0.2260
     90  O        -34.8120    2.4340  -15.0100 O.2   115  ARG115     -0.2867
     91  CB       -37.2380    3.2000  -13.1490 C.3   115  ARG115      0.0307
     92  CG       -38.5840    3.8250  -12.7620 C.3   115  ARG115      0.0489
     93  CD       -39.7350    2.8190  -12.9010 C.3   115  ARG115      0.2205
     94  NE       -40.9950    3.4170  -12.5100 N.pl3 115  ARG115     -0.0865
     95  CZ       -42.1690    2.8760  -12.6900 C.cat 115  ARG115      0.5346
     96  NH1      -42.2730    1.6690  -13.2250 N.pl3 115  ARG115      0.1354
     97  NH2      -43.2410    3.5460  -12.3390 N.pl3 115  ARG115      0.1354
     98  N        -33.0970    6.9020  -15.1370 N.3   117  VAL117     -0.1245
     99  CA       -32.8320    8.1240  -14.3720 C.3   117  VAL117      0.1561
    100  C        -31.7540    8.9290  -15.0990 C.2   117  VAL117      0.2260
    101  O        -30.8810    8.3570  -15.7690 O.2   117  VAL117     -0.2867
    102  CB       -32.3490    7.7890  -12.9370 C.3   117  VAL117      0.0252
    103  CG1      -30.9510    7.2400  -12.8430 C.3   117  VAL117      0.0019
    104  CG2      -32.6290    8.9160  -11.9300 C.3   117  VAL117      0.0019
    105  N        -29.2610   12.1500  -14.0250 N.3   119  TYR119     -0.1241
    106  CA       -29.0280   12.9580  -12.8280 C.3   119  TYR119      0.1605
    107  C        -27.6150   13.5350  -12.8680 C.2   119  TYR119      0.2264
    108  O        -26.7010   12.9350  -13.4490 O.2   119  TYR119     -0.2867
    109  CB       -29.2280   12.1020  -11.5520 C.3   119  TYR119      0.0534
    110  CG       -28.3120   10.9150  -11.3880 C.ar  119  TYR119     -0.0201
    111  CD1      -28.6300    9.7110  -12.0400 C.ar  119  TYR119     -0.0009
    112  CD2      -27.1500   10.9590  -10.6020 C.ar  119  TYR119     -0.0009
    113  CE1      -27.8340    8.5960  -11.8420 C.ar  119  TYR119      0.0417
    114  CE2      -26.3510    9.8400  -10.4020 C.ar  119  TYR119      0.0417
    115  CZ       -26.7100    8.6630  -11.0500 C.ar  119  TYR119      0.1957
    116  OH       -25.9720    7.5390  -10.9250 O.3   119  TYR119     -0.2866
    117  N        -26.6490   13.4150   -5.6930 N.3   138  ASN138     -0.1240
    118  CA       -27.1210   12.9570   -6.9970 C.3   138  ASN138      0.1653
    119  C        -28.5380   13.4810   -7.1750 C.2   138  ASN138      0.2266
    120  O        -29.4360   13.0750   -6.4060 O.2   138  ASN138     -0.2867
    121  CB       -27.1720   11.4060   -6.9750 C.3   138  ASN138      0.1155
    122  CG       -25.7900   10.7930   -6.9360 C.2   138  ASN138      0.2627
    123  OD1      -24.8460   11.4400   -7.3710 O.2   138  ASN138     -0.2716
    124  ND2      -25.6120    9.5750   -6.4270 N.am  138  ASN138     -0.0877
    125  N        -37.6950    7.9640  -13.6880 N.3   155  ALA155     -0.1245
    126  CA       -37.7940    8.3220  -12.2750 C.3   155  ALA155      0.1562
    127  C        -36.9970    9.6070  -12.0580 C.2   155  ALA155      0.2260
    128  O        -36.1450    9.9480  -12.8930 O.2   155  ALA155     -0.2867
    129  CB       -37.1770    7.2070  -11.4650 C.3   155  ALA155      0.0290
    130  N        -34.7670   11.7180   -8.9020 N.3   157  ILE157     -0.1245
    131  CA       -34.1300   11.3960   -7.6230 C.3   157  ILE157      0.1561
    132  C        -33.4980   12.6530   -7.0620 C.2   157  ILE157      0.2260
    133  O        -33.1630   13.6090   -7.8120 O.2   157  ILE157     -0.2867
    134  CB       -33.0790   10.2770   -7.7080 C.3   157  ILE157      0.0252
    135  CG1      -31.7930   10.7220   -8.4340 C.3   157  ILE157      0.0019
    136  CG2      -33.6660    9.0190   -8.3300 C.3   157  ILE157      0.0019
    137  CD1      -30.7010    9.6700   -8.4650 C.3   157  ILE157      0.0001
    138  N        -30.6790   12.4580   -3.9510 N.3   159  VAL159     -0.1245
    139  CA       -29.9770   11.5590   -3.0410 C.3   159  VAL159      0.1561
    140  C        -28.7520   12.2980   -2.5030 C.2   159  VAL159      0.2260
    141  O        -28.0990   13.0620   -3.2560 O.2   159  VAL159     -0.2867
    142  CB       -29.5310   10.2800   -3.7700 C.3   159  VAL159      0.0252
    143  CG1      -28.5600    9.4500   -2.9280 C.3   159  VAL159      0.0019
    144  CG2      -30.7760    9.4480   -4.2300 C.3   159  VAL159      0.0019
    145  N        -27.4510    9.0980    4.9540 N.3   181  TYR181     -0.1241
    146  CA       -27.7950    8.8390    3.5760 C.3   181  TYR181      0.1605
    147  C        -29.2740    9.1660    3.4200 C.2   181  TYR181      0.2264
    148  O        -30.1030    8.6260    4.1770 O.2   181  TYR181     -0.2867
    149  CB       -27.5480    7.3660    3.2350 C.3   181  TYR181      0.0534
    150  CG       -28.0540    6.9680    1.8650 C.ar  181  TYR181     -0.0201
    151  CD1      -27.3170    7.1970    0.7080 C.ar  181  TYR181     -0.0009
    152  CD2      -29.3210    6.4020    1.7130 C.ar  181  TYR181     -0.0009
    153  CE1      -27.7890    6.8370   -0.5620 C.ar  181  TYR181      0.0417
    154  CE2      -29.8140    6.0580    0.4610 C.ar  181  TYR181      0.0417
    155  CZ       -29.0560    6.2700   -0.6790 C.ar  181  TYR181      0.1957
    156  OH       -29.5880    5.9000   -1.8830 O.3   181  TYR181     -0.2866
    157  N        -37.1240    9.5980   -3.9600 N.3   185  VAL185     -0.1245
    158  CA       -37.2660    9.0520   -5.2950 C.3   185  VAL185      0.1561
    159  C        -38.7190    9.1380   -5.7340 C.2   185  VAL185      0.2260
    160  O        -39.6490    8.7110   -5.0020 O.2   185  VAL185     -0.2867
    161  CB       -36.7460    7.6000   -5.3630 C.3   185  VAL185      0.0252
    162  CG1      -37.0300    6.9700   -6.7460 C.3   185  VAL185      0.0019
    163  CG2      -35.2920    7.5130   -4.9570 C.3   185  VAL185      0.0019
    164  N        -40.9230    7.6560   -8.5360 N.2   187  PRO187     -0.2584
    165  CA       -40.8460    6.6160   -9.5720 C.3   187  PRO187      0.1895
    166  C        -41.3830    6.9530  -10.9650 C.2   187  PRO187      0.2359
    167  O        -41.1920    6.1590  -11.8900 O.2   187  PRO187     -0.2858
    168  CB       -41.6570    5.4160   -9.0150 C.2   187  PRO187      0.0071
    169  CG       -42.2110    5.8540   -7.6740 C.2   187  PRO187      0.0180
    170  CD       -41.7780    7.2830   -7.3880 C.2   187  PRO187      0.0937
    171  N        -43.1150   -1.1910   -4.5770 N.3   196  LEU196     -0.1245
    172  CA       -42.1150   -0.1490   -4.3040 C.3   196  LEU196      0.1561
    173  C        -41.6460   -0.2330   -2.8550 C.2   196  LEU196      0.2260
    174  O        -40.4500   -0.1240   -2.5910 O.2   196  LEU196     -0.2867
    175  CB       -42.7400    1.2230   -4.6070 C.3   196  LEU196      0.0270
    176  CG       -43.1040    1.3930   -6.0730 C.3   196  LEU196      0.0019
    177  CD1      -43.8100    2.7140   -6.3690 C.3   196  LEU196      0.0001
    178  CD2      -41.8640    1.2770   -6.9520 C.3   196  LEU196      0.0001
    179  N        -39.3830   -3.3080   -2.3130 N.3   199  VAL199     -0.1231
    180  CA       -38.0750   -3.0730   -2.9400 C.3   199  VAL199      0.1692
    181  C        -37.2340   -2.1440   -2.0390 C.2   199  VAL199      0.2591
    182  O        -36.0800   -2.4580   -1.7050 O.2   199  VAL199     -0.2718
    183  CB       -38.1940   -2.5230   -4.3790 C.3   199  VAL199      0.0266
    184  CG1      -36.8190   -2.1220   -4.9280 C.3   199  VAL199      0.0020
    185  CG2      -38.8850   -3.4880   -5.3520 C.3   199  VAL199      0.0020
    186  N        -37.8100   -1.0060   -1.5940 N.am  200  ALA200     -0.1980
    187  CA       -37.0570   -0.1000   -0.7310 C.3   200  ALA200      0.1597
    188  C        -36.5930   -0.8210    0.5380 C.2   200  ALA200      0.2287
    189  O        -35.4720   -0.6620    1.0290 O.2   200  ALA200     -0.2864
    190  CB       -37.8900    1.1330   -0.3990 C.3   200  ALA200      0.0319
    191  N        -33.8170   -3.2740   -0.4250 N.3   203  GLU203     -0.1231
    192  CA       -32.6530   -2.8870   -1.2220 C.3   203  GLU203      0.1699
    193  C        -31.8330   -1.8120   -0.5050 C.2   203  GLU203      0.2592
    194  O        -30.6260   -1.7360   -0.7350 O.2   203  GLU203     -0.2718
    195  CB       -33.0010   -2.4390   -2.6460 C.3   203  GLU203      0.0402
    196  CG       -33.4850   -3.5650   -3.5900 C.3   203  GLU203      0.1161
    197  CD       -32.5680   -4.7760   -3.8090 C.2   203  GLU203      0.3649
    198  OE1      -31.2930   -4.6410   -3.6870 O.co2 203  GLU203     -0.2457
    199  OE2      -33.1240   -5.8920   -4.0790 O.co2 203  GLU203     -0.2457
    200  N        -32.4670   -0.9280    0.2620 N.am  204  TYR204     -0.1976
    201  CA       -31.6680    0.1300    0.9010 C.3   204  TYR204      0.1639
    202  C        -30.6870   -0.4300    1.9440 C.2   204  TYR204      0.2290
    203  O        -29.4850   -0.0680    1.9630 O.2   204  TYR204     -0.2864
    204  CB       -32.5370    1.2710    1.4460 C.3   204  TYR204      0.0560
    205  CG       -32.9840    2.2450    0.3860 C.ar  204  TYR204     -0.0198
    206  CD1      -32.0600    2.9840   -0.3730 C.ar  204  TYR204     -0.0009
    207  CD2      -34.3290    2.3870    0.0910 C.ar  204  TYR204     -0.0009
    208  CE1      -32.4990    3.8860   -1.3440 C.ar  204  TYR204      0.0417
    209  CE2      -34.7630    3.2470   -0.8980 C.ar  204  TYR204      0.0417
    210  CZ       -33.8560    4.0150   -1.6000 C.ar  204  TYR204      0.1957
    211  OH       -34.3880    4.8780   -2.5400 O.3   204  TYR204     -0.2866
    212  N        -27.8880   -2.3380    0.1550 N.3   207  PHE207     -0.1241
    213  CA       -26.9390   -1.3880   -0.4360 C.3   207  PHE207      0.1605
    214  C        -26.0020   -0.8540    0.6560 C.2   207  PHE207      0.2264
    215  O        -24.7830   -0.8190    0.4320 O.2   207  PHE207     -0.2867
    216  CB       -27.7100   -0.2870   -1.1880 C.3   207  PHE207      0.0534
    217  CG       -27.0150    1.0550   -1.1960 C.ar  207  PHE207     -0.0203
    218  CD1      -25.8200    1.2400   -1.8850 C.ar  207  PHE207     -0.0042
    219  CD2      -27.5240    2.1050   -0.4520 C.ar  207  PHE207     -0.0042
    220  CE1      -25.1530    2.4620   -1.8330 C.ar  207  PHE207     -0.0003
    221  CE2      -26.8600    3.3260   -0.4020 C.ar  207  PHE207     -0.0003
    222  CZ       -25.6990    3.5020   -1.1210 C.ar  207  PHE207     -0.0000
@<TRIPOS>BOND
     1    61    62    1
     2    63    62    1
     3    63    64    2
     4    62    65    1
     5   101   100    2
     6    89    90    2
     7    89    88    1
     8    98    99    1
     9   100    99    1
    10    87    88    1
    11    65    66    1
    12    88    91    1
    13    73    72    2
    14    99   102    1
    15    70    71    1
    16   105   106    1
    17   125   126    1
    18    59    57    1
    19    72    71    1
    20    55    56    2
    21    55    54    1
    22   108   107    2
    23    66    67    1
    24    71    74    1
    25    96    95    1
    26    91    92    1
    27   102   103    1
    28   102   104    1
    29    93    92    1
    30    93    94    1
    31   128   127    2
    32   107   106    1
    33   106   109    1
    34    95    94    2
    35    95    97    1
    36    54    57    1
    37    54    53    1
    38    57    58    1
    39   126   127    1
    40   126   129    1
    41    67    68    2
    42    67    69   am
    43    74    75    1
    44   111   113   ar
    45   111   110   ar
    46   167   166    2
    47   113   115   ar
    48    77    75   ar
    49    77    79   ar
    50    80    81    1
    51   109   110    1
    52    60    58    1
    53   110   112   ar
    54    75    76   ar
    55    49    48    2
    56    53    48   am
    57   115   116    1
    58   115   114   ar
    59   166   165    1
    60    82    83    2
    61    82    81    1
    62    16    17    1
    63    16    13    1
    64    79    78   ar
    65    17    18    1
    66    48    47    1
    67   112   114   ar
    68    81    84    1
    69    76    78   ar
    70    12    13    1
    71    21    20    1
    72    14    13    1
    73    14    15    2
    74    19    20    2
    75    19    18    1
    76   165   168    1
    77   165   164    1
    78    20    22    1
    79    47    46    1
    80    47    50    1
    81    42    41    1
    82    42    43    1
    83    84    86    1
    84    84    85    1
    85   168   169    2
    86   130   131    1
    87    41    38    1
    88   164   170    2
    89    40    39    2
    90   137   135    1
    91   135   134    1
    92   136   134    1
    93    50    51    1
    94    50    52    1
    95    43    44   ar
    96    43    45   ar
    97    39    38    1
    98   133   132    2
    99   134   131    1
   100   169   170    1
   101   131   132    1
   102    38    37    1
   103   123   122    2
   104   119   118    1
   105   119   120    2
   106    37    25   am
   107   118   121    1
   108   118   117    1
   109   121   122    1
   110   178   176    1
   111   122   124   am
   112   162   161    1
   113    23    24    1
   114   177   176    1
   115     4     3    2
   116   176   175    1
   117    31    32   ar
   118    31    29   ar
   119    25    24    1
   120    25    26    2
   121    34    32   ar
   122    34    36   ar
   123   159   158    1
   124   159   160    2
   125    32    30   ar
   126    36    35   ar
   127    24    27    1
   128    29    28   ar
   129   161   158    1
   130   161   163    1
   131   185   183    1
   132   158   157    1
   133     3     2    1
   134    30    28   ar
   135    30    33   ar
   136    28    27    1
   137    35    33   ar
   138   184   183    1
   139   175   172    1
   140   171   172    1
   141   183   180    1
   142   172   173    1
   143   144   142    1
   144   199   197   ar
   145     2     1    1
   146     2     5    1
   147   138   139    1
   148   197   198   ar
   149   197   196    1
   150   142   139    1
   151   142   143    1
   152   196   195    1
   153    11    10   ar
   154    11     9   ar
   155    10     8   ar
   156     9     7   ar
   157   141   140    2
   158     7     6   ar
   159     8     6   ar
   160     6     5    1
   161   139   140    1
   162   180   179    1
   163   180   181    1
   164   173   174    2
   165   195   192    1
   166   211   210    1
   167   181   182    2
   168   181   186   am
   169   218   220   ar
   170   218   217   ar
   171   156   155    1
   172   220   222   ar
   173   210   208   ar
   174   210   209   ar
   175   186   187    1
   176   208   206   ar
   177   192   193    1
   178   192   191    1
   179   217   216    1
   180   217   219   ar
   181   216   213    1
   182   222   221   ar
   183   209   207   ar
   184   194   193    2
   185   187   190    1
   186   187   188    1
   187   155   153   ar
   188   155   154   ar
   189   153   151   ar
   190   193   200   am
   191   219   221   ar
   192   213   212    1
   193   213   214    1
   194   206   205   ar
   195   207   205   ar
   196   200   201    1
   197   205   204    1
   198   215   214    2
   199   154   152   ar
   200   188   189    2
   201   151   150   ar
   202   201   204    1
   203   201   202    1
   204   152   150   ar
   205   150   149    1
   206   202   203    2
   207   149   146    1
   208   147   146    1
   209   147   148    2
   210   146   145    1
