@<TRIPOS>MOLECULE
tmp/6jcjB01.pdb
 176 167 0 0 0
SMALL
GASTEIGER

@<TRIPOS>ATOM
      1  N        -17.4280  -56.5600   32.3760 N.3   200  TYR200     -0.1241
      2  CA       -15.9560  -56.4500   32.3750 C.3   200  TYR200      0.1605
      3  C        -15.5520  -55.1520   31.6610 C.2   200  TYR200      0.2264
      4  O        -15.7590  -55.0680   30.4380 O.2   200  TYR200     -0.2867
      5  CB       -15.3960  -57.6890   31.6940 C.3   200  TYR200      0.0534
      6  CG       -15.5920  -58.9530   32.4790 C.ar  200  TYR200     -0.0201
      7  CD1      -14.9700  -59.1390   33.6980 C.ar  200  TYR200     -0.0009
      8  CD2      -16.3530  -59.9900   31.9800 C.ar  200  TYR200     -0.0009
      9  CE1      -15.1120  -60.3150   34.4130 C.ar  200  TYR200      0.0417
     10  CE2      -16.4990  -61.1810   32.6690 C.ar  200  TYR200      0.0417
     11  CZ       -15.8830  -61.3440   33.8980 C.ar  200  TYR200      0.1957
     12  OH       -16.0400  -62.5140   34.5900 O.3   200  TYR200     -0.2866
     13  N         -8.9670  -66.0700   30.8280 N.3   235  GLY235     -0.1210
     14  CA        -8.8680  -66.1050   32.2960 C.3   235  GLY235      0.1956
     15  C        -10.2290  -66.1210   32.9640 C.2   235  GLY235      0.2611
     16  O        -10.5150  -67.0950   33.6900 O.2   235  GLY235     -0.2717
     17  N        -11.0490  -65.0950   32.7230 N.am  236  VAL236     -0.1979
     18  CA       -12.2960  -64.8480   33.5120 C.3   236  VAL236      0.1595
     19  C        -13.3730  -65.8740   33.1600 C.2   236  VAL236      0.2287
     20  O        -14.4110  -65.8220   33.8030 O.2   236  VAL236     -0.2864
     21  CB       -12.8360  -63.4150   33.3340 C.3   236  VAL236      0.0276
     22  CG1      -11.8010  -62.3740   33.7510 C.3   236  VAL236      0.0022
     23  CG2      -13.3430  -63.1640   31.9200 C.3   236  VAL236      0.0022
     24  N        -13.2680  -70.9940   34.7650 N.3   239  CYS239     -0.1221
     25  CA       -14.0930  -71.7890   35.7080 C.3   239  CYS239      0.1808
     26  C        -15.4680  -72.1090   35.1180 C.2   239  CYS239      0.2601
     27  O        -16.0870  -73.0970   35.5820 O.2   239  CYS239     -0.2717
     28  CB       -14.2430  -71.0690   37.0340 C.3   239  CYS239      0.0970
     29  SG       -12.6450  -70.8840   37.8540 S.3   239  CYS239     -0.0800
     30  N        -15.9400  -71.3200   34.1500 N.am  240  LEU240     -0.1979
     31  CA       -17.1950  -71.6160   33.4100 C.3   240  LEU240      0.1596
     32  C        -16.9380  -72.8110   32.4800 C.2   240  LEU240      0.2287
     33  O        -17.8840  -73.5720   32.2050 O.2   240  LEU240     -0.2864
     34  CB       -17.6410  -70.3700   32.6280 C.3   240  LEU240      0.0297
     35  CG       -18.0620  -69.1670   33.4730 C.3   240  LEU240      0.0022
     36  CD1      -18.3760  -67.9600   32.5910 C.3   240  LEU240      0.0001
     37  CD2      -19.2520  -69.5030   34.3490 C.3   240  LEU240      0.0001
     38  N        -14.8520  -75.7100   41.7870 N.3   246  LEU246     -0.1231
     39  CA       -15.6750  -74.4700   41.7410 C.3   246  LEU246      0.1693
     40  C        -16.9420  -74.7510   40.9230 C.2   246  LEU246      0.2592
     41  O        -18.0470  -74.6200   41.4990 O.2   246  LEU246     -0.2718
     42  CB       -14.8950  -73.2670   41.2050 C.3   246  LEU246      0.0284
     43  CG       -15.0200  -71.9980   42.0580 C.3   246  LEU246      0.0019
     44  CD1      -14.9200  -70.7450   41.2020 C.3   246  LEU246      0.0001
     45  CD2      -16.3120  -71.9640   42.8640 C.3   246  LEU246      0.0001
     46  N        -16.8150  -75.1630   39.6570 N.am  247  ASN247     -0.1960
     47  CA       -18.0150  -75.4540   38.8270 C.3   247  ASN247      0.1819
     48  C        -18.8420  -74.1590   38.7420 C.2   247  ASN247      0.2621
     49  O        -20.0250  -74.1720   39.1320 O.2   247  ASN247     -0.2715
     50  CB       -18.8090  -76.6220   39.4330 C.3   247  ASN247      0.1195
     51  CG       -19.7680  -77.2920   38.4670 C.2   247  ASN247      0.2630
     52  OD1      -20.9740  -77.0250   38.4890 O.2   247  ASN247     -0.2716
     53  ND2      -19.2460  -78.1830   37.6330 N.am  247  ASN247     -0.0877
     54  N        -18.2220  -73.0640   38.2950 N.am  248  ALA248     -0.1963
     55  CA       -18.8090  -71.7040   38.3410 C.3   248  ALA248      0.1728
     56  C        -19.8520  -71.5340   37.2320 C.2   248  ALA248      0.2616
     57  O        -19.8190  -72.2990   36.2670 O.2   248  ALA248     -0.2715
     58  CB       -17.7270  -70.6590   38.2470 C.3   248  ALA248      0.0334
     59  N        -20.7540  -70.5690   37.4100 N.am  249  ASP249     -0.1971
     60  CA       -21.7380  -70.1040   36.3970 C.3   249  ASP249      0.1709
     61  C        -21.9440  -68.5940   36.5670 C.2   249  ASP249      0.2293
     62  O        -21.5180  -68.0360   37.5970 O.2   249  ASP249     -0.2864
     63  CB       -23.0610  -70.8750   36.4810 C.3   249  ASP249      0.1436
     64  CG       -23.9020  -70.6140   37.7230 C.2   249  ASP249      0.3671
     65  OD1      -24.1020  -69.4240   38.0900 O.co2 249  ASP249     -0.2456
     66  OD2      -24.3560  -71.6130   38.3190 O.co2 249  ASP249     -0.2456
     67  N        -24.0130  -67.2730   39.7800 N.3   252  LYS252     -0.1231
     68  CA       -23.2380  -67.3690   41.0490 C.3   252  LYS252      0.1693
     69  C        -22.1470  -66.2980   41.0090 C.2   252  LYS252      0.2591
     70  O        -21.9050  -65.6550   42.0520 O.2   252  LYS252     -0.2718
     71  CB       -22.6890  -68.7800   41.2840 C.3   252  LYS252      0.0285
     72  CG       -23.5790  -69.6660   42.1450 C.3   252  LYS252      0.0035
     73  CD       -23.0080  -71.0490   42.4080 C.3   252  LYS252      0.0206
     74  CE       -23.8040  -72.1650   41.7690 C.3   252  LYS252      0.1093
     75  NZ       -22.9640  -73.3490   41.4350 N.3   252  LYS252     -0.1314
     76  N        -21.5640  -66.0670   39.8320 N.am  253  LEU253     -0.1980
     77  CA       -20.6420  -64.9190   39.6220 C.3   253  LEU253      0.1596
     78  C        -21.3420  -63.6360   40.0650 C.2   253  LEU253      0.2287
     79  O        -20.7400  -62.8950   40.8490 O.2   253  LEU253     -0.2864
     80  CB       -20.2150  -64.8220   38.1550 C.3   253  LEU253      0.0297
     81  CG       -19.3850  -63.5780   37.8150 C.3   253  LEU253      0.0022
     82  CD1      -18.1720  -63.4490   38.7280 C.3   253  LEU253      0.0001
     83  CD2      -18.9590  -63.5950   36.3590 C.3   253  LEU253      0.0001
     84  N        -22.4050  -63.3590   44.0130 N.3   256  ASN256     -0.1225
     85  CA       -21.2210  -63.2580   44.8970 C.3   256  ASN256      0.1785
     86  C        -20.4890  -61.9280   44.6690 C.2   256  ASN256      0.2597
     87  O        -19.9370  -61.4220   45.6740 O.2   256  ASN256     -0.2718
     88  CB       -20.3790  -64.5390   44.7770 C.3   256  ASN256      0.1169
     89  CG       -21.0490  -65.7130   45.4750 C.2   256  ASN256      0.2627
     90  OD1      -21.2220  -65.6830   46.6870 O.2   256  ASN256     -0.2716
     91  ND2      -21.4700  -66.7300   44.7390 N.am  256  ASN256     -0.0877
     92  N        -20.4830  -61.3620   43.4480 N.am  257  MET257     -0.1979
     93  CA       -19.6710  -60.1450   43.1260 C.3   257  MET257      0.1605
     94  C        -20.4800  -58.8480   43.3180 C.2   257  MET257      0.2287
     95  O        -19.8490  -57.8130   43.6090 O.2   257  MET257     -0.2864
     96  CB       -19.1390  -60.1570   41.6900 C.3   257  MET257      0.0413
     97  CG       -18.1720  -61.2860   41.3620 C.3   257  MET257      0.0598
     98  SD       -16.5080  -61.1500   42.0810 S.3   257  MET257     -0.1393
     99  CE       -15.9370  -59.5890   41.4150 C.3   257  MET257      0.0692
    100  N        -15.8770  -56.7820   46.3750 N.3   308  THR308     -0.1203
    101  CA       -15.7420  -58.2380   46.1270 C.3   308  THR308      0.1994
    102  C        -14.5520  -58.4790   45.2020 C.2   308  THR308      0.2618
    103  O        -14.1300  -57.5520   44.5160 O.2   308  THR308     -0.2717
    104  CB       -17.0460  -58.8290   45.5710 C.3   308  THR308      0.1784
    105  OG1      -17.3370  -58.1190   44.3650 O.3   308  THR308     -0.2211
    106  CG2      -18.2120  -58.7250   46.5330 C.3   308  THR308      0.0376
    107  N        -14.0190  -59.6950   45.2070 N.am  309  VAL309     -0.1965
    108  CA       -12.8180  -60.0650   44.4070 C.3   309  VAL309      0.1727
    109  C        -12.9110  -61.5460   44.0270 C.2   309  VAL309      0.2616
    110  O        -13.2690  -62.3360   44.8870 O.2   309  VAL309     -0.2715
    111  CB       -11.5300  -59.7730   45.1970 C.3   309  VAL309      0.0290
    112  CG1      -10.3020  -60.1160   44.3830 C.3   309  VAL309      0.0023
    113  CG2      -11.4490  -58.3290   45.6780 C.3   309  VAL309      0.0023
    114  N        -12.6050  -61.9050   42.7810 N.am  310  ALA310     -0.1963
    115  CA       -12.4570  -63.3160   42.3490 C.3   310  ALA310      0.1728
    116  C        -11.1270  -63.4650   41.6120 C.2   310  ALA310      0.2616
    117  O        -10.8070  -62.6100   40.7600 O.2   310  ALA310     -0.2715
    118  CB       -13.6140  -63.7710   41.4950 C.3   310  ALA310      0.0334
    119  N        -10.3570  -64.4810   41.9750 N.am  311  ALA311     -0.1963
    120  CA        -8.9950  -64.7070   41.4530 C.3   311  ALA311      0.1728
    121  C         -8.9200  -66.1460   40.9530 C.2   311  ALA311      0.2616
    122  O         -9.4160  -67.0600   41.6400 O.2   311  ALA311     -0.2715
    123  CB        -7.9610  -64.3990   42.5100 C.3   311  ALA311      0.0334
    124  N         -8.3490  -66.3530   39.7770 N.am  312  ILE312     -0.1977
    125  CA        -8.2210  -67.7340   39.2540 C.3   312  ILE312      0.1596
    126  C         -6.7760  -67.9830   38.8230 C.2   312  ILE312      0.2287
    127  O         -6.3030  -67.3330   37.8860 O.2   312  ILE312     -0.2864
    128  CB        -9.2760  -67.9900   38.1710 C.3   312  ILE312      0.0276
    129  CG1       -9.1150  -69.3790   37.5560 C.3   312  ILE312      0.0022
    130  CG2       -9.2870  -66.8780   37.1390 C.3   312  ILE312      0.0022
    131  CD1       -8.6120  -69.3790   36.1430 C.3   312  ILE312      0.0001
    132  N        -15.2060  -62.1100   54.3330 N.3   343  ASN343     -0.1225
    133  CA       -14.7670  -63.2030   53.4230 C.3   343  ASN343      0.1785
    134  C        -15.1330  -62.8460   51.9710 C.2   343  ASN343      0.2597
    135  O        -15.7340  -63.7050   51.2880 O.2   343  ASN343     -0.2718
    136  CB       -15.3900  -64.5330   53.8740 C.3   343  ASN343      0.1169
    137  CG       -14.9780  -65.7640   53.0800 C.2   343  ASN343      0.2627
    138  OD1      -15.8090  -66.6270   52.8000 O.2   343  ASN343     -0.2716
    139  ND2      -13.7000  -65.8950   52.7530 N.am  343  ASN343     -0.0877
    140  N        -14.7700  -61.6360   51.5140 N.am  344  ASN344     -0.1960
    141  CA       -15.2220  -61.0710   50.2090 C.3   344  ASN344      0.1819
    142  C        -14.2820  -61.4920   49.0780 C.2   344  ASN344      0.2621
    143  O        -14.6310  -61.2290   47.9040 O.2   344  ASN344     -0.2715
    144  CB       -15.4180  -59.5520   50.2300 C.3   344  ASN344      0.1195
    145  CG       -14.1610  -58.7410   50.4370 C.2   344  ASN344      0.2630
    146  OD1      -13.1270  -59.2590   50.8500 O.2   344  ASN344     -0.2716
    147  ND2      -14.2550  -57.4520   50.1580 N.am  344  ASN344     -0.0877
    148  N        -13.1570  -62.1330   49.4010 N.am  345  VAL345     -0.1963
    149  CA       -12.1700  -62.6090   48.3910 C.3   345  VAL345      0.1727
    150  C        -12.3120  -64.1170   48.2070 C.2   345  VAL345      0.2616
    151  O        -12.2000  -64.8750   49.2000 O.2   345  VAL345     -0.2715
    152  CB       -10.7280  -62.2480   48.7690 C.3   345  VAL345      0.0290
    153  CG1       -9.7750  -62.5700   47.6290 C.3   345  VAL345      0.0023
    154  CG2      -10.6050  -60.7910   49.1710 C.3   345  VAL345      0.0023
    155  N        -12.4990  -64.5470   46.9690 N.am  346  LYS346     -0.1977
    156  CA       -12.6300  -65.9790   46.6360 C.3   346  LYS346      0.1596
    157  C        -11.6030  -66.3790   45.5760 C.2   346  LYS346      0.2287
    158  O        -11.5470  -65.7530   44.5150 O.2   346  LYS346     -0.2864
    159  CB       -14.0360  -66.2780   46.1390 C.3   346  LYS346      0.0298
    160  CG       -14.1210  -67.4820   45.2230 C.3   346  LYS346      0.0038
    161  CD       -15.0570  -68.5500   45.7020 C.3   346  LYS346      0.0206
    162  CE       -14.6000  -69.1820   46.9940 C.3   346  LYS346      0.1093
    163  NZ       -15.2420  -70.5000   47.2110 N.3   346  LYS346     -0.1314
    164  N         -9.7030  -69.5350   43.1750 N.3   348  ALA348     -0.1245
    165  CA        -9.9550  -70.8130   42.4790 C.3   348  ALA348      0.1562
    166  C         -8.7010  -71.2070   41.7090 C.2   348  ALA348      0.2260
    167  O         -7.9060  -70.3240   41.3230 O.2   348  ALA348     -0.2867
    168  CB       -11.1320  -70.7090   41.5580 C.3   348  ALA348      0.0290
    169  N        -10.4530  -60.4490   39.0610 N.3   364  ILE364     -0.1245
    170  CA       -11.7670  -59.7840   38.8160 C.3   364  ILE364      0.1561
    171  C        -12.1330  -59.0170   40.0720 C.2   364  ILE364      0.2260
    172  O        -12.4910  -59.6700   41.0330 O.2   364  ILE364     -0.2867
    173  CB       -12.8680  -60.8050   38.4980 C.3   364  ILE364      0.0252
    174  CG1      -12.4390  -61.7730   37.3990 C.3   364  ILE364      0.0019
    175  CG2      -14.1580  -60.0770   38.1580 C.3   364  ILE364      0.0019
    176  CD1      -13.4650  -62.8150   37.0820 C.3   364  ILE364      0.0001
@<TRIPOS>BOND
     1     4     3    2
     2    13    14    1
     3     3     2    1
     4     5     2    1
     5     5     6    1
     6    23    21    1
     7     8     6   ar
     8     8    10   ar
     9    33    32    2
    10    14    15    1
    11     2     1    1
    12     6     7   ar
    13    32    31    1
    14    36    35    1
    15    34    31    1
    16    34    35    1
    17    10    11   ar
    18    17    15   am
    19    17    18    1
    20    15    16    2
    21    19    18    1
    22    19    20    2
    23    21    18    1
    24    21    22    1
    25    31    30    1
    26    35    37    1
    27     7     9   ar
    28    11     9   ar
    29    11    12    1
    30    30    26   am
    31    24    25    1
    32    26    27    2
    33    26    25    1
    34    25    28    1
    35   131   129    1
    36    57    56    2
    37    83    81    1
    38    60    63    1
    39    60    61    1
    40    60    59    1
    41    63    64    1
    42    61    62    2
    43    28    29    1
    44   176   174    1
    45   130   128    1
    46    56    59   am
    47    56    55    1
    48   174   173    1
    49   129   128    1
    50    53    51   am
    51    64    65   ar
    52    64    66   ar
    53    81    80    1
    54    81    82    1
    55   127   126    2
    56    80    77    1
    57   175   173    1
    58   128   125    1
    59    58    55    1
    60    54    55    1
    61    54    48   am
    62    51    52    2
    63    51    50    1
    64   173   170    1
    65    48    47    1
    66    48    49    2
    67   170   169    1
    68   170   171    1
    69   126   125    1
    70    47    50    1
    71    47    46    1
    72   125   124    1
    73    77    76    1
    74    77    78    1
    75    46    40   am
    76   124   121   am
    77    67    68    1
    78    76    69   am
    79    78    79    2
    80   171   172    2
    81   117   116    2
    82    40    41    2
    83    40    39    1
    84   121   120    1
    85   121   122    2
    86    69    68    1
    87    69    70    2
    88    68    71    1
    89    44    43    1
    90    42    39    1
    91    42    43    1
    92    71    72    1
    93   167   166    2
    94    97    96    1
    95    97    98    1
    96    99    98    1
    97    75    74    1
    98   120   119    1
    99   120   123    1
   100   118   115    1
   101   168   165    1
   102   116   119   am
   103   116   115    1
   104    96    93    1
   105   166   165    1
   106    39    38    1
   107    74    73    1
   108    43    45    1
   109    72    73    1
   110   115   114    1
   111   165   164    1
   112   114   109   am
   113    93    94    1
   114    93    92    1
   115    94    95    2
   116    92    86   am
   117    84    85    1
   118   109   108    1
   119   109   110    2
   120   105   104    1
   121   112   111    1
   122   108   111    1
   123   108   107    1
   124   158   157    2
   125   103   102    2
   126    86    85    1
   127    86    87    2
   128    91    89   am
   129    88    85    1
   130    88    89    1
   131   111   113    1
   132   102   107   am
   133   102   101    1
   134   160   161    1
   135   160   159    1
   136    89    90    2
   137   104   101    1
   138   104   106    1
   139   157   156    1
   140   161   162    1
   141   101   100    1
   142   159   156    1
   143   156   155    1
   144   155   150   am
   145   162   163    1
   146   153   152    1
   147   143   142    2
   148   150   149    1
   149   150   151    2
   150   149   152    1
   151   149   148    1
   152   152   154    1
   153   142   148   am
   154   142   141    1
   155   147   145   am
   156   141   144    1
   157   141   140    1
   158   144   145    1
   159   145   146    2
   160   135   134    2
   161   140   134   am
   162   134   133    1
   163   139   137   am
   164   138   137    2
   165   137   136    1
   166   133   136    1
   167   133   132    1
