@<TRIPOS>MOLECULE
tmp/6jdwA00.pdb
 117 110 0 0 0
SMALL
GASTEIGER

@<TRIPOS>ATOM
      1  N         55.4940   65.6470   17.7670 N.3   104  MET104     -0.1245
      2  CA        54.1740   65.0620   17.5460 C.3   104  MET104      0.1570
      3  C         54.1080   63.8370   16.6380 C.2   104  MET104      0.2261
      4  O         53.9590   63.9720   15.4270 O.2   104  MET104     -0.2867
      5  CB        53.2510   66.1400   16.9840 C.3   104  MET104      0.0387
      6  CG        53.3770   67.5190   17.6290 C.3   104  MET104      0.0595
      7  SD        52.9420   67.5260   19.3810 S.3   104  MET104     -0.1393
      8  CE        53.6730   69.0890   19.9080 C.3   104  MET104      0.0692
      9  N         40.1510   74.2700   12.9550 N.3   237  ASN237     -0.1240
     10  CA        41.5500   74.4900   13.2800 C.3   237  ASN237      0.1653
     11  C         42.2920   74.3710   11.9220 C.2   237  ASN237      0.2266
     12  O         41.9620   73.5040   11.0980 O.2   237  ASN237     -0.2867
     13  CB        42.0390   73.4100   14.2650 C.3   237  ASN237      0.1155
     14  CG        43.3240   73.8130   14.9940 C.2   237  ASN237      0.2627
     15  OD1       44.4230   73.3330   14.6840 O.2   237  ASN237     -0.2716
     16  ND2       43.1920   74.7280   15.9540 N.am  237  ASN237     -0.0877
     17  N         44.8940   73.0500   11.1160 N.3   239  MET239     -0.1230
     18  CA        45.4430   71.7330   10.9200 C.3   239  MET239      0.1702
     19  C         45.1600   70.8500   12.1170 C.2   239  MET239      0.2592
     20  O         45.3020   71.2750   13.2630 O.2   239  MET239     -0.2718
     21  CB        46.9500   71.8130   10.6670 C.3   239  MET239      0.0401
     22  CG        47.7700   72.4220   11.7950 C.3   239  MET239      0.0596
     23  SD        49.5330   72.4960   11.3780 S.3   239  MET239     -0.1393
     24  CE        50.3040   72.9470   12.9690 C.3   239  MET239      0.0692
     25  N         44.8140   69.6000   11.8260 N.am  240  HIS240     -0.1976
     26  CA        44.5530   68.5730   12.8270 C.3   240  HIS240      0.1656
     27  C         43.1290   68.5990   13.3350 C.2   240  HIS240      0.2291
     28  O         42.5420   69.6710   13.5050 O.2   240  HIS240     -0.2864
     29  CB        45.5840   68.6110   13.9550 C.3   240  HIS240      0.0771
     30  CG        47.0010   68.6120   13.4600 C.ar  240  HIS240      0.0820
     31  ND1       48.0520   69.1130   14.2000 N.ar  240  HIS240     -0.2267
     32  CD2       47.5310   68.2200   12.2770 C.ar  240  HIS240      0.1154
     33  CE1       49.1710   69.0380   13.4900 C.ar  240  HIS240      0.1986
     34  NE2       48.8680   68.4970   12.3170 N.ar  240  HIS240     -0.2212
     35  N         42.0590   66.2910   16.0310 N.3   242  ASP242     -0.1225
     36  CA        41.9940   65.8010   17.4200 C.3   242  ASP242      0.1805
     37  C         41.7190   66.7180   18.6210 C.2   242  ASP242      0.2598
     38  O         41.7090   66.2490   19.7430 O.2   242  ASP242     -0.2718
     39  CB        43.1290   64.7980   17.7240 C.3   242  ASP242      0.1424
     40  CG        44.5150   65.3420   17.4220 C.2   242  ASP242      0.3668
     41  OD1       44.6620   66.3530   16.7070 O.co2 242  ASP242     -0.2456
     42  OD2       45.4920   64.7460   17.8900 O.co2 242  ASP242     -0.2456
     43  N         41.5030   68.0080   18.3770 N.am  243  ALA243     -0.1966
     44  CA        41.1150   68.9460   19.4370 C.3   243  ALA243      0.1728
     45  C         39.8450   69.6420   18.9040 C.2   243  ALA243      0.2616
     46  O         39.5360   70.7860   19.2350 O.2   243  ALA243     -0.2715
     47  CB        42.2180   69.9610   19.7680 C.3   243  ALA243      0.0334
     48  N         39.1170   68.9280   18.0460 N.am  244  THR244     -0.1951
     49  CA        37.8960   69.4530   17.4550 C.3   244  THR244      0.1897
     50  C         36.8220   68.3740   17.5230 C.2   244  THR244      0.2313
     51  O         35.6600   68.6630   17.8160 O.2   244  THR244     -0.2863
     52  CB        38.1230   69.8410   15.9490 C.3   244  THR244      0.1794
     53  OG1       39.1160   70.8740   15.8480 O.3   244  THR244     -0.2208
     54  CG2       36.8320   70.3570   15.3440 C.3   244  THR244      0.0378
     55  N         33.7790   74.7740   17.4130 N.3   259  ARG259     -0.1245
     56  CA        33.9180   74.2360   16.0550 C.3   259  ARG259      0.1563
     57  C         32.8850   73.1680   15.7550 C.2   259  ARG259      0.2260
     58  O         33.2180   71.9950   15.5500 O.2   259  ARG259     -0.2867
     59  CB        35.3200   73.6530   15.8730 C.3   259  ARG259      0.0307
     60  CG        36.3930   74.6380   16.2160 C.3   259  ARG259      0.0489
     61  CD        37.7280   73.9940   16.4130 C.3   259  ARG259      0.2205
     62  NE        38.6770   75.0000   16.8710 N.pl3 259  ARG259     -0.0865
     63  CZ        39.8640   74.7470   17.4150 C.cat 259  ARG259      0.5346
     64  NH1       40.2950   73.4990   17.5910 N.pl3 259  ARG259      0.1354
     65  NH2       40.6250   75.7700   17.7810 N.pl3 259  ARG259      0.1354
     66  N         48.6780   75.5470   17.5860 N.3   291  SER291     -0.1202
     67  CA        47.4810   75.0840   18.2740 C.3   291  SER291      0.2020
     68  C         46.7290   76.2320   18.9540 C.2   291  SER291      0.2619
     69  O         47.0630   77.4150   18.8070 O.2   291  SER291     -0.2717
     70  CB        47.8410   74.0140   19.3110 C.3   291  SER291      0.2103
     71  OG        46.8200   73.0380   19.4520 O.3   291  SER291     -0.2182
     72  N         45.6480   75.8690   19.6250 N.am  292  SER292     -0.1951
     73  CA        44.8160   76.8110   20.3400 C.3   292  SER292      0.1924
     74  C         44.7270   76.3460   21.8010 C.2   292  SER292      0.2314
     75  O         45.3190   75.3360   22.1830 O.2   292  SER292     -0.2863
     76  CB        43.4320   76.8150   19.7030 C.3   292  SER292      0.2116
     77  OG        42.9110   75.4950   19.6670 O.3   292  SER292     -0.2180
     78  N         42.3520   74.9430   23.1210 N.3   294  TRP294     -0.1227
     79  CA        41.5770   73.7120   23.1800 C.3   294  TRP294      0.1737
     80  C         42.3360   72.4010   23.3340 C.2   294  TRP294      0.2595
     81  O         41.7420   71.3300   23.2570 O.2   294  TRP294     -0.2718
     82  CB        40.6100   73.6480   22.0080 C.3   294  TRP294      0.0564
     83  CG        39.4320   74.5270   22.2380 C.ar  294  TRP294      0.0003
     84  CD1       39.1640   75.7220   21.6400 C.ar  294  TRP294      0.0946
     85  CD2       38.3510   74.2780   23.1520 C.ar  294  TRP294      0.0152
     86  NE1       37.9740   76.2360   22.1240 N.ar  294  TRP294     -0.2442
     87  CE2       37.4560   75.3650   23.0460 C.ar  294  TRP294      0.0810
     88  CE3       38.0490   73.2370   24.0450 C.ar  294  TRP294      0.0012
     89  CZ2       36.2810   75.4350   23.8020 C.ar  294  TRP294      0.0191
     90  CZ3       36.8790   73.3120   24.7910 C.ar  294  TRP294      0.0001
     91  CH2       36.0130   74.4050   24.6600 C.ar  294  TRP294      0.0015
     92  N         43.6280   72.4810   23.6340 N.am  295  LEU295     -0.1980
     93  CA        44.4320   71.2860   23.8220 C.3   295  LEU295      0.1596
     94  C         43.9040   70.4920   24.9870 C.2   295  LEU295      0.2287
     95  O         44.2340   69.3160   25.1490 O.2   295  LEU295     -0.2864
     96  CB        45.8890   71.6530   24.0660 C.3   295  LEU295      0.0297
     97  CG        46.5950   72.1750   22.8150 C.3   295  LEU295      0.0022
     98  CD1       47.9910   72.5750   23.1740 C.3   295  LEU295      0.0001
     99  CD2       46.5970   71.0960   21.7110 C.3   295  LEU295      0.0001
    100  N         42.3670   67.4140   23.9210 N.3   298  ASN298     -0.1240
    101  CA        43.2450   66.5900   23.1100 C.3   298  ASN298      0.1653
    102  C         43.7340   65.4230   23.9860 C.2   298  ASN298      0.2266
    103  O         44.9310   65.1260   24.0660 O.2   298  ASN298     -0.2867
    104  CB        44.4130   67.4490   22.6240 C.3   298  ASN298      0.1155
    105  CG        45.1900   66.7940   21.5310 C.2   298  ASN298      0.2627
    106  OD1       44.6160   66.2390   20.5880 O.2   298  ASN298     -0.2716
    107  ND2       46.5030   66.8350   21.6420 N.am  298  ASN298     -0.0877
    108  N         52.5590   72.8010   20.3870 N.3   339  GLY339     -0.1225
    109  CA        51.4370   72.5290   19.5160 C.3   339  GLY339      0.1811
    110  C         50.5700   71.3320   19.8240 C.2   339  GLY339      0.2280
    111  O         49.6600   71.0280   19.0370 O.2   339  GLY339     -0.2866
    112  N         48.2890   64.2970   20.5340 N.3   344  CYS344     -0.1235
    113  CA        49.3020   64.6900   19.5680 C.3   344  CYS344      0.1677
    114  C         50.6950   64.1920   19.9040 C.2   344  CYS344      0.2270
    115  O         51.4600   63.8580   18.9970 O.2   344  CYS344     -0.2867
    116  CB        49.3960   66.2060   19.4460 C.3   344  CYS344      0.0956
    117  SG        48.1530   66.9710   18.4700 S.3   344  CYS344     -0.0801
@<TRIPOS>BOND
     1    21    18    1
     2    21    22    1
     3    18    17    1
     4    18    19    1
     5    12    11    2
     6    23    22    1
     7    23    24    1
     8    25    19   am
     9    25    26    1
    10    11    10    1
    11    19    20    2
    12    32    34   ar
    13    32    30   ar
    14    34    33   ar
    15    26    27    1
    16    26    29    1
    17     9    10    1
    18    10    13    1
    19    27    28    2
    20    30    29    1
    21    30    31   ar
    22    33    31   ar
    23    13    14    1
    24    15    14    2
    25    14    16   am
    26    54    52    1
    27     4     3    2
    28    58    57    2
    29    57    56    1
    30    53    52    1
    31    59    56    1
    32    59    60    1
    33    52    49    1
    34    35    36    1
    35    56    55    1
    36    60    61    1
    37    61    62    1
    38     3     2    1
    39    41    40   ar
    40    62    63    2
    41     5     2    1
    42     5     6    1
    43    63    64    1
    44    63    65    1
    45    36    39    1
    46    36    37    1
    47    40    39    1
    48    40    42   ar
    49    49    50    1
    50    49    48    1
    51    50    51    2
    52     2     1    1
    53    66    67    1
    54     6     7    1
    55    48    45   am
    56    67    68    1
    57    67    70    1
    58    43    37   am
    59    43    44    1
    60   117   116    1
    61    37    38    2
    62    69    68    2
    63    45    46    2
    64    45    44    1
    65    68    72   am
    66   115   114    2
    67   111   110    2
    68    70    71    1
    69     7     8    1
    70    44    47    1
    71   116   113    1
    72   109   110    1
    73   109   108    1
    74   113   114    1
    75   113   112    1
    76    72    73    1
    77    77    76    1
    78    76    73    1
    79    73    74    1
    80   106   105    2
    81   105   107   am
    82   105   104    1
    83    84    86   ar
    84    84    83   ar
    85    99    97    1
    86    74    75    2
    87    82    83    1
    88    82    79    1
    89    86    87   ar
    90    83    85   ar
    91   104   101    1
    92    97    98    1
    93    97    96    1
    94    87    85   ar
    95    87    89   ar
    96   101   100    1
    97   101   102    1
    98    78    79    1
    99    85    88   ar
   100    79    80    1
   101    81    80    2
   102    80    92   am
   103    92    93    1
   104    89    91   ar
   105    93    96    1
   106    93    94    1
   107   102   103    2
   108    88    90   ar
   109    91    90   ar
   110    94    95    2
