@<TRIPOS>MOLECULE
tmp/6jeaA00.pdb
 151 150 0 0 0
SMALL
GASTEIGER

@<TRIPOS>ATOM
      1  N         29.9520    8.9520    4.7860 N.3   101  ARG101     -0.1245
      2  CA        30.8710   10.0440    5.0890 C.3   101  ARG101      0.1563
      3  C         30.5940   11.2530    4.2020 C.2   101  ARG101      0.2260
      4  O         30.5530   12.3910    4.6830 O.2   101  ARG101     -0.2867
      5  CB        32.3170    9.5710    4.9390 C.3   101  ARG101      0.0307
      6  CG        32.9310    9.0150    6.2210 C.3   101  ARG101      0.0489
      7  CD        32.1580    7.8200    6.7550 C.3   101  ARG101      0.2205
      8  NE        32.7640    7.2660    7.9630 N.pl3 101  ARG101     -0.0865
      9  CZ        33.7310    6.3540    7.9640 C.cat 101  ARG101      0.5346
     10  NH1       34.2090    5.8870    6.8170 N.pl3 101  ARG101      0.1354
     11  NH2       34.2200    5.9070    9.1110 N.pl3 101  ARG101      0.1354
     12  N         28.5130    1.7190    1.7660 N.3   127  HIS127     -0.1241
     13  CA        28.6660    1.9990    3.1930 C.3   127  HIS127      0.1621
     14  C         27.6640    3.0900    3.5460 C.2   127  HIS127      0.2264
     15  O         27.9600    4.2840    3.4880 O.2   127  HIS127     -0.2867
     16  CB        30.0980    2.4160    3.5090 C.3   127  HIS127      0.0745
     17  CG        30.4100    2.4590    4.9730 C.ar  127  HIS127      0.0817
     18  ND1       30.6190    1.3220    5.7230 N.ar  127  HIS127     -0.2268
     19  CD2       30.5530    3.5030    5.8240 C.ar  127  HIS127      0.1154
     20  CE1       30.8760    1.6620    6.9730 C.ar  127  HIS127      0.1986
     21  NE2       30.8420    2.9800    7.0610 N.ar  127  HIS127     -0.2212
     22  N         27.1790    5.4680    9.2350 N.3   130  ASP130     -0.1239
     23  CA        28.3530    5.5910   10.0980 C.3   130  ASP130      0.1674
     24  C         28.0830    6.7350   11.0680 C.2   130  ASP130      0.2266
     25  O         26.9540    7.2350   11.1580 O.2   130  ASP130     -0.2867
     26  CB        29.6310    5.8040    9.2830 C.3   130  ASP130      0.1410
     27  CG        30.8490    5.1690    9.9340 C.2   130  ASP130      0.3668
     28  OD1       31.1020    5.4370   11.1280 O.co2 130  ASP130     -0.2456
     29  OD2       31.5460    4.3870    9.2550 O.co2 130  ASP130     -0.2456
     30  N         26.0920   -0.6390    9.6740 N.3   189  ASP189     -0.1239
     31  CA        26.9690   -0.9120   10.8020 C.3   189  ASP189      0.1674
     32  C         26.1720   -1.0190   12.0930 C.2   189  ASP189      0.2266
     33  O         25.2420   -0.2440   12.3370 O.2   189  ASP189     -0.2867
     34  CB        28.0330    0.1770   10.9310 C.3   189  ASP189      0.1410
     35  CG        29.2200   -0.0620   10.0230 C.2   189  ASP189      0.3668
     36  OD1       29.3030   -1.1650    9.4480 O.co2 189  ASP189     -0.2456
     37  OD2       30.0660    0.8480    9.8810 O.co2 189  ASP189     -0.2456
     38  N         29.3190    2.5170   15.3880 N.3   193  HIS193     -0.1241
     39  CA        29.2920    3.4580   14.2670 C.3   193  HIS193      0.1621
     40  C         27.9200    4.1120   14.1510 C.2   193  HIS193      0.2264
     41  O         27.3860    4.2960   13.0570 O.2   193  HIS193     -0.2867
     42  CB        29.6750    2.7760   12.9490 C.3   193  HIS193      0.0745
     43  CG        31.0870    2.2780   12.9040 C.ar  193  HIS193      0.0817
     44  ND1       32.1410    3.0650   12.4920 N.ar  193  HIS193     -0.2268
     45  CD2       31.6170    1.0690   13.2080 C.ar  193  HIS193      0.1154
     46  CE1       33.2600    2.3650   12.5500 C.ar  193  HIS193      0.1986
     47  NE2       32.9700    1.1510   12.9820 N.ar  193  HIS193     -0.2212
     48  N         33.4110   -4.7730   13.0020 N.3   257  ASP257     -0.1239
     49  CA        34.7030   -4.4590   13.5910 C.3   257  ASP257      0.1674
     50  C         34.5620   -4.2670   15.0980 C.2   257  ASP257      0.2266
     51  O         33.4910   -3.9170   15.6050 O.2   257  ASP257     -0.2867
     52  CB        35.3030   -3.2110   12.9440 C.3   257  ASP257      0.1410
     53  CG        34.3130   -2.0670   12.8520 C.2   257  ASP257      0.3668
     54  OD1       33.1760   -2.2990   12.3880 O.co2 257  ASP257     -0.2456
     55  OD2       34.6730   -0.9350   13.2450 O.co2 257  ASP257     -0.2456
     56  N         33.4370   -7.3620    8.5270 N.3   307  TRP307     -0.1241
     57  CA        34.8610   -7.0590    8.5890 C.3   307  TRP307      0.1605
     58  C         35.5080   -8.0360    9.5630 C.2   307  TRP307      0.2264
     59  O         35.0940   -8.1230   10.7230 O.2   307  TRP307     -0.2867
     60  CB        35.0990   -5.6180    9.0370 C.3   307  TRP307      0.0550
     61  CG        34.4800   -4.5750    8.1490 C.ar  307  TRP307      0.0003
     62  CD1       33.4600   -3.7280    8.4730 C.ar  307  TRP307      0.0946
     63  CD2       34.8430   -4.2660    6.7940 C.ar  307  TRP307      0.0152
     64  NE1       33.1640   -2.9130    7.4070 N.ar  307  TRP307     -0.2442
     65  CE2       33.9980   -3.2220    6.3640 C.ar  307  TRP307      0.0810
     66  CE3       35.7970   -4.7700    5.9040 C.ar  307  TRP307      0.0012
     67  CZ2       34.0780   -2.6740    5.0820 C.ar  307  TRP307      0.0191
     68  CZ3       35.8770   -4.2240    4.6320 C.ar  307  TRP307      0.0001
     69  CH2       35.0230   -3.1870    4.2340 C.ar  307  TRP307      0.0015
     70  N         41.0890   -7.0130    6.0300 N.3   324  TRP324     -0.1241
     71  CA        41.2630   -5.5720    5.8670 C.3   324  TRP324      0.1605
     72  C         42.4410   -4.9770    6.6230 C.2   324  TRP324      0.2264
     73  O         42.9290   -3.9200    6.2080 O.2   324  TRP324     -0.2867
     74  CB        39.9860   -4.8360    6.2900 C.3   324  TRP324      0.0550
     75  CG        39.5290   -5.1680    7.6830 C.ar  324  TRP324      0.0003
     76  CD1       38.9360   -6.3270    8.0990 C.ar  324  TRP324      0.0946
     77  CD2       39.6190   -4.3290    8.8400 C.ar  324  TRP324      0.0152
     78  NE1       38.6570   -6.2630    9.4410 N.ar  324  TRP324     -0.2442
     79  CE2       39.0660   -5.0460    9.9200 C.ar  324  TRP324      0.0810
     80  CE3       40.1160   -3.0430    9.0690 C.ar  324  TRP324      0.0012
     81  CZ2       38.9960   -4.5190   11.2100 C.ar  324  TRP324      0.0191
     82  CZ3       40.0450   -2.5210   10.3500 C.ar  324  TRP324      0.0001
     83  CH2       39.4900   -3.2580   11.4030 C.ar  324  TRP324      0.0015
     84  N         42.9080   -0.1340    0.0770 N.3   352  TYR352     -0.1241
     85  CA        42.2790    1.0930    0.5620 C.3   352  TYR352      0.1605
     86  C         42.6150    2.2330   -0.3910 C.2   352  TYR352      0.2264
     87  O         43.7470    2.7250   -0.4070 O.2   352  TYR352     -0.2867
     88  CB        42.7300    1.4240    1.9820 C.3   352  TYR352      0.0534
     89  CG        41.9520    0.7110    3.0670 C.ar  352  TYR352     -0.0201
     90  CD1       41.3010   -0.4900    2.8130 C.ar  352  TYR352     -0.0009
     91  CD2       41.8580    1.2480    4.3430 C.ar  352  TYR352     -0.0009
     92  CE1       40.5950   -1.1430    3.8020 C.ar  352  TYR352      0.0417
     93  CE2       41.1530    0.6020    5.3380 C.ar  352  TYR352      0.0417
     94  CZ        40.5240   -0.5920    5.0630 C.ar  352  TYR352      0.1957
     95  OH        39.8190   -1.2340    6.0540 O.3   352  TYR352     -0.2866
     96  N         41.3340    5.2660   -0.3690 N.3   354  ASP354     -0.1225
     97  CA        41.3260    6.6030    0.2100 C.3   354  ASP354      0.1805
     98  C         42.7330    7.1200    0.4780 C.2   354  ASP354      0.2597
     99  O         42.9190    8.3350    0.6030 O.2   354  ASP354     -0.2718
    100  CB        40.5080    6.6310    1.5050 C.3   354  ASP354      0.1424
    101  CG        40.9480    5.5750    2.5090 C.2   354  ASP354      0.3668
    102  OD1       41.3000    4.4500    2.0890 O.co2 354  ASP354     -0.2456
    103  OD2       40.9300    5.8730    3.7260 O.co2 354  ASP354     -0.2456
    104  N         43.7200    6.2320    0.5500 N.am  355  PHE355     -0.1976
    105  CA        45.0880    6.6550    0.7910 C.3   355  PHE355      0.1639
    106  C         45.6450    7.3580   -0.4450 C.2   355  PHE355      0.2290
    107  O         45.2550    7.0490   -1.5750 O.2   355  PHE355     -0.2864
    108  CB        45.9700    5.4580    1.1450 C.3   355  PHE355      0.0560
    109  CG        45.5570    4.7380    2.4040 C.ar  355  PHE355     -0.0200
    110  CD1       44.6400    5.3000    3.2820 C.ar  355  PHE355     -0.0042
    111  CD2       46.0940    3.4980    2.7100 C.ar  355  PHE355     -0.0042
    112  CE1       44.2600    4.6330    4.4350 C.ar  355  PHE355     -0.0003
    113  CE2       45.7210    2.8290    3.8640 C.ar  355  PHE355     -0.0003
    114  CZ        44.8000    3.3990    4.7270 C.ar  355  PHE355     -0.0000
    115  N         47.9900   10.7670    8.8010 N.3   366  TRP366     -0.1241
    116  CA        48.0310    9.3690    9.2170 C.3   366  TRP366      0.1605
    117  C         48.0670    8.3890    8.0500 C.2   366  TRP366      0.2264
    118  O         48.5250    7.2520    8.2100 O.2   366  TRP366     -0.2867
    119  CB        46.8310    9.0580   10.1130 C.3   366  TRP366      0.0550
    120  CG        45.5100    9.1640    9.4180 C.ar  366  TRP366      0.0003
    121  CD1       44.7470   10.2850    9.2710 C.ar  366  TRP366      0.0946
    122  CD2       44.7900    8.1020    8.7820 C.ar  366  TRP366      0.0152
    123  NE1       43.5960    9.9880    8.5820 N.ar  366  TRP366     -0.2442
    124  CE2       43.5990    8.6540    8.2700 C.ar  366  TRP366      0.0810
    125  CE3       45.0380    6.7390    8.5960 C.ar  366  TRP366      0.0012
    126  CZ2       42.6590    7.8910    7.5820 C.ar  366  TRP366      0.0191
    127  CZ3       44.1040    5.9820    7.9150 C.ar  366  TRP366      0.0001
    128  CH2       42.9280    6.5610    7.4150 C.ar  366  TRP366      0.0015
    129  N         37.0410    4.8510    1.1510 N.3   400  TRP400     -0.1241
    130  CA        36.5180    5.6040    2.2850 C.3   400  TRP400      0.1605
    131  C         36.5260    7.0990    1.9870 C.2   400  TRP400      0.2264
    132  O         37.4730    7.6280    1.4000 O.2   400  TRP400     -0.2867
    133  CB        37.3440    5.3100    3.5350 C.3   400  TRP400      0.0550
    134  CG        37.4520    3.8540    3.8330 C.ar  400  TRP400      0.0003
    135  CD1       38.5210    3.0440    3.5870 C.ar  400  TRP400      0.0946
    136  CD2       36.4450    3.0230    4.4230 C.ar  400  TRP400      0.0152
    137  NE1       38.2470    1.7620    3.9940 N.ar  400  TRP400     -0.2442
    138  CE2       36.9790    1.7220    4.5120 C.ar  400  TRP400      0.0810
    139  CE3       35.1480    3.2540    4.8910 C.ar  400  TRP400      0.0012
    140  CZ2       36.2600    0.6550    5.0480 C.ar  400  TRP400      0.0191
    141  CZ3       34.4350    2.1910    5.4240 C.ar  400  TRP400      0.0001
    142  CH2       34.9930    0.9080    5.4960 C.ar  400  TRP400      0.0015
    143  N         35.9380   10.0020    4.0810 N.3   402  GLU402     -0.1245
    144  CA        36.0740   11.0750    5.0630 C.3   402  GLU402      0.1567
    145  C         36.5820   12.3520    4.4050 C.2   402  GLU402      0.2260
    146  O         36.1160   13.4530    4.7220 O.2   402  GLU402     -0.2867
    147  CB        37.0170   10.6580    6.1940 C.3   402  GLU402      0.0388
    148  CG        36.4620    9.6130    7.1450 C.3   402  GLU402      0.1160
    149  CD        36.9450    8.2100    6.8250 C.2   402  GLU402      0.3649
    150  OE1       37.0040    7.8490    5.6280 O.co2 402  GLU402     -0.2457
    151  OE2       37.2710    7.4690    7.7770 O.co2 402  GLU402     -0.2457
@<TRIPOS>BOND
     1   107   106    2
     2   106   105    1
     3    87    86    2
     4    86    85    1
     5    96    97    1
     6    84    85    1
     7    97    98    1
     8    97   100    1
     9    98   104   am
    10    98    99    2
    11   104   105    1
    12    85    88    1
    13   105   108    1
    14   108   109    1
    15   129   130    1
    16   132   131    2
    17   100   101    1
    18    12    13    1
    19    88    89    1
    20   131   130    1
    21   102   101   ar
    22   130   133    1
    23   109   111   ar
    24   109   110   ar
    25   101   103   ar
    26   111   113   ar
    27    90    89   ar
    28    90    92   ar
    29    89    91   ar
    30    13    16    1
    31    13    14    1
    32   110   112   ar
    33    15    14    2
    34    16    17    1
    35   133   134    1
    36   135   134   ar
    37   135   137   ar
    38    92    94   ar
    39   134   136   ar
    40   113   114   ar
    41   137   138   ar
    42   143   144    1
    43     3     4    2
    44     3     2    1
    45    69    68   ar
    46    69    67   ar
    47    91    93   ar
    48   145   146    2
    49   145   144    1
    50   136   138   ar
    51   136   139   ar
    52   112   114   ar
    53   138   140   ar
    54    68    66   ar
    55     1     2    1
    56   139   141   ar
    57     5     2    1
    58     5     6    1
    59    17    18   ar
    60    17    19   ar
    61   140   142   ar
    62   144   147    1
    63    94    93   ar
    64    94    95    1
    65    67    65   ar
    66   141   142   ar
    67   150   149   ar
    68    18    20   ar
    69    19    21   ar
    70    71    70    1
    71    71    74    1
    72    71    72    1
    73    66    63   ar
    74   147   148    1
    75    73    72    2
    76     6     7    1
    77    74    75    1
    78    65    63   ar
    79    65    64   ar
    80     7     8    1
    81    63    61   ar
    82    10     9    1
    83   149   148    1
    84   149   151   ar
    85    20    21   ar
    86    64    62   ar
    87   128   126   ar
    88   128   127   ar
    89   126   124   ar
    90    75    76   ar
    91    75    77   ar
    92   127   125   ar
    93     8     9    2
    94     9    11    1
    95   117   118    2
    96   117   116    1
    97    76    78   ar
    98    61    62   ar
    99    61    60    1
   100   124   123   ar
   101   124   122   ar
   102    56    57    1
   103   123   121   ar
   104    57    60    1
   105    57    58    1
   106   125   122   ar
   107   122   120   ar
   108   115   116    1
   109    77    80   ar
   110    77    79   ar
   111    80    82   ar
   112   116   119    1
   113    22    23    1
   114    29    27   ar
   115   121   120   ar
   116    26    27    1
   117    26    23    1
   118   120   119    1
   119    78    79   ar
   120    36    35   ar
   121    58    59    2
   122    30    31    1
   123    37    35   ar
   124    79    81   ar
   125    27    28   ar
   126    35    34    1
   127    23    24    1
   128    82    83   ar
   129    31    34    1
   130    31    32    1
   131    24    25    2
   132    81    83   ar
   133    32    33    2
   134    54    53   ar
   135    44    46   ar
   136    44    43   ar
   137    46    47   ar
   138    53    52    1
   139    53    55   ar
   140    43    42    1
   141    43    45   ar
   142    52    49    1
   143    42    39    1
   144    47    45   ar
   145    48    49    1
   146    41    40    2
   147    49    50    1
   148    40    39    1
   149    39    38    1
   150    50    51    2
