@<TRIPOS>MOLECULE
tmp/6jeqA10.pdb
 79 77 0 0 0
SMALL
GASTEIGER

@<TRIPOS>ATOM
      1  N        -10.8260   10.1720   -6.9020 N.3   555  LYS555     -0.1231
      2  CA       -10.2250    8.8420   -6.9800 C.3   555  LYS555      0.1693
      3  C        -10.3020    8.1150   -5.6450 C.2   555  LYS555      0.2592
      4  O        -10.4580    6.8840   -5.6040 O.2   555  LYS555     -0.2718
      5  CB        -8.7610    8.9530   -7.4230 C.3   555  LYS555      0.0285
      6  CG        -8.1690    7.6100   -7.8260 C.3   555  LYS555      0.0035
      7  CD        -6.6810    7.5330   -7.5520 C.3   555  LYS555      0.0206
      8  CE        -6.1110    6.2200   -8.0680 C.3   555  LYS555      0.1093
      9  NZ        -6.5320    5.9600   -9.4700 N.3   555  LYS555     -0.1314
     10  N        -10.1900    8.8500   -4.5490 N.am  556  ALA556     -0.1966
     11  CA       -10.2290    8.2220   -3.2420 C.3   556  ALA556      0.1728
     12  C        -11.6360    7.7960   -2.8430 C.2   556  ALA556      0.2616
     13  O        -11.7890    7.0350   -1.8800 O.2   556  ALA556     -0.2715
     14  CB        -9.6440    9.1720   -2.1920 C.3   556  ALA556      0.0334
     15  N        -12.6670    8.2500   -3.5490 N.am  557  HIS557     -0.1960
     16  CA       -14.0420    8.0310   -3.1080 C.3   557  HIS557      0.1772
     17  C        -14.8800    7.4800   -4.2470 C.2   557  HIS557      0.2462
     18  O        -15.4590    8.2430   -5.0340 O.2   557  HIS557     -0.2730
     19  CB       -14.6390    9.3170   -2.5480 C.3   557  HIS557      0.0785
     20  CG       -14.0960    9.6640   -1.2030 C.ar  557  HIS557      0.0821
     21  ND1      -14.4660    8.9890   -0.0610 N.ar  557  HIS557     -0.2267
     22  CD2      -13.1560   10.5590   -0.8250 C.ar  557  HIS557      0.1154
     23  CE1      -13.8030    9.4770    0.9720 C.ar  557  HIS557      0.1986
     24  NE2      -12.9910   10.4230    0.5340 N.ar  557  HIS557     -0.2212
     25  N        -14.9780    6.1530   -4.3580 N.am  558  PRO558     -0.2727
     26  CA       -15.8550    5.5610   -5.3810 C.3   558  PRO558      0.1402
     27  C        -17.3190    5.9660   -5.2530 C.2   558  PRO558      0.2269
     28  O        -18.0620    5.7580   -6.2160 O.2   558  PRO558     -0.2865
     29  CB       -15.6740    4.0430   -5.1820 C.3   558  PRO558      0.0296
     30  CG       -15.0490    3.8880   -3.8320 C.3   558  PRO558      0.0237
     31  CD       -14.2360    5.1340   -3.5950 C.3   558  PRO558      0.0939
     32  N        -18.4270    7.8890   -8.0580 N.3   561  ARG561     -0.1245
     33  CA       -18.2190    7.2560   -9.3560 C.3   561  ARG561      0.1563
     34  C        -19.1760    6.0910   -9.5730 C.2   561  ARG561      0.2260
     35  O        -18.8190    5.1160  -10.2460 O.2   561  ARG561     -0.2867
     36  CB       -16.7690    6.7800   -9.4910 C.3   561  ARG561      0.0307
     37  CG       -15.7530    7.8460   -9.1840 C.3   561  ARG561      0.0489
     38  CD       -14.3410    7.3440   -9.4350 C.3   561  ARG561      0.2205
     39  NE       -13.6740    6.9900   -8.1920 N.pl3 561  ARG561     -0.0865
     40  CZ       -13.2790    5.7630   -7.8800 C.cat 561  ARG561      0.5346
     41  NH1      -13.4840    4.7600   -8.7210 N.pl3 561  ARG561      0.1354
     42  NH2      -12.6890    5.5340   -6.7250 N.pl3 561  ARG561      0.1354
     43  N        -18.7630    1.2390   -2.5990 N.3   592  GLY592     -0.1225
     44  CA       -17.5930    0.7080   -1.9300 C.3   592  GLY592      0.1811
     45  C        -16.7530    1.7600   -1.2560 C.2   592  GLY592      0.2280
     46  O        -15.5720    1.5110   -0.9770 O.2   592  GLY592     -0.2866
     47  N        -14.8420    3.8870    1.4000 N.3   594  PRO594     -0.2102
     48  CA       -14.3560    3.4850    2.7320 C.3   594  PRO594      0.1504
     49  C        -15.1220    4.1310    3.8690 C.2   594  PRO594      0.2575
     50  O        -15.2480    3.5240    4.9370 O.2   594  PRO594     -0.2718
     51  CB       -12.8870    3.9270    2.7190 C.3   594  PRO594      0.0282
     52  CG       -12.8360    5.0210    1.7150 C.3   594  PRO594      0.0208
     53  CD       -13.8250    4.6330    0.6420 C.3   594  PRO594      0.0893
     54  N        -15.6370    5.3400    3.6820 N.am  595  ASP595     -0.1974
     55  CA       -16.3910    6.0050    4.7320 C.3   595  ASP595      0.1708
     56  C        -17.8540    5.5670    4.7090 C.2   595  ASP595      0.2293
     57  O        -18.3970    5.2120    3.6590 O.2   595  ASP595     -0.2864
     58  CB       -16.2770    7.5180    4.5750 C.3   595  ASP595      0.1436
     59  CG       -14.8500    8.0180    4.7890 C.2   595  ASP595      0.3671
     60  OD1      -14.2380    7.6560    5.8150 O.co2 595  ASP595     -0.2456
     61  OD2      -14.3410    8.7910    3.9540 O.co2 595  ASP595     -0.2456
     62  N        -13.2090   16.4900    5.4110 N.3   622  ARG622     -0.1245
     63  CA       -12.2900   15.8630    4.4710 C.3   622  ARG622      0.1563
     64  C        -11.7790   16.8020    3.3910 C.2   622  ARG622      0.2260
     65  O        -10.6570   16.6170    2.9150 O.2   622  ARG622     -0.2867
     66  CB       -12.9570   14.6580    3.8010 C.3   622  ARG622      0.0307
     67  CG       -13.2430   13.5310    4.7700 C.3   622  ARG622      0.0489
     68  CD       -12.0080   13.1530    5.6020 C.3   622  ARG622      0.2205
     69  NE       -12.3390   12.0820    6.5420 N.pl3 622  ARG622     -0.0865
     70  CZ       -12.6070   10.8390    6.1550 C.cat 622  ARG622      0.5346
     71  NH1      -12.5540   10.5350    4.8630 N.pl3 622  ARG622      0.1354
     72  NH2      -12.9150    9.9020    7.0470 N.pl3 622  ARG622      0.1354
     73  N        -16.7080    8.3450    9.3060 N.3   650  PRO650     -0.2116
     74  CA       -15.8330    7.1920    9.0900 C.3   650  PRO650      0.1372
     75  C        -16.5400    5.8820    9.4090 C.2   650  PRO650      0.2244
     76  O        -17.5490    5.8350   10.1170 O.2   650  PRO650     -0.2868
     77  CB       -14.6600    7.4450   10.0460 C.3   650  PRO650      0.0268
     78  CG       -15.1890    8.4090   11.0660 C.3   650  PRO650      0.0207
     79  CD       -16.2070    9.2460   10.3620 C.3   650  PRO650      0.0892
@<TRIPOS>BOND
     1    35    34    2
     2    34    33    1
     3    36    33    1
     4    36    37    1
     5     9     8    1
     6    38    37    1
     7    38    39    1
     8    33    32    1
     9    41    40    1
    10    39    40    2
    11     8     7    1
    12    40    42    1
    13     6     7    1
    14     6     5    1
    15     5     2    1
    16     2     1    1
    17     2     3    1
    18    28    27    2
    19     3     4    2
    20     3    10   am
    21    26    27    1
    22    26    29    1
    23    26    25    1
    24    29    30    1
    25    18    17    2
    26    10    11    1
    27    25    17   am
    28    25    31    1
    29    17    16    1
    30    30    31    1
    31    15    16    1
    32    15    12   am
    33    11    12    1
    34    11    14    1
    35    16    19    1
    36    12    13    2
    37    43    44    1
    38    19    20    1
    39    44    45    1
    40    45    46    2
    41    20    22   ar
    42    20    21   ar
    43    22    24   ar
    44    21    23   ar
    45    24    23   ar
    46    53    47    1
    47    53    52    1
    48    47    48    1
    49    52    51    1
    50    51    48    1
    51    48    49    1
    52    65    64    2
    53    64    63    1
    54    57    56    2
    55    54    49   am
    56    54    55    1
    57    66    63    1
    58    66    67    1
    59    49    50    2
    60    61    59   ar
    61    63    62    1
    62    58    55    1
    63    58    59    1
    64    56    55    1
    65    67    68    1
    66    59    60   ar
    67    71    70    1
    68    68    69    1
    69    70    69    2
    70    70    72    1
    71    74    73    1
    72    74    75    1
    73    74    77    1
    74    73    79    1
    75    75    76    2
    76    77    78    1
    77    79    78    1
