@<TRIPOS>MOLECULE
tmp/6jeqA00.pdb
 82 78 0 0 0
SMALL
GASTEIGER

@<TRIPOS>ATOM
      1  N        -10.5950   38.1590   -6.9660 N.3   484  GLU484     -0.1231
      2  CA       -10.5250   37.1640   -5.8990 C.3   484  GLU484      0.1699
      3  C        -11.8640   36.4520   -5.7010 C.2   484  GLU484      0.2592
      4  O        -11.9010   35.2410   -5.4520 O.2   484  GLU484     -0.2718
      5  CB       -10.0590   37.8250   -4.6020 C.3   484  GLU484      0.0402
      6  CG        -9.5040   36.8550   -3.5830 C.3   484  GLU484      0.1161
      7  CD        -8.0870   36.3610   -3.8960 C.2   484  GLU484      0.3649
      8  OE1       -7.5470   36.6280   -4.9960 O.co2 484  GLU484     -0.2457
      9  OE2       -7.5060   35.6700   -3.0260 O.co2 484  GLU484     -0.2457
     10  N        -12.9750   37.1800   -5.8160 N.am  485  GLU485     -0.1979
     11  CA       -14.2790   36.5300   -5.7680 C.3   485  GLU485      0.1602
     12  C        -14.4850   35.6330   -6.9860 C.2   485  GLU485      0.2287
     13  O        -15.0810   34.5520   -6.8780 O.2   485  GLU485     -0.2864
     14  CB       -15.3860   37.5820   -5.6720 C.3   485  GLU485      0.0415
     15  CG       -15.3500   38.3760   -4.3610 C.3   485  GLU485      0.1163
     16  CD       -16.1810   39.6580   -4.4020 C.2   485  GLU485      0.3649
     17  OE1      -16.5840   40.0920   -5.5010 O.co2 485  GLU485     -0.2457
     18  OE2      -16.4240   40.2340   -3.3220 O.co2 485  GLU485     -0.2457
     19  N        -12.8330   32.2360   -6.6420 N.3   488  ALA488     -0.1245
     20  CA       -13.5790   31.3030   -5.8040 C.3   488  ALA488      0.1562
     21  C        -14.7350   30.6680   -6.5790 C.2   488  ALA488      0.2260
     22  O        -15.0110   29.4770   -6.4150 O.2   488  ALA488     -0.2867
     23  CB       -14.0890   32.0120   -4.5480 C.3   488  ALA488      0.0290
     24  N        -13.1420   27.9360   -8.8500 N.3   491  ARG491     -0.1245
     25  CA       -12.8310   26.7210   -8.0990 C.3   491  ARG491      0.1563
     26  C        -14.0880   25.9300   -7.7640 C.2   491  ARG491      0.2260
     27  O        -14.0620   24.6930   -7.7510 O.2   491  ARG491     -0.2867
     28  CB       -12.0910   27.0790   -6.8150 C.3   491  ARG491      0.0307
     29  CG       -10.6200   27.4340   -7.0220 C.3   491  ARG491      0.0489
     30  CD        -9.9250   27.5180   -5.6620 C.3   491  ARG491      0.2205
     31  NE        -8.4740   27.6740   -5.8120 N.pl3 491  ARG491     -0.0865
     32  CZ        -7.5970   27.3920   -4.8560 C.cat 491  ARG491      0.5346
     33  NH1       -8.0180   26.9370   -3.6820 N.pl3 491  ARG491      0.1354
     34  NH2       -6.2980   27.5630   -5.0780 N.pl3 491  ARG491      0.1354
     35  N        -21.6350   34.0800   -0.2560 N.3   606  PRO606     -0.2116
     36  CA       -20.3310   34.5440    0.2540 C.3   606  PRO606      0.1372
     37  C        -20.2770   34.7660    1.7610 C.2   606  PRO606      0.2244
     38  O        -19.1700   34.8180    2.3140 O.2   606  PRO606     -0.2868
     39  CB       -20.1030   35.8600   -0.5080 C.3   606  PRO606      0.0268
     40  CG       -21.4670   36.3430   -0.8270 C.3   606  PRO606      0.0207
     41  CD       -22.2920   35.0980   -1.0970 C.3   606  PRO606      0.0892
     42  N        -10.9020   25.0700    4.7640 N.3   626  GLU626     -0.1231
     43  CA       -10.6930   26.5160    4.7540 C.3   626  GLU626      0.1699
     44  C        -12.0090   27.2870    4.8590 C.2   626  GLU626      0.2592
     45  O        -12.0060   28.4540    5.2800 O.2   626  GLU626     -0.2718
     46  CB        -9.9190   26.9240    3.4910 C.3   626  GLU626      0.0402
     47  CG       -10.6030   26.5680    2.1700 C.3   626  GLU626      0.1161
     48  CD       -10.2620   25.1640    1.6390 C.2   626  GLU626      0.3649
     49  OE1       -9.7340   24.3240    2.4050 O.co2 626  GLU626     -0.2457
     50  OE2      -10.5350   24.9030    0.4340 O.co2 626  GLU626     -0.2457
     51  N        -13.1340   26.6550    4.5260 N.am  627  HIS627     -0.1976
     52  CA       -14.4510   27.2780    4.5980 C.3   627  HIS627      0.1656
     53  C        -15.2180   26.9430    5.8680 C.2   627  HIS627      0.2291
     54  O        -16.3140   27.4770    6.0650 O.2   627  HIS627     -0.2864
     55  CB       -15.2940   26.8550    3.3930 C.3   627  HIS627      0.0771
     56  CG       -14.6680   27.2000    2.0830 C.ar  627  HIS627      0.0820
     57  ND1      -14.3980   26.2600    1.1100 N.ar  627  HIS627     -0.2267
     58  CD2      -14.2320   28.3850    1.5960 C.ar  627  HIS627      0.1154
     59  CE1      -13.8430   26.8590    0.0700 C.ar  627  HIS627      0.1986
     60  NE2      -13.7240   28.1460    0.3440 N.ar  627  HIS627     -0.2212
     61  N        -18.3470   29.6650    5.9480 N.3   640  ARG640     -0.1231
     62  CA       -18.2880   31.0000    5.3770 C.3   640  ARG640      0.1694
     63  C        -17.5180   30.9260    4.0730 C.2   640  ARG640      0.2593
     64  O        -16.4470   30.3150    4.0260 O.2   640  ARG640     -0.2718
     65  CB       -17.6100   31.9970    6.3210 C.3   640  ARG640      0.0321
     66  CG       -17.8410   33.4490    5.9000 C.3   640  ARG640      0.0489
     67  CD       -17.3380   34.4590    6.9320 C.3   640  ARG640      0.2205
     68  NE       -15.8850   34.6200    6.8940 N.pl3 640  ARG640     -0.0865
     69  CZ       -15.2090   35.1760    5.8900 C.cat 640  ARG640      0.5346
     70  NH1      -13.8880   35.2760    5.9600 N.pl3 640  ARG640      0.1354
     71  NH2      -15.8460   35.6330    4.8160 N.pl3 640  ARG640      0.1354
     72  N        -18.0550   31.5310    3.0330 N.am  641  GLY641     -0.1942
     73  CA       -17.2330   31.6380    1.8470 C.3   641  GLY641      0.2014
     74  C        -17.6870   30.7000    0.7440 C.2   641  GLY641      0.2638
     75  O        -18.2110   29.6050    0.9890 O.2   641  GLY641     -0.2714
     76  N        -17.4610   31.1370   -0.4930 N.am  642  VAL642     -0.1977
     77  CA       -17.8540   30.4170   -1.6990 C.3   642  VAL642      0.1596
     78  C        -16.9000   29.2490   -1.9250 C.2   642  VAL642      0.2287
     79  O        -15.6830   29.4360   -2.0320 O.2   642  VAL642     -0.2864
     80  CB       -17.8490   31.3680   -2.9040 C.3   642  VAL642      0.0276
     81  CG1      -17.8560   30.5940   -4.2220 C.3   642  VAL642      0.0022
     82  CG2      -19.0410   32.3310   -2.8300 C.3   642  VAL642      0.0022
@<TRIPOS>BOND
     1    24    25    1
     2    25    26    1
     3    25    28    1
     4    26    27    2
     5    29    28    1
     6    29    30    1
     7    12    13    2
     8    12    11    1
     9     1     2    1
    10    19    20    1
    11    21    22    2
    12    21    20    1
    13     2     3    1
    14     2     5    1
    15    10    11    1
    16    10     3   am
    17    31    30    1
    18    31    32    2
    19    20    23    1
    20    11    14    1
    21     3     4    2
    22    14    15    1
    23    17    16   ar
    24    34    32    1
    25     8     7   ar
    26    32    33    1
    27     5     6    1
    28    16    15    1
    29    16    18   ar
    30    81    80    1
    31     7     6    1
    32     7     9   ar
    33    80    82    1
    34    80    77    1
    35    79    78    2
    36    78    77    1
    37    77    76    1
    38    41    40    1
    39    41    35    1
    40    40    39    1
    41    39    36    1
    42    76    74   am
    43    35    36    1
    44    59    60   ar
    45    59    57   ar
    46    36    37    1
    47    60    58   ar
    48    50    48   ar
    49    74    75    2
    50    74    73    1
    51    57    56   ar
    52    58    56   ar
    53    48    47    1
    54    48    49   ar
    55    37    38    2
    56    73    72    1
    57    56    55    1
    58    47    46    1
    59    72    63   am
    60    55    52    1
    61    46    43    1
    62    64    63    2
    63    63    62    1
    64    51    52    1
    65    51    44   am
    66    52    53    1
    67    43    42    1
    68    43    44    1
    69    71    69    1
    70    44    45    2
    71    62    61    1
    72    62    65    1
    73    53    54    2
    74    69    70    1
    75    69    68    2
    76    66    65    1
    77    66    67    1
    78    68    67    1
