@<TRIPOS>MOLECULE
tmp/6jeqA03.pdb
 103 99 0 0 0
SMALL
GASTEIGER

@<TRIPOS>ATOM
      1  N        -25.1040   20.9870  -40.1710 N.3   310  THR310     -0.1203
      2  CA       -23.8600   21.1570  -39.4240 C.3   310  THR310      0.1994
      3  C        -23.4250   22.6100  -39.3220 C.2   310  THR310      0.2617
      4  O        -22.5030   22.9090  -38.5520 O.2   310  THR310     -0.2717
      5  CB       -22.7300   20.3630  -40.0880 C.3   310  THR310      0.1784
      6  OG1      -22.5680   20.8150  -41.4410 O.3   310  THR310     -0.2211
      7  CG2      -23.0480   18.8680  -40.0840 C.3   310  THR310      0.0376
      8  N        -24.0450   23.5000  -40.0980 N.am  311  PHE311     -0.1975
      9  CA       -23.5880   24.8710  -40.3000 C.3   311  PHE311      0.1639
     10  C        -22.1860   24.9250  -40.9040 C.2   311  PHE311      0.2290
     11  O        -21.5310   25.9670  -40.8690 O.2   311  PHE311     -0.2864
     12  CB       -23.6340   25.6780  -38.9940 C.3   311  PHE311      0.0560
     13  CG       -24.9590   25.6320  -38.3030 C.ar  311  PHE311     -0.0200
     14  CD1      -26.1090   26.0570  -38.9500 C.ar  311  PHE311     -0.0042
     15  CD2      -25.0610   25.1630  -37.0030 C.ar  311  PHE311     -0.0042
     16  CE1      -27.3430   26.0170  -38.3130 C.ar  311  PHE311     -0.0003
     17  CE2      -26.2880   25.1190  -36.3610 C.ar  311  PHE311     -0.0003
     18  CZ       -27.4330   25.5460  -37.0200 C.ar  311  PHE311     -0.0000
     19  N        -20.6570   16.7010  -33.2060 N.3   347  LEU347     -0.1245
     20  CA       -22.0270   16.7820  -33.7350 C.3   347  LEU347      0.1561
     21  C        -22.6150   15.3880  -33.9610 C.2   347  LEU347      0.2260
     22  O        -23.0150   15.0050  -35.0650 O.2   347  LEU347     -0.2867
     23  CB       -22.0730   17.6070  -35.0220 C.3   347  LEU347      0.0270
     24  CG       -21.6390   19.0710  -34.8930 C.3   347  LEU347      0.0019
     25  CD1      -21.9110   19.8760  -36.1730 C.3   347  LEU347      0.0001
     26  CD2      -22.3400   19.7240  -33.6930 C.3   347  LEU347      0.0001
     27  N        -21.2340   14.8590  -28.8630 N.3   375  GLU375     -0.1245
     28  CA       -22.1160   16.0230  -28.7850 C.3   375  GLU375      0.1567
     29  C        -23.4960   15.5950  -29.2650 C.2   375  GLU375      0.2260
     30  O        -23.7840   15.6120  -30.4550 O.2   375  GLU375     -0.2867
     31  CB       -21.5970   17.1460  -29.6630 C.3   375  GLU375      0.0388
     32  CG       -20.3930   17.8910  -29.1670 C.3   375  GLU375      0.1160
     33  CD       -20.0780   19.0500  -30.1000 C.2   375  GLU375      0.3649
     34  OE1      -19.8220   18.7920  -31.3030 O.co2 375  GLU375     -0.2457
     35  OE2      -20.1390   20.2110  -29.6490 O.co2 375  GLU375     -0.2457
     36  N        -26.3510   16.9750  -29.5010 N.3   377  TRP377     -0.1241
     37  CA       -27.2860   18.0930  -29.5880 C.3   377  TRP377      0.1605
     38  C        -28.4280   17.7930  -30.5500 C.2   377  TRP377      0.2264
     39  O        -28.2570   17.1100  -31.5650 O.2   377  TRP377     -0.2867
     40  CB       -26.5850   19.3750  -30.0560 C.3   377  TRP377      0.0550
     41  CG       -25.2460   19.6770  -29.4450 C.ar  377  TRP377      0.0003
     42  CD1      -24.1120   20.0410  -30.1210 C.ar  377  TRP377      0.0946
     43  CD2      -24.9030   19.6910  -28.0510 C.ar  377  TRP377      0.0152
     44  NE1      -23.0790   20.2610  -29.2390 N.ar  377  TRP377     -0.2442
     45  CE2      -23.5400   20.0590  -27.9620 C.ar  377  TRP377      0.0810
     46  CE3      -25.6120   19.4290  -26.8720 C.ar  377  TRP377      0.0012
     47  CZ2      -22.8670   20.1610  -26.7410 C.ar  377  TRP377      0.0191
     48  CZ3      -24.9360   19.5320  -25.6490 C.ar  377  TRP377      0.0001
     49  CH2      -23.5800   19.8950  -25.6000 C.ar  377  TRP377      0.0015
     50  N        -30.4590   18.8830  -33.3970 N.3   379  MET379     -0.1245
     51  CA       -30.2430   19.8160  -34.4900 C.3   379  MET379      0.1570
     52  C        -30.9920   19.3280  -35.7100 C.2   379  MET379      0.2261
     53  O        -31.0660   18.1220  -35.9530 O.2   379  MET379     -0.2867
     54  CB       -28.7480   19.9580  -34.8060 C.3   379  MET379      0.0387
     55  CG       -27.9410   20.4600  -33.6210 C.3   379  MET379      0.0595
     56  SD       -26.1610   20.3630  -33.8450 S.3   379  MET379     -0.1393
     57  CE       -25.8860   21.6410  -35.0820 C.3   379  MET379      0.0692
     58  N        -23.8550   22.1030  -17.4520 N.3   408  ARG408     -0.1245
     59  CA       -22.9130   23.1520  -17.8280 C.3   408  ARG408      0.1563
     60  C        -23.5100   24.5400  -17.6140 C.2   408  ARG408      0.2260
     61  O        -22.9100   25.3940  -16.9480 O.2   408  ARG408     -0.2867
     62  CB       -22.5040   22.9580  -19.2940 C.3   408  ARG408      0.0307
     63  CG       -21.6490   24.0490  -19.8900 C.3   408  ARG408      0.0489
     64  CD       -21.7900   24.0780  -21.4210 C.3   408  ARG408      0.2205
     65  NE       -23.0860   24.6050  -21.8420 N.pl3 408  ARG408     -0.0865
     66  CZ       -23.6930   24.2900  -22.9820 C.cat 408  ARG408      0.5346
     67  NH1      -23.1340   23.4280  -23.8280 N.pl3 408  ARG408      0.1354
     68  NH2      -24.8650   24.8300  -23.2700 N.pl3 408  ARG408      0.1354
     69  N        -24.2600   29.8530  -21.9430 N.3   415  ILE415     -0.1231
     70  CA       -23.0780   30.0810  -22.7720 C.3   415  ILE415      0.1692
     71  C        -23.3710   31.0130  -23.9440 C.2   415  ILE415      0.2592
     72  O        -22.4340   31.5720  -24.5250 O.2   415  ILE415     -0.2718
     73  CB       -22.4780   28.7550  -23.2910 C.3   415  ILE415      0.0266
     74  CG1      -23.5100   27.9710  -24.1040 C.3   415  ILE415      0.0019
     75  CG2      -21.9350   27.9100  -22.1310 C.3   415  ILE415      0.0020
     76  CD1      -22.8680   26.9840  -25.0860 C.3   415  ILE415      0.0001
     77  N        -24.6420   31.2100  -24.3090 N.am  416  PHE416     -0.1976
     78  CA       -24.9720   32.0910  -25.4290 C.3   416  PHE416      0.1639
     79  C        -25.4340   33.4830  -25.0080 C.2   416  PHE416      0.2290
     80  O        -25.5680   34.3570  -25.8710 O.2   416  PHE416     -0.2864
     81  CB       -26.0450   31.4470  -26.3120 C.3   416  PHE416      0.0560
     82  CG       -25.6160   30.1370  -26.9060 C.ar  416  PHE416     -0.0200
     83  CD1      -24.5110   30.0760  -27.7440 C.ar  416  PHE416     -0.0042
     84  CD2      -26.2970   28.9690  -26.6110 C.ar  416  PHE416     -0.0042
     85  CE1      -24.1060   28.8680  -28.2950 C.ar  416  PHE416     -0.0003
     86  CE2      -25.8920   27.7540  -27.1520 C.ar  416  PHE416     -0.0003
     87  CZ       -24.7990   27.7070  -27.9990 C.ar  416  PHE416     -0.0000
     88  N        -14.9160   24.9660  -27.1980 N.3   466  ASP466     -0.1225
     89  CA       -15.9860   25.8190  -27.7000 C.3   466  ASP466      0.1805
     90  C        -16.3940   26.8710  -26.6700 C.2   466  ASP466      0.2597
     91  O        -16.3690   26.6270  -25.4640 O.2   466  ASP466     -0.2718
     92  CB       -17.2230   24.9820  -28.0350 C.3   466  ASP466      0.1424
     93  CG       -17.1050   24.2560  -29.3570 C.2   466  ASP466      0.3668
     94  OD1      -16.7420   24.9040  -30.3560 O.co2 466  ASP466     -0.2456
     95  OD2      -17.4090   23.0430  -29.3940 O.co2 466  ASP466     -0.2456
     96  N        -16.8230   28.0310  -27.1670 N.am  467  ASN467     -0.1974
     97  CA       -17.4030   29.0860  -26.3370 C.3   467  ASN467      0.1688
     98  C        -16.3740   29.6640  -25.3710 C.2   467  ASN467      0.2292
     99  O        -15.1920   29.3200  -25.4390 O.2   467  ASN467     -0.2864
    100  CB       -18.6380   28.5580  -25.6030 C.3   467  ASN467      0.1181
    101  CG       -19.6320   27.9170  -26.5520 C.2   467  ASN467      0.2629
    102  OD1      -20.2360   28.5960  -27.3760 O.2   467  ASN467     -0.2716
    103  ND2      -19.7830   26.6100  -26.4600 N.am  467  ASN467     -0.0877
@<TRIPOS>BOND
     1     6     5    1
     2    10    11    2
     3    10     9    1
     4     9     8    1
     5     9    12    1
     6     1     2    1
     7     8     3   am
     8     5     7    1
     9     5     2    1
    10     2     3    1
    11     3     4    2
    12    12    13    1
    13    14    16   ar
    14    14    13   ar
    15    16    18   ar
    16    13    15   ar
    17    18    17   ar
    18    15    17   ar
    19    25    24    1
    20    53    52    2
    21    52    51    1
    22    57    56    1
    23    22    21    2
    24    23    24    1
    25    23    20    1
    26    24    26    1
    27    54    51    1
    28    54    55    1
    29    51    50    1
    30    21    20    1
    31    56    55    1
    32    20    19    1
    33    39    38    2
    34    34    33   ar
    35    38    37    1
    36    30    29    2
    37    94    93   ar
    38    42    41   ar
    39    42    44   ar
    40    33    35   ar
    41    33    32    1
    42    40    37    1
    43    40    41    1
    44    31    32    1
    45    31    28    1
    46    37    36    1
    47    41    43   ar
    48    95    93   ar
    49    93    92    1
    50    29    28    1
    51    44    45   ar
    52    27    28    1
    53    85    87   ar
    54    85    83   ar
    55    43    45   ar
    56    43    46   ar
    57    92    89    1
    58    87    86   ar
    59    45    47   ar
    60    83    82   ar
    61    89    88    1
    62    89    90    1
    63   102   101    2
    64    96    90   am
    65    96    97    1
    66    86    84   ar
    67    82    84   ar
    68    82    81    1
    69    46    48   ar
    70    47    49   ar
    71    90    91    2
    72   101   103   am
    73   101   100    1
    74    97   100    1
    75    97    98    1
    76    81    78    1
    77    80    79    2
    78    48    49   ar
    79    99    98    2
    80    78    79    1
    81    78    77    1
    82    76    74    1
    83    72    71    2
    84    77    71   am
    85    74    73    1
    86    71    70    1
    87    67    66    1
    88    73    70    1
    89    73    75    1
    90    68    66    1
    91    66    65    2
    92    70    69    1
    93    65    64    1
    94    64    63    1
    95    63    62    1
    96    62    59    1
    97    59    60    1
    98    59    58    1
    99    60    61    2
