@<TRIPOS>MOLECULE
tmp/6jfjA09.pdb
 92 89 0 0 0
SMALL
GASTEIGER

@<TRIPOS>ATOM
      1  N         -4.2690   39.7500   56.2640 N.3    18  PHE18      -0.1227
      2  CA        -5.2210   39.2660   55.2730 C.3    18  PHE18       0.1736
      3  C         -6.4050   40.2010   55.0660 C.2    18  PHE18       0.2595
      4  O         -7.2110   39.9560   54.1640 O.2    18  PHE18      -0.2718
      5  CB        -5.7340   37.8770   55.6590 C.3    18  PHE18       0.0547
      6  CG        -4.6450   36.8490   55.8080 C.ar   18  PHE18      -0.0202
      7  CD1       -3.9730   36.3680   54.6920 C.ar   18  PHE18      -0.0042
      8  CD2       -4.3000   36.3590   57.0600 C.ar   18  PHE18      -0.0042
      9  CE1       -2.9720   35.4280   54.8180 C.ar   18  PHE18      -0.0003
     10  CE2       -3.2970   35.4100   57.1940 C.ar   18  PHE18      -0.0003
     11  CZ        -2.6360   34.9410   56.0670 C.ar   18  PHE18      -0.0000
     12  N         -6.5210   41.2660   55.8550 N.am   19  ASP19      -0.1960
     13  CA        -7.6340   42.2050   55.7160 C.3    19  ASP19       0.1840
     14  C         -7.3810   43.1560   54.5520 C.2    19  ASP19       0.2621
     15  O         -6.2570   43.6190   54.3490 O.2    19  ASP19      -0.2715
     16  CB        -7.8210   43.0110   57.0070 C.3    19  ASP19       0.1450
     17  CG        -8.5210   42.2210   58.1000 C.2    19  ASP19       0.3671
     18  OD1       -9.2950   41.3040   57.7500 O.co2  19  ASP19      -0.2456
     19  OD2       -8.3000   42.5130   59.3060 O.co2  19  ASP19      -0.2456
     20  N         -8.4360   43.4600   53.7880 N.am   20  ALA20      -0.1977
     21  CA        -8.2840   44.4170   52.6930 C.3    20  ALA20       0.1597
     22  C         -7.8050   45.7710   53.1990 C.2    20  ALA20       0.2287
     23  O         -7.1240   46.5060   52.4730 O.2    20  ALA20      -0.2864
     24  CB        -9.6020   44.5720   51.9360 C.3    20  ALA20       0.0319
     25  N         -3.9740   46.9300   53.0510 N.3    23  ASP23      -0.1239
     26  CA        -3.3890   47.5840   51.8880 C.3    23  ASP23       0.1674
     27  C         -3.7230   49.0620   51.7880 C.2    23  ASP23       0.2266
     28  O         -3.2870   49.7080   50.8340 O.2    23  ASP23      -0.2867
     29  CB        -3.8290   46.8680   50.6170 C.3    23  ASP23       0.1410
     30  CG        -2.9350   45.6980   50.3020 C.2    23  ASP23       0.3668
     31  OD1       -1.6980   45.8650   50.4220 O.co2  23  ASP23      -0.2456
     32  OD2       -3.4560   44.6230   49.9680 O.co2  23  ASP23      -0.2456
     33  N          2.1580   36.1500   54.9920 N.3   291  GLY291     -0.1225
     34  CA         0.7790   36.3430   54.6180 C.3   291  GLY291      0.1811
     35  C          0.5470   37.3970   53.5590 C.2   291  GLY291      0.2280
     36  O         -0.5870   37.5160   53.0750 O.2   291  GLY291     -0.2866
     37  N         -3.3400   33.8610   48.8300 N.3   296  TYR296     -0.1227
     38  CA        -4.0180   32.9170   49.7030 C.3   296  TYR296      0.1736
     39  C         -5.4560   32.7010   49.2520 C.2   296  TYR296      0.2595
     40  O         -6.1360   33.6390   48.8220 O.2   296  TYR296     -0.2718
     41  CB        -4.0020   33.4070   51.1560 C.3   296  TYR296      0.0548
     42  CG        -2.6370   33.2970   51.7850 C.ar  296  TYR296     -0.0200
     43  CD1       -1.6480   34.2400   51.5050 C.ar  296  TYR296     -0.0009
     44  CD2       -2.3270   32.2490   52.6410 C.ar  296  TYR296     -0.0009
     45  CE1       -0.3830   34.1380   52.0560 C.ar  296  TYR296      0.0417
     46  CE2       -1.0660   32.1410   53.2140 C.ar  296  TYR296      0.0417
     47  CZ        -0.1010   33.0940   52.9190 C.ar  296  TYR296      0.1957
     48  OH         1.1560   33.0020   53.4680 O.3   296  TYR296     -0.2866
     49  N         -5.9050   31.4540   49.3440 N.am  297  LYS297     -0.1966
     50  CA        -7.3180   31.1470   49.2210 C.3   297  LYS297      0.1728
     51  C         -8.0750   31.6400   50.4540 C.2   297  LYS297      0.2616
     52  O         -7.4890   32.0980   51.4420 O.2   297  LYS297     -0.2715
     53  CB        -7.5130   29.6450   49.0190 C.3   297  LYS297      0.0311
     54  CG        -6.6770   29.0990   47.8730 C.3   297  LYS297      0.0038
     55  CD        -7.2970   27.8630   47.2480 C.3   297  LYS297      0.0206
     56  CE        -7.1020   26.6510   48.1280 C.3   297  LYS297      0.1093
     57  NZ        -5.7400   26.0850   47.9940 N.3   297  LYS297     -0.1314
     58  N         -9.4080   31.5520   50.3790 N.am  298  ALA298     -0.1963
     59  CA       -10.2510   32.0250   51.4710 C.3   298  ALA298      0.1728
     60  C        -10.0280   31.2440   52.7610 C.2   298  ALA298      0.2616
     61  O        -10.2850   31.7770   53.8440 O.2   298  ALA298     -0.2715
     62  CB       -11.7270   31.9570   51.0630 C.3   298  ALA298      0.0334
     63  N         -9.5360   30.0070   52.6790 N.am  299  ASP299     -0.1957
     64  CA        -9.2660   29.2100   53.8680 C.3   299  ASP299      0.1840
     65  C         -7.8380   29.3930   54.3750 C.2   299  ASP299      0.2621
     66  O         -7.3960   28.6460   55.2590 O.2   299  ASP299     -0.2715
     67  CB        -9.5690   27.7300   53.5940 C.3   299  ASP299      0.1450
     68  CG        -8.6460   27.1030   52.5660 C.2   299  ASP299      0.3671
     69  OD1       -7.7450   27.7760   52.0170 O.co2 299  ASP299     -0.2456
     70  OD2       -8.8300   25.8990   52.3050 O.co2 299  ASP299     -0.2456
     71  N         -7.1160   30.3690   53.8190 N.am  300  ARG300     -0.1977
     72  CA        -5.7820   30.7610   54.2660 C.3   300  ARG300      0.1597
     73  C         -4.7160   29.7280   53.9060 C.2   300  ARG300      0.2287
     74  O         -3.6670   29.6660   54.5510 O.2   300  ARG300     -0.2864
     75  CB        -5.7570   31.0570   55.7720 C.3   300  ARG300      0.0334
     76  CG        -5.1870   32.4200   56.1290 C.3   300  ARG300      0.0492
     77  CD        -5.1270   32.5950   57.6480 C.3   300  ARG300      0.2205
     78  NE        -4.2500   31.6020   58.2530 N.pl3 300  ARG300     -0.0865
     79  CZ        -4.3920   31.1030   59.4810 C.cat 300  ARG300      0.5346
     80  NH1       -5.3770   31.5010   60.2810 N.pl3 300  ARG300      0.1354
     81  NH2       -3.5350   30.1940   59.9090 N.pl3 300  ARG300      0.1354
     82  N         -1.3300   42.9180   45.0500 N.3   316  ARG316     -0.1245
     83  CA        -1.2260   43.7160   46.2630 C.3   316  ARG316      0.1563
     84  C         -0.1370   44.7710   46.0900 C.2   316  ARG316      0.2260
     85  O          0.9420   44.4610   45.5850 O.2   316  ARG316     -0.2867
     86  CB        -0.9260   42.8250   47.4750 C.3   316  ARG316      0.0307
     87  CG        -2.0540   41.8080   47.7460 C.3   316  ARG316      0.0489
     88  CD        -1.9240   41.1490   49.1080 C.3   316  ARG316      0.2205
     89  NE        -2.4320   42.0320   50.1580 N.pl3 316  ARG316     -0.0865
     90  CZ        -2.5870   41.6760   51.4270 C.cat 316  ARG316      0.5346
     91  NH1       -2.2600   40.4500   51.8240 N.pl3 316  ARG316      0.1354
     92  NH2       -3.0580   42.5540   52.3050 N.pl3 316  ARG316      0.1354
@<TRIPOS>BOND
     1    82    83    1
     2    85    84    2
     3    84    83    1
     4    83    86    1
     5    55    54    1
     6    55    56    1
     7    86    87    1
     8    87    88    1
     9    54    53    1
    10    57    56    1
    11    40    39    2
    12    37    38    1
    13    53    50    1
    14    88    89    1
    15    50    49    1
    16    50    51    1
    17    39    49   am
    18    39    38    1
    19    38    41    1
    20    32    30   ar
    21    89    90    2
    22    30    31   ar
    23    30    29    1
    24    58    51   am
    25    58    59    1
    26    51    52    2
    27    29    26    1
    28    28    27    2
    29    62    59    1
    30    41    42    1
    31    90    91    1
    32    90    92    1
    33    59    60    1
    34    43    42   ar
    35    43    45   ar
    36    42    44   ar
    37    27    26    1
    38    26    25    1
    39    24    21    1
    40    69    68   ar
    41    45    47   ar
    42    70    68   ar
    43    23    22    2
    44    68    67    1
    45    44    46   ar
    46    63    60   am
    47    63    64    1
    48    21    22    1
    49    21    20    1
    50    60    61    2
    51    47    46   ar
    52    47    48    1
    53    36    35    2
    54    35    34    1
    55    67    64    1
    56    20    14   am
    57    71    72    1
    58    71    65   am
    59    64    65    1
    60    73    72    1
    61    73    74    2
    62     4     3    2
    63    72    75    1
    64    15    14    2
    65    65    66    2
    66    14    13    1
    67    34    33    1
    68     7     9   ar
    69     7     6   ar
    70     9    11   ar
    71     3     2    1
    72     3    12   am
    73     2     5    1
    74     2     1    1
    75     5     6    1
    76    13    12    1
    77    13    16    1
    78    75    76    1
    79     6     8   ar
    80    11    10   ar
    81    76    77    1
    82    16    17    1
    83     8    10   ar
    84    77    78    1
    85    18    17   ar
    86    17    19   ar
    87    78    79    2
    88    79    81    1
    89    79    80    1
