@<TRIPOS>MOLECULE
tmp/6jfjA07.pdb
 79 72 0 0 0
SMALL
GASTEIGER

@<TRIPOS>ATOM
      1  N         24.9160   41.6130   61.0340 N.3    58  LEU58      -0.1245
      2  CA        26.0790   41.7620   60.1720 C.3    58  LEU58       0.1561
      3  C         26.9870   40.5470   60.2920 C.2    58  LEU58       0.2260
      4  O         27.2030   40.0170   61.3870 O.2    58  LEU58      -0.2867
      5  CB        26.8540   43.0370   60.5070 C.3    58  LEU58       0.0270
      6  CG        26.1030   44.3440   60.2500 C.3    58  LEU58       0.0019
      7  CD1       26.9240   45.5480   60.6860 C.3    58  LEU58       0.0001
      8  CD2       25.7210   44.4530   58.7910 C.3    58  LEU58       0.0001
      9  N         30.7700   38.7730   58.6360 N.3    60  GLU60      -0.1245
     10  CA        32.0050   39.0690   57.9210 C.3    60  GLU60       0.1567
     11  C         32.2530   38.1080   56.7690 C.2    60  GLU60       0.2260
     12  O         32.9310   38.4760   55.8030 O.2    60  GLU60      -0.2867
     13  CB        33.2010   39.0390   58.8790 C.3    60  GLU60       0.0388
     14  CG        33.7400   40.4170   59.2280 C.3    60  GLU60       0.1160
     15  CD        34.4320   40.4510   60.5840 C.2    60  GLU60       0.3649
     16  OE1       35.0970   39.4580   60.9460 O.co2  60  GLU60      -0.2457
     17  OE2       34.3010   41.4710   61.2930 O.co2  60  GLU60      -0.2457
     18  N         28.7100   39.0470   63.5610 N.3    67  VAL67      -0.1231
     19  CA        29.6630   39.9030   64.2580 C.3    67  VAL67       0.1692
     20  C         29.0060   41.1320   64.8730 C.2    67  VAL67       0.2591
     21  O         29.6800   41.8770   65.6030 O.2    67  VAL67      -0.2718
     22  CB        30.8170   40.3360   63.3280 C.3    67  VAL67       0.0266
     23  CG1       31.4040   39.1270   62.6240 C.3    67  VAL67       0.0020
     24  CG2       30.3410   41.3720   62.3290 C.3    67  VAL67       0.0020
     25  N         27.7170   41.3610   64.6180 N.am   68  LYS68      -0.1980
     26  CA        27.0080   42.5270   65.1240 C.3    68  LYS68       0.1596
     27  C         25.5260   42.3830   64.8000 C.2    68  LYS68       0.2287
     28  O         25.1750   41.9150   63.7160 O.2    68  LYS68      -0.2864
     29  CB        27.5630   43.8170   64.5040 C.3    68  LYS68       0.0298
     30  CG        27.4130   45.0380   65.3750 C.3    68  LYS68       0.0038
     31  CD        28.3820   46.1340   64.9570 C.3    68  LYS68       0.0206
     32  CE        29.7960   45.8420   65.4460 C.3    68  LYS68       0.1093
     33  NZ        30.7600   46.8980   65.0290 N.3    68  LYS68      -0.1314
     34  N         22.1370   44.9850   65.0510 N.3    70  LEU70      -0.1245
     35  CA        21.7710   46.3690   65.3070 C.3    70  LEU70       0.1561
     36  C         20.2610   46.5340   65.2090 C.2    70  LEU70       0.2260
     37  O         19.6750   46.1650   64.1810 O.2    70  LEU70      -0.2867
     38  CB        22.4650   47.2910   64.3100 C.3    70  LEU70       0.0270
     39  CG        23.9680   47.0330   64.1650 C.3    70  LEU70       0.0019
     40  CD1       24.5330   47.8100   63.0020 C.3    70  LEU70       0.0001
     41  CD2       24.6840   47.4110   65.4460 C.3    70  LEU70       0.0001
     42  N         24.1050   52.9540   59.2030 N.3    84  VAL84      -0.1245
     43  CA        25.3980   52.5420   59.7440 C.3    84  VAL84       0.1561
     44  C         26.4350   53.4910   59.1580 C.2    84  VAL84       0.2260
     45  O         26.6760   53.4960   57.9430 O.2    84  VAL84      -0.2867
     46  CB        25.7170   51.0730   59.4250 C.3    84  VAL84       0.0252
     47  CG1       27.0710   50.6690   59.9750 C.3    84  VAL84       0.0019
     48  CG2       24.6320   50.1570   59.9870 C.3    84  VAL84       0.0019
     49  N         29.5090   53.8830   58.6990 N.3    86  GLU86      -0.1231
     50  CA        30.8230   53.3610   58.3610 C.3    86  GLU86       0.1699
     51  C         30.7680   52.7750   56.9590 C.2    86  GLU86       0.2592
     52  O         29.6900   52.5340   56.4060 O.2    86  GLU86      -0.2718
     53  CB        31.2940   52.2850   59.3550 C.3    86  GLU86       0.0402
     54  CG        31.3920   52.7360   60.8250 C.3    86  GLU86       0.1161
     55  CD        30.0820   52.7200   61.6070 C.2    86  GLU86       0.3649
     56  OE1       30.1470   52.6120   62.8530 O.co2  86  GLU86      -0.2457
     57  OE2       29.0000   52.7630   60.9890 O.co2  86  GLU86      -0.2457
     58  N         31.9460   52.5470   56.3820 N.am   87  ASP87      -0.1960
     59  CA        32.0350   51.8610   55.0950 C.3    87  ASP87       0.1840
     60  C         31.7530   50.3800   55.3140 C.2    87  ASP87       0.2622
     61  O         32.5780   49.6630   55.8870 O.2    87  ASP87      -0.2715
     62  CB        33.4090   52.0750   54.4660 C.3    87  ASP87       0.1450
     63  CG        33.4510   51.6940   52.9870 C.2    87  ASP87       0.3671
     64  OD1       32.5120   51.0310   52.4920 O.co2  87  ASP87      -0.2456
     65  OD2       34.4410   52.0600   52.3190 O.co2  87  ASP87      -0.2456
     66  N         30.5820   49.9240   54.8760 N.am   88  CYS88      -0.1968
     67  CA        30.1460   48.5550   55.1070 C.3    88  CYS88       0.1712
     68  C         30.4710   47.6280   53.9500 C.2    88  CYS88       0.2296
     69  O         30.0170   46.4790   53.9560 O.2    88  CYS88      -0.2864
     70  CB        28.6400   48.5200   55.3670 C.3    88  CYS88       0.0983
     71  SG        28.1560   49.2200   56.9490 S.3    88  CYS88      -0.0798
     72  N         30.9280   43.4920   53.7350 N.3    91  LEU91      -0.1245
     73  CA        30.1780   42.8000   54.7700 C.3    91  LEU91       0.1561
     74  C         28.9620   42.0930   54.1690 C.2    91  LEU91       0.2260
     75  O         28.5390   42.3790   53.0470 O.2    91  LEU91      -0.2867
     76  CB        29.7230   43.7820   55.8520 C.3    91  LEU91       0.0270
     77  CG        30.8120   44.4000   56.7360 C.3    91  LEU91       0.0019
     78  CD1       30.1900   45.3320   57.7710 C.3    91  LEU91       0.0001
     79  CD2       31.6260   43.3030   57.4070 C.3    91  LEU91       0.0001
@<TRIPOS>BOND
     1    65    63   ar
     2    64    63   ar
     3    63    62    1
     4    75    74    2
     5    72    73    1
     6    68    69    2
     7    68    67    1
     8    74    73    1
     9    62    59    1
    10    73    76    1
    11    66    67    1
    12    66    60   am
    13    59    60    1
    14    59    58    1
    15    67    70    1
    16    60    61    2
    17    70    71    1
    18    12    11    2
    19    76    77    1
    20    58    51   am
    21    52    51    2
    22    77    79    1
    23    77    78    1
    24    11    10    1
    25    51    50    1
    26    10     9    1
    27    10    13    1
    28    45    44    2
    29    50    49    1
    30    50    53    1
    31     8     6    1
    32    13    14    1
    33    44    43    1
    34    42    43    1
    35    14    15    1
    36    53    54    1
    37    46    43    1
    38    46    47    1
    39    46    48    1
    40     2     3    1
    41     2     5    1
    42     2     1    1
    43     6     5    1
    44     6     7    1
    45     3     4    2
    46    15    16   ar
    47    15    17   ar
    48    54    55    1
    49    57    55   ar
    50    55    56   ar
    51    24    22    1
    52    23    22    1
    53    40    39    1
    54    22    19    1
    55    18    19    1
    56    28    27    2
    57    39    38    1
    58    39    41    1
    59    37    36    2
    60    19    20    1
    61    38    35    1
    62    29    26    1
    63    29    30    1
    64    25    20   am
    65    25    26    1
    66    27    26    1
    67    20    21    2
    68    31    30    1
    69    31    32    1
    70    33    32    1
    71    34    35    1
    72    36    35    1
