@<TRIPOS>MOLECULE
tmp/6jfjA03.pdb
 79 75 0 0 0
SMALL
GASTEIGER

@<TRIPOS>ATOM
      1  N         21.6150   47.5370   19.6390 N.3   140  PRO140     -0.2103
      2  CA        21.3140   47.4630   18.2120 C.3   140  PRO140      0.1489
      3  C         19.9380   48.0340   17.9340 C.2   140  PRO140      0.2417
      4  O         19.0290   47.9490   18.7810 O.2   140  PRO140     -0.2734
      5  CB        21.3640   45.9560   17.9170 C.3   140  PRO140      0.0282
      6  CG        22.1240   45.3540   19.0700 C.3   140  PRO140      0.0208
      7  CD        21.8040   46.2060   20.2460 C.3   140  PRO140      0.0893
      8  N         19.7340   48.6190   16.7540 N.am  141  PRO141     -0.2729
      9  CA        18.4280   49.2070   16.4380 C.3   141  PRO141      0.1401
     10  C         17.3450   48.1450   16.3230 C.2   141  PRO141      0.2269
     11  O         17.6110   46.9870   15.9900 O.2   141  PRO141     -0.2865
     12  CB        18.6650   49.8990   15.0870 C.3   141  PRO141      0.0296
     13  CG        20.1540   50.0370   14.9660 C.3   141  PRO141      0.0237
     14  CD        20.7250   48.8580   15.6900 C.3   141  PRO141      0.0939
     15  N         25.4000   34.5220   16.2260 N.3   194  THR194     -0.1218
     16  CA        25.3950   35.7030   15.3570 C.3   194  THR194      0.1862
     17  C         25.3270   35.3040   13.8890 C.2   194  THR194      0.2287
     18  O         24.6720   35.9890   13.0930 O.2   194  THR194     -0.2866
     19  CB        26.6150   36.5980   15.5970 C.3   194  THR194      0.1770
     20  OG1       27.8150   35.8530   15.3890 O.3   194  THR194     -0.2211
     21  CG2       26.6210   37.1770   17.0250 C.3   194  THR194      0.0375
     22  N         21.8610   35.0840   12.2460 N.3   197  GLY197     -0.1210
     23  CA        21.1140   36.3080   11.9960 C.3   197  GLY197      0.1956
     24  C         19.9320   36.5430   12.9140 C.2   197  GLY197      0.2612
     25  O         19.0900   37.3960   12.6090 O.2   197  GLY197     -0.2717
     26  N         19.8210   35.7970   14.0160 N.am  198  VAL198     -0.1965
     27  CA        18.7920   36.1280   15.0000 C.3   198  VAL198      0.1727
     28  C         19.1010   37.5100   15.5800 C.2   198  VAL198      0.2616
     29  O         20.2130   38.0350   15.4460 O.2   198  VAL198     -0.2715
     30  CB        18.7130   35.0640   16.1030 C.3   198  VAL198      0.0290
     31  CG1       18.3580   33.7080   15.4920 C.3   198  VAL198      0.0023
     32  CG2       20.0370   34.9890   16.8530 C.3   198  VAL198      0.0023
     33  N         18.0960   38.1180   16.2130 N.am  199  THR199     -0.1951
     34  CA        18.2590   39.4660   16.7550 C.3   199  THR199      0.1897
     35  C         18.2620   39.5260   18.2710 C.2   199  THR199      0.2313
     36  O         18.8290   40.4670   18.8300 O.2   199  THR199     -0.2863
     37  CB        17.1510   40.4090   16.2540 C.3   199  THR199      0.1794
     38  OG1       15.9040   40.0540   16.8720 O.3   199  THR199     -0.2208
     39  CG2       17.0100   40.3590   14.7360 C.3   199  THR199      0.0378
     40  N         27.9980   42.7940   19.3180 N.3   264  ARG264     -0.1231
     41  CA        27.8600   41.8840   18.1900 C.3   264  ARG264      0.1694
     42  C         26.4970   41.9760   17.5180 C.2   264  ARG264      0.2593
     43  O         26.1780   41.1350   16.6740 O.2   264  ARG264     -0.2718
     44  CB        28.1380   40.4490   18.6390 C.3   264  ARG264      0.0321
     45  CG        29.6040   40.2460   19.0320 C.3   264  ARG264      0.0489
     46  CD        30.4970   40.2680   17.7960 C.3   264  ARG264      0.2205
     47  NE        30.1720   39.1430   16.9250 N.pl3 264  ARG264     -0.0865
     48  CZ        30.7660   37.9580   16.9830 C.cat 264  ARG264      0.5346
     49  NH1       31.7420   37.7500   17.8520 N.pl3 264  ARG264      0.1354
     50  NH2       30.3930   36.9860   16.1620 N.pl3 264  ARG264      0.1354
     51  N         25.6940   42.9720   17.8610 N.am  265  GLY265     -0.1942
     52  CA        24.4380   43.1900   17.1860 C.3   265  GLY265      0.2014
     53  C         23.2490   42.4530   17.7590 C.2   265  GLY265      0.2638
     54  O         22.2070   42.4090   17.1000 O.2   265  GLY265     -0.2714
     55  N         23.3600   41.8850   18.9610 N.am  266  LEU266     -0.1977
     56  CA        22.2890   41.1050   19.5730 C.3   266  LEU266      0.1596
     57  C         21.6870   41.8470   20.7610 C.2   266  LEU266      0.2287
     58  O         22.3960   42.5450   21.4940 O.2   266  LEU266     -0.2864
     59  CB        22.7960   39.7270   20.0350 C.3   266  LEU266      0.0297
     60  CG        23.2620   38.7890   18.9230 C.3   266  LEU266      0.0022
     61  CD1       23.8460   37.4950   19.5070 C.3   266  LEU266      0.0001
     62  CD2       22.1250   38.4680   17.9770 C.3   266  LEU266      0.0001
     63  N         15.8930   33.0390    7.8360 N.3   547  ILE547     -0.1245
     64  CA        15.9380   34.2760    8.6060 C.3   547  ILE547      0.1561
     65  C         16.2940   35.4440    7.6920 C.2   547  ILE547      0.2260
     66  O         15.7180   36.5380    7.7950 O.2   547  ILE547     -0.2867
     67  CB        16.9220   34.1260    9.7820 C.3   547  ILE547      0.0252
     68  CG1       16.3870   33.0930   10.7980 C.3   547  ILE547      0.0019
     69  CG2       17.1820   35.4820   10.4560 C.3   547  ILE547      0.0019
     70  CD1       17.4500   32.6090   11.8150 C.3   547  ILE547      0.0001
     71  N         14.1540   38.9480    6.7570 N.3   551  LYS551     -0.1245
     72  CA        14.7290   40.2790    6.9050 C.3   551  LYS551      0.1561
     73  C         14.6780   41.0500    5.5970 C.2   551  LYS551      0.2260
     74  O         14.4990   42.2740    5.5930 O.2   551  LYS551     -0.2867
     75  CB        16.1700   40.1790    7.3930 C.3   551  LYS551      0.0271
     76  CG        16.8280   41.5370    7.4900 C.3   551  LYS551      0.0035
     77  CD        18.3350   41.4840    7.4910 C.3   551  LYS551      0.0206
     78  CE        18.9080   42.7870    8.0630 C.3   551  LYS551      0.1093
     79  NZ        18.1480   43.2760    9.2690 N.3   551  LYS551     -0.1314
@<TRIPOS>BOND
     1    74    73    2
     2    73    72    1
     3    71    72    1
     4    72    75    1
     5    75    76    1
     6    76    77    1
     7    77    78    1
     8    65    66    2
     9    65    64    1
    10    63    64    1
    11    78    79    1
    12    64    67    1
    13    67    69    1
    14    67    68    1
    15    68    70    1
    16    23    22    1
    17    23    24    1
    18    25    24    2
    19    24    26   am
    20    18    17    2
    21    17    16    1
    22    26    27    1
    23    39    37    1
    24    13    12    1
    25    13    14    1
    26    27    28    1
    27    27    30    1
    28    12     9    1
    29    16    19    1
    30    16    15    1
    31    20    19    1
    32    29    28    2
    33    31    30    1
    34    28    33   am
    35    19    21    1
    36    14     8    1
    37    11    10    2
    38    30    32    1
    39    50    48    1
    40    33    34    1
    41    37    34    1
    42    37    38    1
    43    10     9    1
    44     9     8    1
    45    43    42    2
    46     8     3   am
    47    34    35    1
    48    47    48    2
    49    47    46    1
    50    48    49    1
    51    54    53    2
    52    52    53    1
    53    52    51    1
    54    42    51   am
    55    42    41    1
    56    53    55   am
    57    46    45    1
    58     5     2    1
    59     5     6    1
    60     3     2    1
    61     3     4    2
    62    62    60    1
    63    41    44    1
    64    41    40    1
    65     2     1    1
    66    35    36    2
    67    44    45    1
    68    60    61    1
    69    60    59    1
    70    55    56    1
    71     6     7    1
    72    56    59    1
    73    56    57    1
    74     1     7    1
    75    57    58    2
