@<TRIPOS>MOLECULE
tmp/6jhiA02.pdb
 134 130 0 0 0
SMALL
GASTEIGER

@<TRIPOS>ATOM
      1  N         17.2150   23.5550   34.1760 N.3   226  TRP226     -0.1241
      2  CA        16.7440   24.7450   33.4700 C.3   226  TRP226      0.1605
      3  C         16.7770   25.9610   34.3760 C.2   226  TRP226      0.2264
      4  O         17.0840   27.0700   33.9210 O.2   226  TRP226     -0.2867
      5  CB        15.3230   24.5670   32.9330 C.3   226  TRP226      0.0550
      6  CG        15.1870   23.6890   31.7210 C.ar  226  TRP226      0.0003
      7  CD1       16.1810   23.2970   30.8620 C.ar  226  TRP226      0.0946
      8  CD2       13.9740   23.0820   31.2420 C.ar  226  TRP226      0.0152
      9  NE1       15.6540   22.4870   29.8760 N.ar  226  TRP226     -0.2442
     10  CE2       14.3090   22.3310   30.0900 C.ar  226  TRP226      0.0810
     11  CE3       12.6380   23.1120   31.6690 C.ar  226  TRP226      0.0012
     12  CZ2       13.3590   21.5960   29.3670 C.ar  226  TRP226      0.0191
     13  CZ3       11.6920   22.3760   30.9530 C.ar  226  TRP226      0.0001
     14  CH2       12.0620   21.6300   29.8100 C.ar  226  TRP226      0.0015
     15  N         14.0360   26.9660   36.6690 N.3   228  TYR228     -0.1241
     16  CA        12.7440   27.6030   36.9430 C.3   228  TYR228      0.1605
     17  C         12.3600   27.5560   38.4240 C.2   228  TYR228      0.2264
     18  O         11.1980   27.3240   38.7690 O.2   228  TYR228     -0.2867
     19  CB        11.6660   26.9560   36.0710 C.3   228  TYR228      0.0534
     20  CG        11.7950   27.3320   34.6170 C.ar  228  TYR228     -0.0201
     21  CD1       11.5120   28.6280   34.1860 C.ar  228  TYR228     -0.0009
     22  CD2       12.2520   26.4090   33.6740 C.ar  228  TYR228     -0.0009
     23  CE1       11.6590   28.9930   32.8310 C.ar  228  TYR228      0.0417
     24  CE2       12.4050   26.7550   32.3260 C.ar  228  TYR228      0.0417
     25  CZ        12.1100   28.0480   31.9090 C.ar  228  TYR228      0.1957
     26  OH        12.2570   28.3940   30.5770 O.3   228  TYR228     -0.2866
     27  N          6.2280   32.3870   40.6110 N.3   276  HIS276     -0.1241
     28  CA         6.3850   31.5160   41.7850 C.3   276  HIS276      0.1621
     29  C          7.8090   31.6150   42.3210 C.2   276  HIS276      0.2264
     30  O          8.7050   32.1090   41.6390 O.2   276  HIS276     -0.2867
     31  CB         6.0290   30.0470   41.4660 C.3   276  HIS276      0.0745
     32  CG         7.1000   29.2940   40.7270 C.ar  276  HIS276      0.0817
     33  ND1        7.1590   29.2350   39.3470 N.ar  276  HIS276     -0.2268
     34  CD2        8.1400   28.5490   41.1760 C.ar  276  HIS276      0.1154
     35  CE1        8.1970   28.5000   38.9810 C.ar  276  HIS276      0.1986
     36  NE2        8.8140   28.0820   40.0720 N.ar  276  HIS276     -0.2212
     37  N          0.3030   27.4020   39.5190 N.3   306  THR306     -0.1218
     38  CA         1.5480   27.0820   38.8250 C.3   306  THR306      0.1862
     39  C          1.9050   25.5960   38.8550 C.2   306  THR306      0.2287
     40  O          2.7620   25.1690   38.0750 O.2   306  THR306     -0.2866
     41  CB         2.7040   27.8700   39.4550 C.3   306  THR306      0.1770
     42  OG1        2.8730   27.4620   40.8290 O.3   306  THR306     -0.2211
     43  CG2        2.4360   29.3710   39.3930 C.3   306  THR306      0.0375
     44  N          3.7290   24.5810   41.0620 N.3   308  CYS308     -0.1235
     45  CA         5.0740   24.6430   41.6110 C.3   308  CYS308      0.1677
     46  C          5.0650   24.7810   43.1260 C.2   308  CYS308      0.2270
     47  O          6.1370   24.8870   43.7350 O.2   308  CYS308     -0.2867
     48  CB         5.8600   25.8010   40.9770 C.3   308  CYS308      0.0956
     49  SG         6.1440   25.6080   39.1800 S.3   308  CYS308     -0.0801
     50  N         10.8510   37.6110   28.8720 N.3   340  ARG340     -0.1245
     51  CA         9.9120   36.5540   28.4970 C.3   340  ARG340      0.1563
     52  C          9.3070   36.0380   29.7890 C.2   340  ARG340      0.2260
     53  O         10.0030   35.4170   30.5940 O.2   340  ARG340     -0.2867
     54  CB        10.6070   35.4230   27.7260 C.3   340  ARG340      0.0307
     55  CG         9.7590   34.1360   27.5120 C.3   340  ARG340      0.0489
     56  CD        10.0710   33.0020   28.5190 C.3   340  ARG340      0.2205
     57  NE         9.4540   31.7370   28.1210 N.pl3 340  ARG340     -0.0865
     58  CZ         9.0940   30.7500   28.9490 C.cat 340  ARG340      0.5346
     59  NH1        9.2950   30.8340   30.2560 N.pl3 340  ARG340      0.1354
     60  NH2        8.5190   29.6610   28.4610 N.pl3 340  ARG340      0.1354
     61  N          7.5100   33.7710   32.0630 N.3   342  ASP342     -0.1225
     62  CA         6.9850   32.4550   32.3940 C.3   342  ASP342      0.1805
     63  C          5.6140   32.5810   33.0590 C.2   342  ASP342      0.2597
     64  O          5.3900   33.4710   33.8840 O.2   342  ASP342     -0.2718
     65  CB         7.9870   31.7490   33.3200 C.3   342  ASP342      0.1424
     66  CG         7.6550   30.3000   33.5610 C.2   342  ASP342      0.3668
     67  OD1        7.7960   29.5160   32.6140 O.co2 342  ASP342     -0.2456
     68  OD2        7.2790   29.9370   34.7030 O.co2 342  ASP342     -0.2456
     69  N          4.7000   31.6780   32.6880 N.am  343  LEU343     -0.1979
     70  CA         3.3000   31.6590   33.1310 C.3   343  LEU343      0.1596
     71  C          2.7360   33.0460   33.3910 C.2   343  LEU343      0.2287
     72  O          2.3230   33.3460   34.5190 O.2   343  LEU343     -0.2864
     73  CB         3.1400   30.8060   34.3950 C.3   343  LEU343      0.0297
     74  CG         3.6760   29.3760   34.2790 C.3   343  LEU343      0.0022
     75  CD1        3.4740   28.6090   35.5810 C.3   343  LEU343      0.0001
     76  CD2        3.0120   28.6550   33.1040 C.3   343  LEU343      0.0001
     77  N          4.1030   33.6440   28.2500 N.3   371  GLU371     -0.1245
     78  CA         3.2020   32.4950   28.1700 C.3   371  GLU371      0.1567
     79  C          1.8480   32.9170   28.7350 C.2   371  GLU371      0.2260
     80  O          1.6170   32.8500   29.9390 O.2   371  GLU371     -0.2867
     81  CB         3.7700   31.3160   28.9560 C.3   371  GLU371      0.0388
     82  CG         4.9590   30.6010   28.3450 C.3   371  GLU371      0.1160
     83  CD         5.3260   29.3280   29.1270 C.2   371  GLU371      0.3649
     84  OE1        5.3500   29.3650   30.3870 O.co2 371  GLU371     -0.2457
     85  OE2        5.5650   28.2850   28.4730 O.co2 371  GLU371     -0.2457
     86  N         -1.0820   31.4690   28.9610 N.3   373  TRP373     -0.1241
     87  CA        -2.0260   30.3590   29.0180 C.3   373  TRP373      0.1605
     88  C         -3.1580   30.6770   29.9920 C.2   373  TRP373      0.2264
     89  O         -2.9650   31.3770   30.9950 O.2   373  TRP373     -0.2867
     90  CB        -1.3270   29.0580   29.4410 C.3   373  TRP373      0.0550
     91  CG         0.0150   28.7780   28.7740 C.ar  373  TRP373      0.0003
     92  CD1        1.1740   28.3830   29.4030 C.ar  373  TRP373      0.0946
     93  CD2        0.3280   28.8360   27.3640 C.ar  373  TRP373      0.0152
     94  NE1        2.1770   28.2100   28.4840 N.ar  373  TRP373     -0.2442
     95  CE2        1.6920   28.4790   27.2250 C.ar  373  TRP373      0.0810
     96  CE3       -0.4080   29.1590   26.2080 C.ar  373  TRP373      0.0012
     97  CZ2        2.3430   28.4410   25.9680 C.ar  373  TRP373      0.0191
     98  CZ3        0.2440   29.1180   24.9510 C.ar  373  TRP373      0.0001
     99  CH2        1.6010   28.7630   24.8510 C.ar  373  TRP373      0.0015
    100  N         12.3940   24.9500   24.6010 N.3   461  HIS461     -0.1226
    101  CA        13.0070   24.0470   25.5730 C.3   461  HIS461      0.1752
    102  C         12.0090   23.0070   26.0960 C.2   461  HIS461      0.2595
    103  O         12.3950   21.8640   26.3660 O.2   461  HIS461     -0.2718
    104  CB        13.6040   24.8580   26.7330 C.3   461  HIS461      0.0759
    105  CG        12.5700   25.5160   27.5910 C.ar  461  HIS461      0.0818
    106  ND1       12.0620   26.7670   27.3160 N.ar  461  HIS461     -0.2268
    107  CD2       11.9130   25.0750   28.6910 C.ar  461  HIS461      0.1154
    108  CE1       11.1390   27.0710   28.2110 C.ar  461  HIS461      0.1986
    109  NE2       11.0280   26.0620   29.0570 N.ar  461  HIS461     -0.2212
    110  N         10.7300   23.3630   26.2240 N.am  462  ALA462     -0.1980
    111  CA         9.7500   22.4540   26.8140 C.3   462  ALA462      0.1597
    112  C          9.1460   21.5180   25.7620 C.2   462  ALA462      0.2287
    113  O          9.1240   21.8220   24.5700 O.2   462  ALA462     -0.2864
    114  CB         8.6460   23.2470   27.5080 C.3   462  ALA462      0.0319
    115  N         10.4040   16.0670   28.6130 N.3   517  ASN517     -0.1240
    116  CA        10.5170   17.1780   29.5610 C.3   517  ASN517      0.1653
    117  C         11.8900   17.0610   30.2240 C.2   517  ASN517      0.2266
    118  O         12.0560   16.3250   31.2020 O.2   517  ASN517     -0.2867
    119  CB         9.3620   17.1340   30.5640 C.3   517  ASN517      0.1155
    120  CG         9.5080   18.1520   31.7010 C.2   517  ASN517      0.2627
    121  OD1        9.9300   19.2920   31.4890 O.2   517  ASN517     -0.2716
    122  ND2        9.1280   17.7440   32.9080 N.am  517  ASN517     -0.0877
    123  N         14.0070   18.9760   31.9580 N.3   519  TYR519     -0.1241
    124  CA        14.4030   20.0910   32.8280 C.3   519  TYR519      0.1605
    125  C         15.5440   19.7470   33.7810 C.2   519  TYR519      0.2264
    126  O         16.2770   20.6460   34.2160 O.2   519  TYR519     -0.2867
    127  CB        13.2000   20.5750   33.6440 C.3   519  TYR519      0.0534
    128  CG        12.7700   19.6740   34.7930 C.ar  519  TYR519     -0.0201
    129  CD1       11.9870   18.5490   34.5620 C.ar  519  TYR519     -0.0009
    130  CD2       13.1200   19.9690   36.1040 C.ar  519  TYR519     -0.0009
    131  CE1       11.5720   17.7320   35.6050 C.ar  519  TYR519      0.0417
    132  CE2       12.7160   19.1710   37.1500 C.ar  519  TYR519      0.0417
    133  CZ        11.9410   18.0560   36.8970 C.ar  519  TYR519      0.1957
    134  OH        11.5380   17.2650   37.9410 O.3   519  TYR519     -0.2866
@<TRIPOS>BOND
     1   113   112    2
     2   100   101    1
     3    99    98   ar
     4    99    97   ar
     5    98    96   ar
     6   101   102    1
     7   101   104    1
     8   112   111    1
     9    97    95   ar
    10   102   110   am
    11   102   103    2
    12    96    93   ar
    13   110   111    1
    14   104   105    1
    15   111   114    1
    16    95    93   ar
    17    95    94   ar
    18   106   105   ar
    19   106   108   ar
    20    93    91   ar
    21    55    54    1
    22    55    56    1
    23   105   107   ar
    24    54    51    1
    25    57    56    1
    26    57    58    2
    27    78    77    1
    28    78    79    1
    29    78    81    1
    30   108   109   ar
    31    82    81    1
    32    82    83    1
    33    60    58    1
    34    85    83   ar
    35    94    92   ar
    36    51    50    1
    37    51    52    1
    38   115   116    1
    39   107   109   ar
    40    79    80    2
    41    91    92   ar
    42    91    90    1
    43    58    59    1
    44    86    87    1
    45    87    90    1
    46    87    88    1
    47    83    84   ar
    48    12    14   ar
    49    12    10   ar
    50   116   117    1
    51   116   119    1
    52    52    53    2
    53    14    13   ar
    54     9    10   ar
    55     9     7   ar
    56    88    89    2
    57    10     8   ar
    58   117   118    2
    59   119   120    1
    60    26    25    1
    61     7     6   ar
    62    13    11   ar
    63     8    11   ar
    64     8     6   ar
    65   121   120    2
    66   120   122   am
    67     6     5    1
    68    25    24   ar
    69    25    23   ar
    70   123   124    1
    71    61    62    1
    72    24    22   ar
    73    62    63    1
    74    62    65    1
    75    67    66   ar
    76    69    63   am
    77    69    70    1
    78   124   127    1
    79   124   125    1
    80    23    21   ar
    81     5     2    1
    82    63    64    2
    83    76    74    1
    84    70    71    1
    85    70    73    1
    86    65    66    1
    87    71    72    2
    88     2     1    1
    89     2     3    1
    90    66    68   ar
    91   127   128    1
    92    22    20   ar
    93   125   126    2
    94     4     3    2
    95    21    20   ar
    96    74    73    1
    97    74    75    1
    98   129   128   ar
    99   129   131   ar
   100    20    19    1
   101   128   130   ar
   102   131   133   ar
   103    19    16    1
   104   130   132   ar
   105    15    16    1
   106   133   132   ar
   107   133   134    1
   108    16    17    1
   109    40    39    2
   110    17    18    2
   111    38    39    1
   112    38    41    1
   113    38    37    1
   114    35    33   ar
   115    35    36   ar
   116    49    48    1
   117    33    32   ar
   118    43    41    1
   119    41    42    1
   120    36    34   ar
   121    27    28    1
   122    32    34   ar
   123    32    31    1
   124    48    45    1
   125    44    45    1
   126    31    28    1
   127    45    46    1
   128    30    29    2
   129    28    29    1
   130    46    47    2
