@<TRIPOS>MOLECULE
tmp/6m7kA00.pdb
 230 224 0 0 0
SMALL
GASTEIGER

@<TRIPOS>ATOM
      1  N        -17.8960   -2.5070   22.6540 N.3    19  TYR19      -0.1241
      2  CA       -16.9990   -2.1040   23.7220 C.3    19  TYR19       0.1605
      3  C        -17.8230   -1.7810   24.9680 C.2    19  TYR19       0.2264
      4  O        -18.8570   -1.1050   24.8920 O.2    19  TYR19      -0.2867
      5  CB       -16.1580   -0.8890   23.2930 C.3    19  TYR19       0.0534
      6  CG       -15.5540   -0.1810   24.4620 C.ar   19  TYR19      -0.0201
      7  CD1      -14.4650   -0.6980   25.1250 C.ar   19  TYR19      -0.0009
      8  CD2      -16.0990    0.9900   24.9260 C.ar   19  TYR19      -0.0009
      9  CE1      -13.9280   -0.0470   26.2230 C.ar   19  TYR19       0.0417
     10  CE2      -15.5940    1.6240   26.0230 C.ar   19  TYR19       0.0417
     11  CZ       -14.5050    1.1000   26.6530 C.ar   19  TYR19       0.1957
     12  OH       -13.9710    1.7320   27.7530 O.3    19  TYR19      -0.2866
     13  N        -17.5200   -0.2200   28.8650 N.3    21  PRO21      -0.2116
     14  CA       -16.7110    0.3620   29.9360 C.3    21  PRO21       0.1372
     15  C        -16.6140   -0.5800   31.1270 C.2    21  PRO21       0.2244
     16  O        -17.5620   -1.2910   31.4590 O.2    21  PRO21      -0.2868
     17  CB       -17.4670    1.6460   30.2950 C.3    21  PRO21       0.0268
     18  CG       -18.2590    1.9700   29.0850 C.3    21  PRO21       0.0207
     19  CD       -18.6370    0.6390   28.4790 C.3    21  PRO21       0.0892
     20  N        -16.8320   -0.3510   34.3170 N.3    23  GLU23      -0.1231
     21  CA       -17.7870   -0.2700   35.4180 C.3    23  GLU23       0.1699
     22  C        -19.1570   -0.8420   35.0740 C.2    23  GLU23       0.2592
     23  O        -19.9600   -1.0970   35.9800 O.2    23  GLU23      -0.2718
     24  CB       -17.9980    1.1970   35.8310 C.3    23  GLU23       0.0402
     25  CG       -16.8120    1.8450   36.5310 C.3    23  GLU23       0.1161
     26  CD       -16.9570    3.3580   36.6470 C.2    23  GLU23       0.3649
     27  OE1      -17.8820    3.9230   36.0240 O.co2  23  GLU23      -0.2457
     28  OE2      -16.1490    3.9850   37.3660 O.co2  23  GLU23      -0.2457
     29  N        -19.4620   -1.0070   33.8010 N.am   24  VAL24      -0.1980
     30  CA       -20.7920   -1.4460   33.3820 C.3    24  VAL24       0.1595
     31  C        -20.8990   -2.9470   33.6030 C.2    24  VAL24       0.2287
     32  O        -20.0110   -3.6880   33.1820 O.2    24  VAL24      -0.2864
     33  CB       -21.0130   -1.0990   31.9130 C.3    24  VAL24       0.0276
     34  CG1      -22.2970   -1.7130   31.3800 C.3    24  VAL24       0.0022
     35  CG2      -21.0300    0.4310   31.7610 C.3    24  VAL24       0.0022
     36  N        -12.5320   -7.2190   25.0360 N.3    50  TYR50      -0.1241
     37  CA       -13.6340   -6.5130   25.6820 C.3    50  TYR50       0.1605
     38  C        -14.2230   -7.3530   26.8130 C.2    50  TYR50       0.2264
     39  O        -14.9750   -6.8120   27.6360 O.2    50  TYR50      -0.2867
     40  CB       -14.7430   -6.1080   24.6890 C.3    50  TYR50       0.0534
     41  CG       -14.3120   -5.2830   23.4720 C.ar   50  TYR50      -0.0201
     42  CD1      -13.1060   -4.5860   23.4410 C.ar   50  TYR50      -0.0009
     43  CD2      -15.1260   -5.2210   22.3400 C.ar   50  TYR50      -0.0009
     44  CE1      -12.7280   -3.8550   22.3220 C.ar   50  TYR50       0.0417
     45  CE2      -14.7420   -4.4890   21.2170 C.ar   50  TYR50       0.0417
     46  CZ       -13.5280   -3.8240   21.2190 C.ar   50  TYR50       0.1957
     47  OH       -13.1300   -3.0980   20.1130 O.3    50  TYR50      -0.2866
     48  N         -5.9390   -7.1680   16.7550 N.3   112  HIS112     -0.1241
     49  CA        -6.4420   -5.9610   17.4330 C.3   112  HIS112      0.1621
     50  C         -5.4800   -4.7880   17.3270 C.2   112  HIS112      0.2264
     51  O         -5.9110   -3.6210   17.3550 O.2   112  HIS112     -0.2867
     52  CB        -6.7660   -6.3350   18.8840 C.3   112  HIS112      0.0745
     53  CG        -7.8150   -5.5030   19.5460 C.ar  112  HIS112      0.0817
     54  ND1       -8.7570   -6.0760   20.3680 N.ar  112  HIS112     -0.2268
     55  CD2       -8.0680   -4.1630   19.5280 C.ar  112  HIS112      0.1154
     56  CE1       -9.5350   -5.1170   20.8310 C.ar  112  HIS112      0.1986
     57  NE2       -9.1520   -3.9480   20.3460 N.ar  112  HIS112     -0.2212
     58  N        -14.0010    3.0070   14.7360 N.3   211  TYR211     -0.1227
     59  CA       -14.4940    3.0470   16.1010 C.3   211  TYR211      0.1736
     60  C        -14.2670    4.4340   16.6840 C.2   211  TYR211      0.2596
     61  O        -13.5530    5.2620   16.1330 O.2   211  TYR211     -0.2718
     62  CB       -13.9020    1.9450   16.9750 C.3   211  TYR211      0.0548
     63  CG       -12.4150    2.0490   17.2160 C.ar  211  TYR211     -0.0200
     64  CD1      -11.8960    2.8640   18.2090 C.ar  211  TYR211     -0.0009
     65  CD2      -11.5140    1.3070   16.4510 C.ar  211  TYR211     -0.0009
     66  CE1      -10.5300    2.9260   18.4240 C.ar  211  TYR211      0.0417
     67  CE2      -10.1750    1.3680   16.6650 C.ar  211  TYR211      0.0417
     68  CZ        -9.6620    2.1880   17.6450 C.ar  211  TYR211      0.1957
     69  OH        -8.3280    2.2840   17.9030 O.3   211  TYR211     -0.2866
     70  N        -14.9130    4.6980   17.8210 N.am  212  GLY212     -0.1942
     71  CA       -14.8480    6.0270   18.4210 C.3   212  GLY212      0.2014
     72  C        -15.3880    7.1080   17.5100 C.2   212  GLY212      0.2639
     73  O        -14.8940    8.2460   17.5230 O.2   212  GLY212     -0.2714
     74  N        -16.4420    6.8000   16.7780 N.am  213  ALA213     -0.1963
     75  CA       -16.9030    7.6050   15.6660 C.3   213  ALA213      0.1728
     76  C        -17.5400    8.9260   16.0770 C.2   213  ALA213      0.2616
     77  O        -17.7210    9.8010   15.2230 O.2   213  ALA213     -0.2715
     78  CB       -17.8890    6.7590   14.8510 C.3   213  ALA213      0.0334
     79  N        -17.8990    9.0870   17.3470 N.am  214  LEU214     -0.1963
     80  CA       -18.4530   10.3420   17.8320 C.3   214  LEU214      0.1728
     81  C        -17.4540   11.1310   18.6590 C.2   214  LEU214      0.2617
     82  O        -17.8310   12.1430   19.2790 O.2   214  LEU214     -0.2715
     83  CB       -19.7650   10.1060   18.5810 C.3   214  LEU214      0.0311
     84  CG       -20.8420    9.3410   17.8060 C.3   214  LEU214      0.0022
     85  CD1      -22.0700    9.1960   18.6970 C.3   214  LEU214      0.0001
     86  CD2      -21.1850   10.0180   16.4860 C.3   214  LEU214      0.0001
     87  N        -16.1780   10.7720   18.6020 N.am  215  GLY215     -0.1940
     88  CA       -15.1660   11.5030   19.3570 C.3   215  GLY215      0.2014
     89  C        -15.3430   11.3040   20.8760 C.2   215  GLY215      0.2640
     90  O        -16.2850   10.6690   21.3920 O.2   215  GLY215     -0.2714
     91  N        -14.5080   11.9710   21.6280 N.am  216  THR216     -0.1936
     92  CA       -14.5930   11.8460   23.0720 C.3   216  THR216      0.2028
     93  C        -15.7300   12.6820   23.6280 C.2   216  THR216      0.2642
     94  O        -16.0320   13.7680   23.1270 O.2   216  THR216     -0.2714
     95  CB       -13.2750   12.2550   23.7290 C.3   216  THR216      0.1808
     96  OG1      -13.2650   11.7820   25.0740 O.3   216  THR216     -0.2208
     97  CG2      -13.0390   13.7440   23.8080 C.3   216  THR216      0.0379
     98  N        -16.3060   12.1800   24.7100 N.am  217  GLN217     -0.1963
     99  CA       -17.3060   12.8550   25.5130 C.3   217  GLN217      0.1733
    100  C        -16.8800   12.9070   26.9760 C.2   217  GLN217      0.2616
    101  O        -17.7090   13.1490   27.8580 O.2   217  GLN217     -0.2715
    102  CB       -18.6670   12.1380   25.3650 C.3   217  GLN217      0.0408
    103  CG       -19.1790   12.1200   23.9150 C.3   217  GLN217      0.0908
    104  CD       -20.3890   11.2000   23.6760 C.2   217  GLN217      0.2608
    105  OE1      -21.3680   11.3030   24.3520 O.2   217  GLN217     -0.2717
    106  NE2      -20.2940   10.3140   22.7050 N.am  217  GLN217     -0.0878
    107  N        -15.6020   12.7070   27.2640 N.am  218  ARG218     -0.1977
    108  CA       -15.1320   12.6860   28.6470 C.3   218  ARG218      0.1597
    109  C        -15.3120   14.0470   29.3070 C.2   218  ARG218      0.2287
    110  O        -15.2000   15.0900   28.6640 O.2   218  ARG218     -0.2864
    111  CB       -13.6570   12.2450   28.6820 C.3   218  ARG218      0.0334
    112  CG       -12.7030   13.1560   27.9210 C.3   218  ARG218      0.0492
    113  CD       -11.4290   12.4620   27.4080 C.3   218  ARG218      0.2205
    114  NE       -10.6000   13.3920   26.6320 N.pl3 218  ARG218     -0.0865
    115  CZ        -9.4500   13.0810   26.0300 C.cat 218  ARG218      0.5346
    116  NH1       -8.9720   11.8470   26.0930 N.pl3 218  ARG218      0.1354
    117  NH2       -8.7740   14.0130   25.3550 N.pl3 218  ARG218      0.1354
    118  N        -19.4640   16.3500   19.5270 N.3   231  LEU231     -0.1245
    119  CA       -20.9220   16.4130   19.5420 C.3   231  LEU231      0.1561
    120  C        -21.4460   17.8080   19.8810 C.2   231  LEU231      0.2260
    121  O        -22.6160   18.1080   19.6080 O.2   231  LEU231     -0.2867
    122  CB       -21.4960   15.3600   20.4800 C.3   231  LEU231      0.0270
    123  CG       -21.4580   13.9390   19.9190 C.3   231  LEU231      0.0019
    124  CD1      -21.9010   12.9880   21.0020 C.3   231  LEU231      0.0001
    125  CD2      -22.2970   13.7450   18.6870 C.3   231  LEU231      0.0001
    126  N        -29.7360   14.7380   13.6870 N.3   246  SER246     -0.1217
    127  CA       -28.9370   15.0490   14.8640 C.3   246  SER246      0.1889
    128  C        -27.4610   15.1770   14.5070 C.2   246  SER246      0.2288
    129  O        -26.9870   14.5820   13.5230 O.2   246  SER246     -0.2866
    130  CB       -29.0800   13.9450   15.9040 C.3   246  SER246      0.2089
    131  OG       -28.4940   12.7700   15.4090 O.3   246  SER246     -0.2183
    132  N        -25.0210   13.6010   15.8940 N.3   248  ALA248     -0.1245
    133  CA       -24.4590   12.2580   15.8300 C.3   248  ALA248      0.1562
    134  C        -24.7220   11.6110   14.4850 C.2   248  ALA248      0.2260
    135  O        -23.8450   10.9380   13.9430 O.2   248  ALA248     -0.2867
    136  CB       -25.0380   11.4030   16.9510 C.3   248  ALA248      0.0290
    137  N        -18.7470    1.8150   13.4050 N.3   263  LEU263     -0.1231
    138  CA       -19.3310    0.9970   14.4630 C.3   263  LEU263      0.1693
    139  C        -20.0550    1.9180   15.4190 C.2   263  LEU263      0.2592
    140  O        -19.4170    2.7230   16.1140 O.2   263  LEU263     -0.2718
    141  CB       -18.2410    0.2460   15.2110 C.3   263  LEU263      0.0284
    142  CG       -17.3770   -0.6320   14.3360 C.3   263  LEU263      0.0019
    143  CD1      -16.3100   -1.3290   15.1540 C.3   263  LEU263      0.0001
    144  CD2      -18.2110   -1.6670   13.6110 C.3   263  LEU263      0.0001
    145  N        -21.3590    1.7850   15.4810 N.am  264  ALA264     -0.1966
    146  CA       -22.2000    2.6270   16.3180 C.3   264  ALA264      0.1728
    147  C        -22.3540    1.9530   17.6680 C.2   264  ALA264      0.2616
    148  O        -22.8800    0.8420   17.7510 O.2   264  ALA264     -0.2715
    149  CB       -23.5610    2.8060   15.6580 C.3   264  ALA264      0.0334
    150  N        -21.9610    2.6530   18.7070 N.am  265  GLN265     -0.1963
    151  CA       -21.8240    2.1470   20.0670 C.3   265  GLN265      0.1733
    152  C        -22.9200    2.7980   20.9060 C.2   265  GLN265      0.2617
    153  O        -22.9860    4.0200   20.9850 O.2   265  GLN265     -0.2715
    154  CB       -20.4270    2.5740   20.5170 C.3   265  GLN265      0.0408
    155  CG       -20.0930    2.3860   21.9310 C.3   265  GLN265      0.0908
    156  CD       -19.6920    0.9780   22.2310 C.2   265  GLN265      0.2608
    157  OE1      -19.2440    0.2270   21.3440 O.2   265  GLN265     -0.2717
    158  NE2      -19.8210    0.6010   23.4860 N.am  265  GLN265     -0.0878
    159  N        -23.8120    1.9840   21.4810 N.am  266  SER266     -0.1936
    160  CA       -24.8380    2.5210   22.3720 C.3   266  SER266      0.2055
    161  C        -25.5050    1.3770   23.1240 C.2   266  SER266      0.2643
    162  O        -25.6710    0.2860   22.5840 O.2   266  SER266     -0.2714
    163  CB       -25.9210    3.2790   21.5980 C.3   266  SER266      0.2130
    164  OG       -26.9430    3.6840   22.4870 O.3   266  SER266     -0.2179
    165  N        -25.9270    1.6600   24.3470 N.am  267  PHE267     -0.1959
    166  CA       -26.7480    0.7440   25.1250 C.3   267  PHE267      0.1771
    167  C        -28.2280    1.1440   25.1160 C.2   267  PHE267      0.2619
    168  O        -29.0390    0.4910   25.7930 O.2   267  PHE267     -0.2715
    169  CB       -26.2540    0.6640   26.5840 C.3   267  PHE267      0.0574
    170  CG       -24.9240   -0.0290   26.7590 C.ar  267  PHE267     -0.0200
    171  CD1      -23.7260    0.6460   26.5580 C.ar  267  PHE267     -0.0042
    172  CD2      -24.8650   -1.3600   27.1440 C.ar  267  PHE267     -0.0042
    173  CE1      -22.4990   -0.0060   26.7350 C.ar  267  PHE267     -0.0003
    174  CE2      -23.6580   -2.0010   27.3240 C.ar  267  PHE267     -0.0003
    175  CZ       -22.4710   -1.3340   27.1190 C.ar  267  PHE267     -0.0000
    176  N        -28.6150    2.1850   24.3770 N.am  268  LYS268     -0.1977
    177  CA       -29.9500    2.7810   24.4640 C.3   268  LYS268      0.1596
    178  C        -30.7470    2.5350   23.1900 C.2   268  LYS268      0.2287
    179  O        -30.2940    2.9050   22.1000 O.2   268  LYS268     -0.2864
    180  CB       -29.8100    4.2880   24.6860 C.3   268  LYS268      0.0298
    181  CG       -29.0090    4.6840   25.9380 C.3   268  LYS268      0.0038
    182  CD       -28.8910    6.2110   26.0530 C.3   268  LYS268      0.0206
    183  CE       -28.4610    6.6870   27.4430 C.3   268  LYS268      0.1093
    184  NZ       -26.9860    6.6450   27.6590 N.3   268  LYS268     -0.1314
    185  N        -31.1300    5.5140   20.6720 N.3   271  GLU271     -0.1245
    186  CA       -29.9310    5.7900   19.8770 C.3   271  GLU271      0.1567
    187  C        -29.6620    4.6970   18.8620 C.2   271  GLU271      0.2260
    188  O        -29.2910    4.9800   17.7210 O.2   271  GLU271     -0.2867
    189  CB       -28.7260    5.9410   20.7860 C.3   271  GLU271      0.0388
    190  CG       -28.7930    7.1790   21.6110 C.3   271  GLU271      0.1160
    191  CD       -27.6410    7.3430   22.5490 C.2   271  GLU271      0.3649
    192  OE1      -26.8320    6.4170   22.6890 O.co2 271  GLU271     -0.2457
    193  OE2      -27.5750    8.4440   23.1530 O.co2 271  GLU271     -0.2457
    194  N        -32.0490    5.4340   16.0810 N.3   274  GLU274     -0.1231
    195  CA       -31.6350    6.6380   15.3520 C.3   274  GLU274      0.1699
    196  C        -30.4560    6.3390   14.4380 C.2   274  GLU274      0.2592
    197  O        -30.4350    6.7480   13.2710 O.2   274  GLU274     -0.2718
    198  CB       -31.2670    7.7340   16.3520 C.3   274  GLU274      0.0402
    199  CG       -30.7720    9.0630   15.7230 C.3   274  GLU274      0.1161
    200  CD       -30.6060   10.1930   16.7380 C.2   274  GLU274      0.3649
    201  OE1      -29.4770   10.6810   16.9600 O.co2 274  GLU274     -0.2457
    202  OE2      -31.6310   10.6130   17.3190 O.co2 274  GLU274     -0.2457
    203  N        -29.4530    5.6320   14.9600 N.am  275  ASN275     -0.1974
    204  CA       -28.2430    5.4220   14.1760 C.3   275  ASN275      0.1688
    205  C        -28.5330    4.6240   12.9230 C.2   275  ASN275      0.2292
    206  O        -27.9010    4.8420   11.8870 O.2   275  ASN275     -0.2864
    207  CB       -27.1540    4.7670   15.0340 C.3   275  ASN275      0.1181
    208  CG       -26.6830    5.6800   16.1370 C.2   275  ASN275      0.2629
    209  OD1      -26.8490    6.9030   16.0470 O.2   275  ASN275     -0.2716
    210  ND2      -26.0800    5.1260   17.1500 N.am  275  ASN275     -0.0877
    211  N         -8.0500   10.2350   20.2600 N.3   300  TYR300     -0.1227
    212  CA        -8.4840   10.0740   21.6350 C.3   300  TYR300      0.1736
    213  C         -8.1490    8.7170   22.2180 C.2   300  TYR300      0.2595
    214  O         -8.2020    8.5680   23.4560 O.2   300  TYR300     -0.2718
    215  CB        -9.9750   10.3280   21.7260 C.3   300  TYR300      0.0548
    216  CG       -10.3930   11.7210   21.3460 C.ar  300  TYR300     -0.0200
    217  CD1       -9.9230   12.8100   22.0450 C.ar  300  TYR300     -0.0009
    218  CD2      -11.2840   11.9550   20.3060 C.ar  300  TYR300     -0.0009
    219  CE1      -10.3380   14.0990   21.7410 C.ar  300  TYR300      0.0417
    220  CE2      -11.7120   13.2390   20.0050 C.ar  300  TYR300      0.0417
    221  CZ       -11.2470   14.3020   20.7150 C.ar  300  TYR300      0.1957
    222  OH       -11.7640   15.5510   20.4310 O.3   300  TYR300     -0.2866
    223  N         -7.7820    7.7370   21.3920 N.am  301  LEU301     -0.1980
    224  CA        -7.4840    6.3800   21.8580 C.3   301  LEU301      0.1596
    225  C         -6.0900    5.9870   21.3850 C.2   301  LEU301      0.2287
    226  O         -5.9150    5.1550   20.4850 O.2   301  LEU301     -0.2864
    227  CB        -8.5610    5.4090   21.3920 C.3   301  LEU301      0.0297
    228  CG        -9.9420    5.7370   21.9890 C.3   301  LEU301      0.0022
    229  CD1      -11.0630    4.9810   21.2960 C.3   301  LEU301      0.0001
    230  CD2       -9.9750    5.4590   23.4740 C.3   301  LEU301      0.0001
@<TRIPOS>BOND
     1   206   205    2
     2   205   204    1
     3   197   196    2
     4   137   138    1
     5   129   128    2
     6   144   142    1
     7   126   127    1
     8   135   134    2
     9   204   203    1
    10   204   207    1
    11   142   143    1
    12   142   141    1
    13   196   203   am
    14   196   195    1
    15   138   141    1
    16   138   139    1
    17   134   133    1
    18   128   127    1
    19    58    59    1
    20    78    75    1
    21   127   130    1
    22   207   208    1
    23    77    76    2
    24   195   194    1
    25   195   198    1
    26   131   130    1
    27   139   145   am
    28   139   140    2
    29   145   146    1
    30   149   146    1
    31    75    76    1
    32    75    74    1
    33   199   198    1
    34   199   200    1
    35   133   132    1
    36   133   136    1
    37   209   208    2
    38    76    79   am
    39    59    60    1
    40    59    62    1
    41    61    60    2
    42   208   210   am
    43   146   147    1
    44    65    67   ar
    45    65    63   ar
    46    86    84    1
    47    67    68   ar
    48    60    70   am
    49   200   201   ar
    50   200   202   ar
    51    48    49    1
    52    74    72   am
    53    62    63    1
    54    63    64   ar
    55    50    51    2
    56    50    49    1
    57    79    80    1
    58    49    52    1
    59    72    73    2
    60    72    71    1
    61    68    69    1
    62    68    66   ar
    63   147   148    2
    64   147   150   am
    65   188   187    2
    66    84    83    1
    67    84    85    1
    68    70    71    1
    69    80    83    1
    70    80    81    1
    71    64    66   ar
    72    87    81   am
    73    87    88    1
    74    81    82    2
    75   125   123    1
    76   150   151    1
    77   187   186    1
    78    52    53    1
    79    88    89    1
    80   118   119    1
    81    55    53   ar
    82    55    57   ar
    83   119   120    1
    84   119   122    1
    85    53    54   ar
    86   121   120    2
    87   186   185    1
    88   186   189    1
    89   123   122    1
    90   123   124    1
    91   220   218   ar
    92   220   221   ar
    93   151   154    1
    94   151   152    1
    95    47    46    1
    96   211   212    1
    97   218   216   ar
    98    57    56   ar
    99    54    56   ar
   100   222   221    1
   101   226   225    2
   102   154   155    1
   103   221   219   ar
   104   189   190    1
   105    89    90    2
   106    89    91   am
   107   152   153    2
   108   152   159   am
   109    45    46   ar
   110    45    43   ar
   111    46    44   ar
   112   229   228    1
   113   157   156    2
   114   216   215    1
   115   216   217   ar
   116   225   224    1
   117   223   224    1
   118   223   213   am
   119   227   224    1
   120   227   228    1
   121   159   160    1
   122   163   160    1
   123   163   164    1
   124   190   191    1
   125    91    92    1
   126   212   215    1
   127   212   213    1
   128   219   217   ar
   129   155   156    1
   130   228   230    1
   131   179   178    2
   132   213   214    2
   133   156   158   am
   134    44    42   ar
   135    43    41   ar
   136   160   161    1
   137   191   192   ar
   138   191   193   ar
   139   162   161    2
   140     1     2    1
   141   106   104   am
   142    92    93    1
   143    92    95    1
   144   161   165   am
   145    94    93    2
   146   178   177    1
   147     5     2    1
   148     5     6    1
   149    42    41   ar
   150    41    40    1
   151    93    98   am
   152   104   103    1
   153   104   105    2
   154     2     3    1
   155    95    97    1
   156    95    96    1
   157   103   102    1
   158   165   166    1
   159   176   177    1
   160   176   167   am
   161     6     8   ar
   162     6     7   ar
   163   177   180    1
   164   180   181    1
   165    40    37    1
   166    98    99    1
   167     4     3    2
   168     8    10   ar
   169    36    37    1
   170   167   166    1
   171   167   168    2
   172     7     9   ar
   173   166   169    1
   174   117   115    1
   175   102    99    1
   176    99   100    1
   177    37    38    1
   178   181   182    1
   179    10    11   ar
   180   115   116    1
   181   115   114    2
   182   182   183    1
   183     9    11   ar
   184   171   173   ar
   185   171   170   ar
   186   169   170    1
   187   114   113    1
   188    11    12    1
   189   173   175   ar
   190   170   172   ar
   191    38    39    2
   192   100   107   am
   193   100   101    2
   194   175   174   ar
   195   172   174   ar
   196   107   108    1
   197   113   112    1
   198   183   184    1
   199   112   111    1
   200    19    13    1
   201    19    18    1
   202   108   111    1
   203   108   109    1
   204   110   109    2
   205    13    14    1
   206    18    17    1
   207    14    17    1
   208    14    15    1
   209    15    16    2
   210    34    33    1
   211    35    33    1
   212    33    30    1
   213    32    31    2
   214    30    31    1
   215    30    29    1
   216    29    22   am
   217    20    21    1
   218    22    21    1
   219    22    23    2
   220    21    24    1
   221    24    25    1
   222    27    26   ar
   223    25    26    1
   224    26    28   ar
