@<TRIPOS>MOLECULE
tmp/6m81C01.pdb
 213 207 0 0 0
SMALL
GASTEIGER

@<TRIPOS>ATOM
      1  N         75.8750    8.6680  126.6700 N.3     2  PHE2       -0.1241
      2  CA        76.5530    9.2900  125.5310 C.3     2  PHE2        0.1605
      3  C         75.6040   10.2140  124.7550 C.2     2  PHE2        0.2264
      4  O         75.3500   10.0340  123.5630 O.2     2  PHE2       -0.2867
      5  CB        77.1480    8.2270  124.5970 C.3     2  PHE2        0.0534
      6  CG        78.2290    7.3580  125.2240 C.ar    2  PHE2       -0.0203
      7  CD1       79.5720    7.7230  125.1440 C.ar    2  PHE2       -0.0042
      8  CD2       77.9010    6.1620  125.8500 C.ar    2  PHE2       -0.0042
      9  CE1       80.5670    6.9240  125.7060 C.ar    2  PHE2       -0.0003
     10  CE2       78.8900    5.3510  126.4070 C.ar    2  PHE2       -0.0003
     11  CZ        80.2240    5.7330  126.3290 C.ar    2  PHE2       -0.0000
     12  N         83.0990   14.3340  122.7130 N.3    10  TYR10      -0.1241
     13  CA        83.8120   13.0600  122.6490 C.3    10  TYR10       0.1605
     14  C         85.0340   13.1410  121.7380 C.2    10  TYR10       0.2264
     15  O         86.1260   12.6950  122.1030 O.2    10  TYR10      -0.2867
     16  CB        82.8260   11.9790  122.1780 C.3    10  TYR10       0.0534
     17  CG        83.3530   10.5550  122.2430 C.ar   10  TYR10      -0.0201
     18  CD1       83.2340    9.7840  123.4030 C.ar   10  TYR10      -0.0009
     19  CD2       83.9640    9.9850  121.1370 C.ar   10  TYR10      -0.0009
     20  CE1       83.7200    8.4740  123.4440 C.ar   10  TYR10       0.0417
     21  CE2       84.4390    8.6890  121.1610 C.ar   10  TYR10       0.0417
     22  CZ        84.3250    7.9430  122.3100 C.ar   10  TYR10       0.1957
     23  OH        84.8220    6.6690  122.3030 O.3    10  TYR10      -0.2866
     24  N         89.1350   12.9430  122.8570 N.3    14  HIS14      -0.1241
     25  CA        89.9770   11.8100  122.4870 C.3    14  HIS14       0.1621
     26  C         91.1080   12.2150  121.5540 C.2    14  HIS14       0.2264
     27  O         92.1670   11.5770  121.5670 O.2    14  HIS14      -0.2867
     28  CB        89.1060   10.6960  121.9190 C.3    14  HIS14       0.0745
     29  CG        88.3680    9.9660  122.9910 C.ar   14  HIS14       0.0817
     30  ND1       87.0380   10.1960  123.2680 N.ar   14  HIS14      -0.2268
     31  CD2       88.8070    9.0930  123.9300 C.ar   14  HIS14       0.1154
     32  CE1       86.6750    9.4480  124.2970 C.ar   14  HIS14       0.1986
     33  NE2       87.7310    8.7720  124.7180 N.ar   14  HIS14      -0.2212
     34  N         93.6840   13.1420  124.1660 N.3    17  LYS17      -0.1245
     35  CA        94.3750   11.9690  124.6890 C.3    17  LYS17       0.1561
     36  C         95.3290   11.3580  123.6670 C.2    17  LYS17       0.2260
     37  O         96.0910   10.4470  124.0200 O.2    17  LYS17      -0.2867
     38  CB        93.3540   10.9220  125.1590 C.3    17  LYS17       0.0271
     39  CG        92.5180   11.4080  126.3150 C.3    17  LYS17       0.0035
     40  CD        93.3490   11.5330  127.5920 C.3    17  LYS17       0.0206
     41  CE        92.3670   11.7080  128.7450 C.3    17  LYS17       0.1093
     42  NZ        92.3760   13.1030  129.2660 N.3    17  LYS17      -0.1314
     43  N         87.3730   -0.2000  120.9660 N.3   106  PHE106     -0.1227
     44  CA        87.5400    0.7250  122.1060 C.3   106  PHE106      0.1736
     45  C         86.7270    0.2880  123.3250 C.2   106  PHE106      0.2596
     46  O         86.1990    1.1190  124.0720 O.2   106  PHE106     -0.2718
     47  CB        87.1950    2.1710  121.7060 C.3   106  PHE106      0.0547
     48  CG        87.8680    3.2190  122.5710 C.ar  106  PHE106     -0.0202
     49  CD1       88.9990    2.8990  123.3290 C.ar  106  PHE106     -0.0042
     50  CD2       87.3540    4.5170  122.6350 C.ar  106  PHE106     -0.0042
     51  CE1       89.6240    3.8800  124.1280 C.ar  106  PHE106     -0.0003
     52  CE2       87.9620    5.4820  123.4210 C.ar  106  PHE106     -0.0003
     53  CZ        89.1050    5.1570  124.1680 C.ar  106  PHE106     -0.0000
     54  N         86.6300   -1.0320  123.5410 N.am  107  SER107     -0.1938
     55  CA        86.0110   -1.6040  124.7370 C.3   107  SER107      0.2055
     56  C         84.5230   -1.3020  124.8440 C.2   107  SER107      0.2643
     57  O         83.9410   -1.3810  125.9300 O.2   107  SER107     -0.2714
     58  CB        86.7410   -1.1460  126.0180 C.3   107  SER107      0.2130
     59  OG        88.1280   -1.2980  125.8290 O.3   107  SER107     -0.2179
     60  N         83.8570   -1.0050  123.7220 N.am  108  SER108     -0.1949
     61  CA        82.4090   -0.8520  123.7500 C.3   108  SER108      0.1924
     62  C         81.7220   -2.1040  124.2680 C.2   108  SER108      0.2314
     63  O         80.6410   -2.0150  124.8710 O.2   108  SER108     -0.2863
     64  CB        81.9040   -0.5370  122.3320 C.3   108  SER108      0.2116
     65  OG        82.5190    0.6440  121.8420 O.3   108  SER108     -0.2180
     66  N         80.2670   -2.4180  127.8590 N.3   111  HIS111     -0.1241
     67  CA        78.9590   -1.9220  128.2860 C.3   111  HIS111      0.1621
     68  C         77.9160   -3.0310  128.3800 C.2   111  HIS111      0.2264
     69  O         76.7950   -2.7630  128.8110 O.2   111  HIS111     -0.2867
     70  CB        78.4570   -0.8280  127.3290 C.3   111  HIS111      0.0745
     71  CG        79.2890    0.4190  127.3540 C.ar  111  HIS111      0.0817
     72  ND1       79.2430    1.3280  128.3930 N.ar  111  HIS111     -0.2268
     73  CD2       80.2090    0.8950  126.4830 C.ar  111  HIS111      0.1154
     74  CE1       80.0920    2.3130  128.1570 C.ar  111  HIS111      0.1986
     75  NE2       80.6930    2.0740  127.0050 N.ar  111  HIS111     -0.2212
     76  N         87.4300   -4.7460  127.0570 N.3   140  TRP140     -0.1227
     77  CA        87.8350   -3.9730  128.2340 C.3   140  TRP140      0.1737
     78  C         88.9430   -4.7460  128.9490 C.2   140  TRP140      0.2595
     79  O         89.3160   -5.8480  128.5440 O.2   140  TRP140     -0.2718
     80  CB        86.6190   -3.7110  129.1380 C.3   140  TRP140      0.0564
     81  CG        86.8480   -2.8870  130.3860 C.ar  140  TRP140      0.0003
     82  CD1       86.5740   -3.2600  131.6780 C.ar  140  TRP140      0.0946
     83  CD2       87.3390   -1.5330  130.4510 C.ar  140  TRP140      0.0152
     84  NE1       86.8970   -2.2170  132.5500 N.ar  140  TRP140     -0.2442
     85  CE2       87.3690   -1.1570  131.8200 C.ar  140  TRP140      0.0810
     86  CE3       87.7810   -0.6190  129.4880 C.ar  140  TRP140      0.0012
     87  CZ2       87.8170    0.1210  132.2520 C.ar  140  TRP140      0.0191
     88  CZ3       88.2300    0.6600  129.9150 C.ar  140  TRP140      0.0001
     89  CH2       88.2430    1.0020  131.2940 C.ar  140  TRP140      0.0015
     90  N         89.5100   -4.1490  130.0060 N.am  141  TRP141     -0.1976
     91  CA        90.5440   -4.8300  130.7830 C.3   141  TRP141      0.1640
     92  C         90.0330   -6.1480  131.3520 C.2   141  TRP141      0.2290
     93  O         88.8540   -6.2910  131.6800 O.2   141  TRP141     -0.2864
     94  CB        91.0040   -3.9070  131.9300 C.3   141  TRP141      0.0576
     95  CG        91.5990   -2.6270  131.4660 C.ar  141  TRP141      0.0006
     96  CD1       91.0010   -1.4170  131.4460 C.ar  141  TRP141      0.0946
     97  CD2       92.9400   -2.4210  130.9750 C.ar  141  TRP141      0.0152
     98  NE1       91.8650   -0.4660  130.9580 N.ar  141  TRP141     -0.2442
     99  CE2       93.0600   -1.0560  130.6580 C.ar  141  TRP141      0.0810
    100  CE3       94.0490   -3.2540  130.8010 C.ar  141  TRP141      0.0012
    101  CZ2       94.2440   -0.4990  130.1530 C.ar  141  TRP141      0.0191
    102  CZ3       95.2230   -2.7080  130.2820 C.ar  141  TRP141      0.0001
    103  CH2       95.3070   -1.3400  129.9690 C.ar  141  TRP141      0.0015
    104  N         94.2700   -7.3170  135.2720 N.3   145  ASN145     -0.1225
    105  CA        95.0130   -6.1710  134.7920 C.3   145  ASN145      0.1785
    106  C         94.3400   -4.8550  135.1530 C.2   145  ASN145      0.2597
    107  O         94.8680   -3.7910  134.8170 O.2   145  ASN145     -0.2718
    108  CB        95.1900   -6.2490  133.2650 C.3   145  ASN145      0.1169
    109  CG        95.9020   -7.5130  132.8160 C.2   145  ASN145      0.2627
    110  OD1       95.4700   -8.1690  131.8680 O.2   145  ASN145     -0.2716
    111  ND2       97.0090   -7.8540  133.4860 N.am  145  ASN145     -0.0877
    112  N         93.2000   -4.8900  135.8260 N.am  146  PHE146     -0.1962
    113  CA        92.5310   -3.6400  136.1560 C.3   146  PHE146      0.1771
    114  C         93.2640   -2.9360  137.2950 C.2   146  PHE146      0.2620
    115  O         93.7380   -3.5810  138.2330 O.2   146  PHE146     -0.2715
    116  CB        91.0680   -3.8900  136.5260 C.3   146  PHE146      0.0574
    117  CG        90.3760   -2.6630  137.0300 C.ar  146  PHE146     -0.0200
    118  CD1       90.2360   -1.5560  136.2020 C.ar  146  PHE146     -0.0042
    119  CD2       89.9010   -2.6040  138.3370 C.ar  146  PHE146     -0.0042
    120  CE1       89.6370   -0.3900  136.6760 C.ar  146  PHE146     -0.0003
    121  CE2       89.2600   -1.4450  138.8230 C.ar  146  PHE146     -0.0003
    122  CZ        89.1500   -0.3360  137.9950 C.ar  146  PHE146     -0.0000
    123  N         93.3650   -1.6040  137.2040 N.am  147  THR147     -0.1951
    124  CA        94.1130   -0.8060  138.1870 C.3   147  THR147      0.1897
    125  C         93.1450    0.0810  138.9580 C.2   147  THR147      0.2313
    126  O         92.7830    1.1750  138.4760 O.2   147  THR147     -0.2863
    127  CB        95.1890    0.0400  137.4990 C.3   147  THR147      0.1794
    128  OG1       94.5760    0.8680  136.4930 O.3   147  THR147     -0.2208
    129  CG2       96.2520   -0.8500  136.8610 C.3   147  THR147      0.0378
    130  N         92.7120    4.5490  139.6150 N.3   150  TYR150     -0.1241
    131  CA        93.3940    5.2390  138.5310 C.3   150  TYR150      0.1605
    132  C         92.7420    6.5980  138.2880 C.2   150  TYR150      0.2264
    133  O         91.5120    6.6990  138.2050 O.2   150  TYR150     -0.2867
    134  CB        93.3170    4.3850  137.2600 C.3   150  TYR150      0.0534
    135  CG        94.2250    4.8220  136.1310 C.ar  150  TYR150     -0.0201
    136  CD1       95.5030    4.2940  136.0050 C.ar  150  TYR150     -0.0009
    137  CD2       93.8010    5.7310  135.1910 C.ar  150  TYR150     -0.0009
    138  CE1       96.3380    4.6580  134.9790 C.ar  150  TYR150      0.0417
    139  CE2       94.6320    6.1180  134.1440 C.ar  150  TYR150      0.0417
    140  CZ        95.9040    5.5740  134.0500 C.ar  150  TYR150      0.1957
    141  OH        96.7430    5.9470  133.0320 O.3   150  TYR150     -0.2866
    142  N         92.9320    9.8320  135.5630 N.3   152  ALA152     -0.1245
    143  CA        93.4390   10.3700  134.3120 C.3   152  ALA152      0.1562
    144  C         92.9950   11.8210  134.2150 C.2   152  ALA152      0.2260
    145  O         91.8810   12.1550  134.6200 O.2   152  ALA152     -0.2867
    146  CB        92.9200    9.5560  133.0990 C.3   152  ALA152      0.0290
    147  N         89.3110   17.0980  131.0260 N.3   165  ARG165     -0.1245
    148  CA        88.5980   15.8740  131.3650 C.3   165  ARG165      0.1563
    149  C         89.3890   15.1350  132.4240 C.2   165  ARG165      0.2260
    150  O         90.6130   15.0210  132.3130 O.2   165  ARG165     -0.2867
    151  CB        88.4420   14.9760  130.1500 C.3   165  ARG165      0.0307
    152  CG        87.9210   13.5900  130.4650 C.3   165  ARG165      0.0489
    153  CD        88.1410   12.6970  129.2940 C.3   165  ARG165      0.2205
    154  NE        87.5590   11.3740  129.4600 N.pl3 165  ARG165     -0.0865
    155  CZ        88.2070   10.3180  129.9550 C.cat 165  ARG165      0.5346
    156  NH1       89.4600   10.4180  130.3540 N.pl3 165  ARG165      0.1354
    157  NH2       87.5890    9.1550  130.0490 N.pl3 165  ARG165      0.1354
    158  N         89.1120   11.5220  134.8490 N.3   167  SER167     -0.1217
    159  CA        88.3770   10.3140  135.1790 C.3   167  SER167      0.1889
    160  C         88.9460    9.6800  136.4410 C.2   167  SER167      0.2288
    161  O         90.1220    9.8740  136.7740 O.2   167  SER167     -0.2866
    162  CB        88.4100    9.2940  134.0320 C.3   167  SER167      0.2089
    163  OG        89.6910    8.6860  133.9290 O.3   167  SER167     -0.2183
    164  N         88.6300    5.7280  138.4060 N.3   169  SER169     -0.1217
    165  CA        88.1510    4.3690  138.2170 C.3   169  SER169      0.1889
    166  C         88.3170    3.5650  139.4980 C.2   169  SER169      0.2288
    167  O         89.3460    3.6570  140.1710 O.2   169  SER169     -0.2866
    168  CB        88.8940    3.6730  137.0620 C.3   169  SER169      0.2089
    169  OG        88.7080    4.3910  135.8510 O.3   169  SER169     -0.2183
    170  N         84.2120   -2.1530  136.3980 N.3   176  THR176     -0.1218
    171  CA        84.8640   -0.8880  136.7100 C.3   176  THR176      0.1862
    172  C         83.7830    0.1780  136.8120 C.2   176  THR176      0.2287
    173  O         82.9610    0.3220  135.8990 O.2   176  THR176     -0.2866
    174  CB        85.8600   -0.5040  135.6090 C.3   176  THR176      0.1770
    175  OG1       86.8560   -1.5260  135.4290 O.3   176  THR176     -0.2211
    176  CG2       86.5170    0.8750  135.9180 C.3   176  THR176      0.0375
    177  N         83.5490    3.9950  136.5130 N.3   178  ILE178     -0.1245
    178  CA        84.3730    5.1060  136.0740 C.3   178  ILE178      0.1561
    179  C         83.5440    6.3820  136.0800 C.2   178  ILE178      0.2260
    180  O         82.5310    6.5020  135.3680 O.2   178  ILE178     -0.2867
    181  CB        85.0400    4.8650  134.7110 C.3   178  ILE178      0.0252
    182  CG1       85.8990    6.0870  134.3650 C.3   178  ILE178      0.0019
    183  CG2       84.0180    4.5550  133.6060 C.3   178  ILE178      0.0019
    184  CD1       86.8240    5.8710  133.1830 C.3   178  ILE178      0.0001
    185  N         79.9240    5.4930  134.4620 N.3   198  HIS198     -0.1241
    186  CA        79.7100    4.2740  133.6910 C.3   198  HIS198      0.1621
    187  C         80.1440    3.0590  134.4960 C.2   198  HIS198      0.2264
    188  O         81.0640    3.1260  135.3100 O.2   198  HIS198     -0.2867
    189  CB        80.4990    4.2780  132.3650 C.3   198  HIS198      0.0745
    190  CG        80.1820    5.4280  131.4540 C.ar  198  HIS198      0.0817
    191  ND1       79.0250    5.4930  130.7140 N.ar  198  HIS198     -0.2268
    192  CD2       80.8920    6.5350  131.1400 C.ar  198  HIS198      0.1154
    193  CE1       79.0250    6.6020  129.9950 C.ar  198  HIS198      0.1986
    194  NE2       80.1510    7.2500  130.2310 N.ar  198  HIS198     -0.2212
    195  N         81.6320   -0.5510  133.5530 N.3   200  ILE200     -0.1245
    196  CA        82.2520   -1.2700  132.4460 C.3   200  ILE200      0.1561
    197  C         82.6490   -2.6430  132.9650 C.2   200  ILE200      0.2260
    198  O         83.4700   -2.7440  133.8770 O.2   200  ILE200     -0.2867
    199  CB        83.4710   -0.5330  131.8720 C.3   200  ILE200      0.0252
    200  CG1       83.1470    0.9540  131.6460 C.3   200  ILE200      0.0019
    201  CG2       83.8710   -1.1550  130.5460 C.3   200  ILE200      0.0019
    202  CD1       81.9920    1.1660  130.6930 C.3   200  ILE200      0.0001
    203  N         94.7840   -2.9740  125.8640 N.3   229  ARG229     -0.1245
    204  CA        93.9000   -4.0370  126.3220 C.3   229  ARG229      0.1563
    205  C         93.8690   -5.2250  125.3650 C.2   229  ARG229      0.2260
    206  O         93.1290   -6.1840  125.6080 O.2   229  ARG229     -0.2867
    207  CB        92.4710   -3.4760  126.5010 C.3   229  ARG229      0.0307
    208  CG        92.3880   -2.2380  127.3940 C.3   229  ARG229      0.0489
    209  CD        91.1990   -1.3400  127.0550 C.3   229  ARG229      0.2205
    210  NE        91.4730    0.0280  127.4960 N.pl3 229  ARG229     -0.0865
    211  CZ        90.6880    1.0710  127.2530 C.cat 229  ARG229      0.5346
    212  NH1       89.5510    0.9200  126.5740 N.pl3 229  ARG229      0.1354
    213  NH2       91.0460    2.2760  127.6940 N.pl3 229  ARG229      0.1354
@<TRIPOS>BOND
     1    43    44    1
     2    19    21   ar
     3    19    17   ar
     4    21    22   ar
     5    26    27    2
     6    26    25    1
     7    47    44    1
     8    47    48    1
     9    14    15    2
    10    14    13    1
    11    65    64    1
    12    28    25    1
    13    28    29    1
    14    44    45    1
    15    16    17    1
    16    16    13    1
    17    17    18   ar
    18    23    22    1
    19    22    20   ar
    20    64    61    1
    21    25    24    1
    22    48    50   ar
    23    48    49   ar
    24    50    52   ar
    25    13    12    1
    26    29    30   ar
    27    29    31   ar
    28    30    32   ar
    29    45    54   am
    30    45    46    2
    31    49    51   ar
    32    18    20   ar
    33    52    53   ar
    34    54    55    1
    35     4     3    2
    36    36    37    2
    37    36    35    1
    38    60    61    1
    39    60    56   am
    40    61    62    1
    41    31    33   ar
    42    51    53   ar
    43    34    35    1
    44    62    63    2
    45    32    33   ar
    46     5     6    1
    47     5     2    1
    48    35    38    1
    49    55    56    1
    50    55    58    1
    51     3     2    1
    52    56    57    2
    53     7     6   ar
    54     7     9   ar
    55    38    39    1
    56     6     8   ar
    57   205   206    2
    58   205   204    1
    59     2     1    1
    60     9    11   ar
    61    59    58    1
    62     8    10   ar
    63   203   204    1
    64    39    40    1
    65   204   207    1
    66    11    10   ar
    67    73    75   ar
    68    73    71   ar
    69   207   208    1
    70   212   211    1
    71    75    74   ar
    72   209   208    1
    73   209   210    1
    74    76    77    1
    75   211   210    2
    76   211   213    1
    77    70    71    1
    78    70    67    1
    79    71    72   ar
    80    40    41    1
    81    66    67    1
    82    74    72   ar
    83    77    78    1
    84    77    80    1
    85    67    68    1
    86    68    69    2
    87    79    78    2
    88    41    42    1
    89    78    90   am
    90    80    81    1
    91   153   154    1
    92   153   152    1
    93   154   155    2
    94    86    88   ar
    95    86    83   ar
    96    88    89   ar
    97   155   157    1
    98   155   156    1
    99   103   101   ar
   100   103   102   ar
   101   193   194   ar
   102   193   191   ar
   103    90    91    1
   104   151   152    1
   105   151   148    1
   106   101    99   ar
   107   194   192   ar
   108   102   100   ar
   109    81    83   ar
   110    81    82   ar
   111    83    85   ar
   112   201   199    1
   113    99    98   ar
   114    99    97   ar
   115   202   200    1
   116   191   190   ar
   117    91    92    1
   118    91    94    1
   119   100    97   ar
   120    98    96   ar
   121    97    95   ar
   122   147   148    1
   123   192   190   ar
   124    89    87   ar
   125    92    93    2
   126   148   149    1
   127    96    95   ar
   128   190   189    1
   129    95    94    1
   130   200   199    1
   131    82    84   ar
   132    85    87   ar
   133    85    84   ar
   134   110   109    2
   135   199   196    1
   136   150   149    2
   137   189   186    1
   138   196   197    1
   139   196   195    1
   140   109   108    1
   141   109   111   am
   142   197   198    2
   143   141   140    1
   144   146   143    1
   145   184   182    1
   146   108   105    1
   147   183   181    1
   148   186   185    1
   149   186   187    1
   150   163   162    1
   151   162   159    1
   152   140   139   ar
   153   140   138   ar
   154   139   137   ar
   155   144   143    1
   156   144   145    2
   157   143   142    1
   158   182   181    1
   159   187   188    2
   160   181   178    1
   161   105   106    1
   162   105   104    1
   163   107   106    2
   164   158   159    1
   165   138   136   ar
   166   106   112   am
   167   159   160    1
   168   137   135   ar
   169   180   179    2
   170   175   174    1
   171   174   176    1
   172   174   171    1
   173   112   113    1
   174   169   168    1
   175   173   172    2
   176   136   135   ar
   177   178   179    1
   178   178   177    1
   179   135   134    1
   180   113   116    1
   181   113   114    1
   182   118   120   ar
   183   118   117   ar
   184   170   171    1
   185   160   161    2
   186   128   127    1
   187   116   117    1
   188   120   122   ar
   189   171   172    1
   190   129   127    1
   191   117   119   ar
   192   168   165    1
   193   123   114   am
   194   123   124    1
   195   134   131    1
   196   114   115    2
   197   127   124    1
   198   122   121   ar
   199   124   125    1
   200   133   132    2
   201   165   164    1
   202   165   166    1
   203   132   131    1
   204   119   121   ar
   205   126   125    2
   206   131   130    1
   207   166   167    2
