@<TRIPOS>MOLECULE
tmp/6m89A00.pdb
 142 132 0 0 0
SMALL
GASTEIGER

@<TRIPOS>ATOM
      1  N         11.9190   29.2340   27.4040 N.3     1  ILE1       -0.1245
      2  CA        11.0930   29.6920   26.2430 C.3     1  ILE1        0.1561
      3  C         11.0230   31.2220   26.2460 C.2     1  ILE1        0.2260
      4  O         10.7120   31.8230   27.2720 O.2     1  ILE1       -0.2867
      5  CB         9.6640   29.0820   26.2800 C.3     1  ILE1        0.0252
      6  CG1        9.7150   27.5430   26.2950 C.3     1  ILE1        0.0019
      7  CG2        8.8220   29.5750   25.1050 C.3     1  ILE1        0.0019
      8  CD1       10.3550   26.9060   25.0750 C.3     1  ILE1        0.0001
      9  N          9.5210   34.7420   24.1570 N.3     3  GLN3       -0.1245
     10  CA         8.3910   35.1270   23.2970 C.3     3  GLN3        0.1566
     11  C          8.7620   36.2180   22.2740 C.2     3  GLN3        0.2260
     12  O          8.5150   37.4020   22.4960 O.2     3  GLN3       -0.2867
     13  CB         7.1900   35.5080   24.1690 C.3     3  GLN3        0.0367
     14  CG         6.6810   34.3120   24.9780 C.3     3  GLN3        0.0905
     15  CD         5.4570   34.6040   25.8280 C.2     3  GLN3        0.2608
     16  OE1        4.9740   35.7370   25.8920 O.2     3  GLN3       -0.2717
     17  NE2        4.9480   33.5690   26.4920 N.am    3  GLN3       -0.0878
     18  N          7.6450   31.9230   19.4970 N.3     9  VAL9       -0.1245
     19  CA         8.5300   31.7350   20.6090 C.3     9  VAL9        0.1561
     20  C          9.8730   31.2420   20.0780 C.2     9  VAL9        0.2260
     21  O          9.9630   30.7200   18.9630 O.2     9  VAL9       -0.2867
     22  CB         7.9590   30.7520   21.6620 C.3     9  VAL9        0.0252
     23  CG1        6.5610   31.1790   22.0760 C.3     9  VAL9        0.0019
     24  CG2        7.9510   29.3100   21.1540 C.3     9  VAL9        0.0019
     25  N         12.7970   28.6870   21.3420 N.3    11  LYS11      -0.1245
     26  CA        13.2330   27.6500   22.2660 C.3    11  LYS11       0.1561
     27  C         14.7330   27.4250   22.0750 C.2    11  LYS11       0.2260
     28  O         15.1910   26.9810   21.0100 O.2    11  LYS11      -0.2867
     29  CB        12.4710   26.3440   22.0440 C.3    11  LYS11       0.0271
     30  CG        12.8600   25.2530   23.0340 C.3    11  LYS11       0.0035
     31  CD        12.1080   23.9680   22.7720 C.3    11  LYS11       0.0206
     32  CE        12.1760   23.0180   23.9600 C.3    11  LYS11       0.1093
     33  NZ        13.4480   22.2880   24.1040 N.3    11  LYS11      -0.1314
     34  N         12.8970   18.5730   14.0250 N.3    26  TYR26      -0.1241
     35  CA        12.1020   19.6170   13.3790 C.3    26  TYR26       0.1605
     36  C         12.4950   19.7550   11.8820 C.2    26  TYR26       0.2264
     37  O         11.6160   19.8830   11.0110 O.2    26  TYR26      -0.2867
     38  CB        12.2080   20.9590   14.1360 C.3    26  TYR26       0.0534
     39  CG        11.2540   21.1280   15.3300 C.ar   26  TYR26      -0.0201
     40  CD1        9.8850   21.3480   15.1320 C.ar   26  TYR26      -0.0009
     41  CD2       11.7270   21.1000   16.6520 C.ar   26  TYR26      -0.0009
     42  CE1        9.0230   21.5330   16.2100 C.ar   26  TYR26       0.0417
     43  CE2       10.8690   21.2740   17.7390 C.ar   26  TYR26       0.0417
     44  CZ         9.5110   21.4950   17.5130 C.ar   26  TYR26       0.1957
     45  OH         8.6480   21.6710   18.5790 O.3    26  TYR26      -0.2866
     46  N          3.9570   22.5800   17.0130 N.3    47  PRO47      -0.2116
     47  CA         4.0150   23.9910   16.6690 C.3    47  PRO47       0.1372
     48  C          4.5760   24.1220   15.2590 C.2    47  PRO47       0.2244
     49  O          5.4470   23.3080   14.8610 O.2    47  PRO47      -0.2868
     50  CB         4.9930   24.5870   17.6970 C.3    47  PRO47       0.0268
     51  CG         5.1530   23.5350   18.7710 C.3    47  PRO47       0.0207
     52  CD         4.8880   22.2290   18.1000 C.3    47  PRO47       0.0892
     53  N          9.5300   28.8290   16.7800 N.3    66  LEU66      -0.1231
     54  CA         8.3180   28.0210   16.8040 C.3    66  LEU66       0.1693
     55  C          7.0790   28.8880   16.9840 C.2    66  LEU66       0.2592
     56  O          7.1150   29.9220   17.6410 O.2    66  LEU66      -0.2718
     57  CB         8.3890   27.0220   17.9680 C.3    66  LEU66       0.0284
     58  CG         9.5170   25.9920   17.9000 C.3    66  LEU66       0.0019
     59  CD1        9.7190   25.2830   19.2400 C.3    66  LEU66       0.0001
     60  CD2        9.2380   24.9910   16.7880 C.3    66  LEU66       0.0001
     61  N          5.9700   28.4300   16.4220 N.am   67  GLU67      -0.1966
     62  CA         4.6550   28.9950   16.7080 C.3    67  GLU67       0.1733
     63  C          4.4080   29.1170   18.2080 C.2    67  GLU67       0.2616
     64  O          4.6680   28.1750   18.9520 O.2    67  GLU67      -0.2715
     65  CB         3.5880   28.0820   16.1250 C.3    67  GLU67       0.0429
     66  CG         2.1530   28.4790   16.4440 C.3    67  GLU67       0.1163
     67  CD         1.1640   27.4860   15.8950 C.2    67  GLU67       0.3649
     68  OE1        1.5900   26.4820   15.2820 O.co2  67  GLU67      -0.2457
     69  OE2       -0.0450   27.7000   16.0950 O.co2  67  GLU67      -0.2457
     70  N          3.8960   30.2680   18.6370 N.am   68  ASP68      -0.1957
     71  CA         3.4100   30.4230   19.9940 C.3    68  ASP68       0.1840
     72  C          2.0050   29.8380   20.0620 C.2    68  ASP68       0.2622
     73  O          1.0290   30.4830   19.6630 O.2    68  ASP68      -0.2715
     74  CB         3.3780   31.8790   20.4460 C.3    68  ASP68       0.1450
     75  CG         2.8970   32.0270   21.8770 C.2    68  ASP68       0.3671
     76  OD1        2.5780   31.0070   22.5430 O.co2  68  ASP68      -0.2456
     77  OD2        2.8200   33.1730   22.3430 O.co2  68  ASP68      -0.2456
     78  N          1.9040   28.6370   20.6120 N.am   69  VAL69      -0.1963
     79  CA         0.6180   27.9100   20.6280 C.3    69  VAL69       0.1727
     80  C         -0.4510   28.5540   21.5320 C.2    69  VAL69       0.2616
     81  O         -1.6310   28.1890   21.4440 O.2    69  VAL69      -0.2715
     82  CB         0.7850   26.4140   20.9890 C.3    69  VAL69       0.0290
     83  CG1        1.7560   25.7270   20.0350 C.3    69  VAL69       0.0023
     84  CG2        1.2110   26.2260   22.4340 C.3    69  VAL69       0.0023
     85  N         -0.0460   29.5020   22.3800 N.am   70  THR70      -0.1951
     86  CA        -0.9590   30.2560   23.2260 C.3    70  THR70       0.1897
     87  C         -1.4190   31.5940   22.6390 C.2    70  THR70       0.2313
     88  O         -2.1900   32.2890   23.2910 O.2    70  THR70      -0.2863
     89  CB        -0.3410   30.5750   24.6030 C.3    70  THR70       0.1794
     90  OG1        0.6960   31.5690   24.4630 O.3    70  THR70      -0.2208
     91  CG2        0.1720   29.3100   25.2880 C.3    70  THR70       0.0378
     92  N         -2.5660   26.6910   30.7500 N.3    78  ILE78      -0.1245
     93  CA        -1.5860   25.8600   30.0730 C.3    78  ILE78       0.1561
     94  C         -1.1440   24.7130   30.9760 C.2    78  ILE78       0.2260
     95  O         -0.8010   24.9430   32.1460 O.2    78  ILE78      -0.2867
     96  CB        -0.3340   26.6680   29.6650 C.3    78  ILE78       0.0252
     97  CG1       -0.7020   27.9350   28.8890 C.3    78  ILE78       0.0019
     98  CG2        0.6020   25.8020   28.8120 C.3    78  ILE78       0.0019
     99  CD1        0.3380   29.0230   29.0020 C.3    78  ILE78       0.0001
    100  N          1.4890   21.1910   30.7250 N.3    80  ASP80      -0.1239
    101  CA         2.4950   20.4390   30.0140 C.3    80  ASP80       0.1674
    102  C          2.5080   19.0340   30.6010 C.2    80  ASP80       0.2266
    103  O          2.7350   18.8760   31.7980 O.2    80  ASP80      -0.2867
    104  CB         3.8450   21.1280   30.2160 C.3    80  ASP80       0.1410
    105  CG         4.9230   20.5880   29.3340 C.2    80  ASP80       0.3668
    106  OD1        4.6860   19.6460   28.5730 O.co2  80  ASP80      -0.2456
    107  OD2        6.0410   21.1180   29.4030 O.co2  80  ASP80      -0.2456
    108  N         -0.4470   26.1920   34.5830 N.3   118  ARG118     -0.1245
    109  CA        -0.7160   27.5720   34.8860 C.3   118  ARG118      0.1563
    110  C         -2.2100   27.7210   34.6290 C.2   118  ARG118      0.2260
    111  O         -2.6660   27.4980   33.4980 O.2   118  ARG118     -0.2867
    112  CB         0.1390   28.4610   33.9800 C.3   118  ARG118      0.0307
    113  CG         0.0160   29.9450   34.2550 C.3   118  ARG118      0.0489
    114  CD         1.3470   30.6810   34.1200 C.3   118  ARG118      0.2205
    115  NE         1.1320   32.0820   33.7710 N.pl3 118  ARG118     -0.0865
    116  CZ         0.9070   32.5450   32.5370 C.cat 118  ARG118      0.5346
    117  NH1        0.8690   31.7250   31.4780 N.pl3 118  ARG118      0.1354
    118  NH2        0.7150   33.8490   32.3530 N.pl3 118  ARG118      0.1354
    119  N          1.2700   19.8290   25.1790 N.3   190  LEU190     -0.1245
    120  CA         0.9510   21.1220   25.7370 C.3   190  LEU190      0.1561
    121  C         -0.5350   21.3440   25.5070 C.2   190  LEU190      0.2260
    122  O         -0.9800   21.3600   24.3620 O.2   190  LEU190     -0.2867
    123  CB         1.7770   22.1990   25.0260 C.3   190  LEU190      0.0270
    124  CG         2.0050   23.5330   25.7390 C.3   190  LEU190      0.0019
    125  CD1        2.5310   23.3340   27.1490 C.3   190  LEU190      0.0001
    126  CD2        2.9810   24.3920   24.9320 C.3   190  LEU190      0.0001
    127  N          5.2670   18.6050   21.8210 N.3   205  ILE205     -0.1231
    128  CA         6.5170   19.3490   21.9640 C.3   205  ILE205      0.1692
    129  C          7.6130   18.4550   22.5660 C.2   205  ILE205      0.2592
    130  O          7.3290   17.3260   23.0050 O.2   205  ILE205     -0.2718
    131  CB         6.3420   20.6200   22.8430 C.3   205  ILE205      0.0266
    132  CG1        5.9340   20.2710   24.2950 C.3   205  ILE205      0.0019
    133  CG2        5.3400   21.5750   22.2010 C.3   205  ILE205      0.0020
    134  CD1        6.0010   21.4530   25.2430 C.3   205  ILE205      0.0001
    135  N          8.8490   18.9740   22.5800 N.am  206  ASP206     -0.1974
    136  CA        10.0180   18.3870   23.2760 C.3   206  ASP206      0.1709
    137  C         10.5370   17.1300   22.5710 C.2   206  ASP206      0.2293
    138  O         10.1640   16.0000   22.9140 O.2   206  ASP206     -0.2864
    139  CB         9.7350   18.0870   24.7510 C.3   206  ASP206      0.1436
    140  CG         9.4510   19.3190   25.5770 C.2   206  ASP206      0.3671
    141  OD1        9.9450   20.4080   25.2600 O.co2 206  ASP206     -0.2456
    142  OD2        8.7320   19.1890   26.5920 O.co2 206  ASP206     -0.2456
@<TRIPOS>BOND
     1    37    36    2
     2    36    35    1
     3    35    34    1
     4    35    38    1
     5    38    39    1
     6    49    48    2
     7    40    39   ar
     8    40    42   ar
     9    48    47    1
    10    68    67   ar
    11    39    41   ar
    12    67    69   ar
    13    67    66    1
    14    65    66    1
    15    65    62    1
    16    42    44   ar
    17    61    62    1
    18    61    55   am
    19    41    43   ar
    20    47    46    1
    21    47    50    1
    22    62    63    1
    23    53    54    1
    24    60    58    1
    25    54    55    1
    26    54    57    1
    27    55    56    2
    28    46    52    1
    29    44    43   ar
    30    44    45    1
    31    50    51    1
    32    58    57    1
    33    58    59    1
    34    52    51    1
    35    63    70   am
    36    63    64    2
    37    70    71    1
    38    21    20    2
    39    18    19    1
    40    73    72    2
    41    71    72    1
    42    71    74    1
    43    83    82    1
    44    72    78   am
    45    20    19    1
    46    74    75    1
    47    19    22    1
    48    78    79    1
    49    79    82    1
    50    79    80    1
    51    82    84    1
    52    28    27    2
    53    24    22    1
    54    25    26    1
    55    81    80    2
    56    80    85   am
    57    22    23    1
    58   127   128    1
    59    75    77   ar
    60    75    76   ar
    61   128   129    1
    62   128   131    1
    63    29    26    1
    64    29    30    1
    65    27    26    1
    66   133   131    1
    67    11    12    2
    68    11    10    1
    69    85    86    1
    70   129   135   am
    71   129   130    2
    72   137   138    2
    73   137   136    1
    74   135   136    1
    75    87    86    1
    76    87    88    2
    77    31    30    1
    78    31    32    1
    79   131   132    1
    80    86    89    1
    81   136   139    1
    82    10     9    1
    83    10    13    1
    84    32    33    1
    85    13    14    1
    86   132   134    1
    87   122   121    2
    88    90    89    1
    89    89    91    1
    90   139   140    1
    91   126   124    1
    92    14    15    1
    93   123   120    1
    94   123   124    1
    95     8     6    1
    96     7     5    1
    97   119   120    1
    98   141   140   ar
    99   121   120    1
   100   140   142   ar
   101   124   125    1
   102    15    16    2
   103    15    17   am
   104     2     3    1
   105     2     5    1
   106     2     1    1
   107     3     4    2
   108     5     6    1
   109   106   105   ar
   110    98    96    1
   111    97    99    1
   112    97    96    1
   113   105   107   ar
   114   105   104    1
   115    96    93    1
   116   101   104    1
   117   101   102    1
   118   101   100    1
   119    93    92    1
   120    93    94    1
   121   102   103    2
   122    94    95    2
   123   117   116    1
   124   118   116    1
   125   116   115    2
   126   111   110    2
   127   115   114    1
   128   112   113    1
   129   112   109    1
   130   114   113    1
   131   108   109    1
   132   110   109    1
