@<TRIPOS>MOLECULE
tmp/6m8cA00.pdb
 158 147 0 0 0
SMALL
GASTEIGER

@<TRIPOS>ATOM
      1  N         11.9510   29.0360   27.4600 N.3     1  ILE1       -0.1245
      2  CA        11.0730   29.5440   26.3630 C.3     1  ILE1        0.1561
      3  C         10.9540   31.0630   26.4830 C.2     1  ILE1        0.2260
      4  O         10.6420   31.5750   27.5580 O.2     1  ILE1       -0.2867
      5  CB         9.6650   28.8890   26.4020 C.3     1  ILE1        0.0252
      6  CG1        9.7570   27.3630   26.2170 C.3     1  ILE1        0.0019
      7  CG2        8.7430   29.4810   25.3380 C.3     1  ILE1        0.0019
      8  CD1       10.1310   26.9020   24.8190 C.3     1  ILE1        0.0001
      9  N          9.0000   34.2360   25.0360 N.3     3  GLN3       -0.1245
     10  CA         7.8130   34.6510   24.3780 C.3     3  GLN3        0.1566
     11  C          8.0180   35.9620   23.7560 C.2     3  GLN3        0.2260
     12  O          8.4450   36.9120   24.3810 O.2     3  GLN3       -0.2867
     13  CB         6.7280   34.8080   25.3860 C.3     3  GLN3        0.0367
     14  CG         5.5960   33.8540   25.2330 C.3     3  GLN3        0.0905
     15  CD         4.5930   34.0620   26.3210 C.2     3  GLN3        0.2608
     16  OE1        4.4390   35.1640   26.8320 O.2     3  GLN3       -0.2717
     17  NE2        3.9500   32.9960   26.7250 N.am    3  GLN3       -0.0878
     18  N          7.7310   31.9790   19.7290 N.3     9  VAL9       -0.1245
     19  CA         8.6260   31.7860   20.8390 C.3     9  VAL9        0.1561
     20  C          9.9730   31.3280   20.3000 C.2     9  VAL9        0.2260
     21  O         10.0590   30.7780   19.1980 O.2     9  VAL9       -0.2867
     22  CB         8.0840   30.7650   21.8640 C.3     9  VAL9        0.0252
     23  CG1        6.7120   31.1880   22.3640 C.3     9  VAL9        0.0019
     24  CG2        8.0300   29.3490   21.2830 C.3     9  VAL9        0.0019
     25  N         12.9490   28.8410   21.4950 N.3    11  LYS11      -0.1245
     26  CA        13.3730   27.7880   22.4140 C.3    11  LYS11       0.1561
     27  C         14.8700   27.5610   22.2410 C.2    11  LYS11       0.2260
     28  O         15.3230   27.1140   21.1730 O.2    11  LYS11      -0.2867
     29  CB        12.6160   26.4900   22.1540 C.3    11  LYS11       0.0271
     30  CG        12.9270   25.3970   23.1750 C.3    11  LYS11       0.0035
     31  CD        12.0910   24.1620   22.9300 C.3    11  LYS11       0.0206
     32  CE        12.2010   23.1680   24.0820 C.3    11  LYS11       0.1093
     33  NZ        13.4570   22.3900   24.1120 N.3    11  LYS11      -0.1314
     34  N         16.9820   17.7430   18.8200 N.3    22  GLU22      -0.1245
     35  CA        15.6930   18.4210   18.6560 C.3    22  GLU22       0.1567
     36  C         15.6540   19.2660   17.3700 C.2    22  GLU22       0.2260
     37  O         14.6580   19.2730   16.6460 O.2    22  GLU22      -0.2867
     38  CB        15.3520   19.2940   19.8620 C.3    22  GLU22       0.0388
     39  CG        13.9150   19.7830   19.8250 C.3    22  GLU22       0.1160
     40  CD        13.4380   20.4230   21.0990 C.2    22  GLU22       0.3649
     41  OE1       14.2360   21.1390   21.7450 O.co2  22  GLU22      -0.2457
     42  OE2       12.2360   20.2280   21.4350 O.co2  22  GLU22      -0.2457
     43  N         12.9160   18.7200   14.2080 N.3    26  TYR26      -0.1241
     44  CA        12.1150   19.7580   13.5430 C.3    26  TYR26       0.1605
     45  C         12.5000   19.9020   12.0560 C.2    26  TYR26       0.2264
     46  O         11.6200   20.0220   11.2050 O.2    26  TYR26      -0.2867
     47  CB        12.2020   21.1040   14.2700 C.3    26  TYR26       0.0534
     48  CG        11.2750   21.2520   15.4650 C.ar   26  TYR26      -0.0201
     49  CD1        9.9070   21.4940   15.2890 C.ar   26  TYR26      -0.0009
     50  CD2       11.7610   21.1800   16.7690 C.ar   26  TYR26      -0.0009
     51  CE1        9.0500   21.6450   16.3820 C.ar   26  TYR26       0.0417
     52  CE2       10.9140   21.3360   17.8640 C.ar   26  TYR26       0.0417
     53  CZ         9.5610   21.5720   17.6680 C.ar   26  TYR26       0.1957
     54  OH         8.7230   21.7390   18.7460 O.3    26  TYR26      -0.2866
     55  N          3.9810   22.6700   17.2110 N.3    47  PRO47      -0.2116
     56  CA         4.0550   24.0940   16.8950 C.3    47  PRO47       0.1372
     57  C          4.6100   24.2550   15.4870 C.2    47  PRO47       0.2244
     58  O          5.4640   23.4560   15.0920 O.2    47  PRO47      -0.2868
     59  CB         5.0410   24.6540   17.9300 C.3    47  PRO47       0.0268
     60  CG         5.2680   23.5700   18.9370 C.3    47  PRO47       0.0207
     61  CD         4.9330   22.2770   18.2640 C.3    47  PRO47       0.0892
     62  N          9.6010   28.9890   17.0080 N.3    66  LEU66      -0.1231
     63  CA         8.3860   28.1790   17.0170 C.3    66  LEU66       0.1693
     64  C          7.1490   29.0410   17.2160 C.2    66  LEU66       0.2592
     65  O          7.2090   30.0870   17.8560 O.2    66  LEU66      -0.2718
     66  CB         8.4550   27.1560   18.1600 C.3    66  LEU66       0.0284
     67  CG         9.5780   26.1210   18.0750 C.3    66  LEU66       0.0019
     68  CD1        9.8420   25.4500   19.4160 C.3    66  LEU66       0.0001
     69  CD2        9.2590   25.0890   17.0040 C.3    66  LEU66       0.0001
     70  N          6.0300   28.5790   16.6680 N.am   67  GLU67      -0.1966
     71  CA         4.7050   29.1230   16.9710 C.3    67  GLU67       0.1733
     72  C          4.4310   29.1800   18.4790 C.2    67  GLU67       0.2616
     73  O          4.6870   28.2140   19.1930 O.2    67  GLU67      -0.2715
     74  CB         3.6450   28.2310   16.3230 C.3    67  GLU67       0.0429
     75  CG         2.1940   28.6170   16.5980 C.3    67  GLU67       0.1163
     76  CD         1.2110   27.5630   16.1410 C.2    67  GLU67       0.3649
     77  OE1        1.6370   26.5590   15.5150 O.co2  67  GLU67      -0.2457
     78  OE2       -0.0040   27.7310   16.4240 O.co2  67  GLU67      -0.2457
     79  N          3.9010   30.3090   18.9480 N.am   68  ASP68      -0.1957
     80  CA         3.4620   30.4320   20.3220 C.3    68  ASP68       0.1840
     81  C          2.0350   29.9170   20.3740 C.2    68  ASP68       0.2622
     82  O          1.0960   30.6140   19.9970 O.2    68  ASP68      -0.2715
     83  CB         3.5260   31.8730   20.8430 C.3    68  ASP68       0.1450
     84  CG         3.1220   31.9830   22.3150 C.2    68  ASP68       0.3671
     85  OD1        2.6270   30.9840   22.8970 O.co2  68  ASP68      -0.2456
     86  OD2        3.2860   33.0810   22.8900 O.co2  68  ASP68      -0.2456
     87  N          1.8880   28.7020   20.8810 N.am   69  VAL69      -0.1963
     88  CA         0.6010   28.0060   20.8700 C.3    69  VAL69       0.1727
     89  C         -0.4500   28.6480   21.7960 C.2    69  VAL69       0.2616
     90  O         -1.6300   28.3250   21.6870 O.2    69  VAL69      -0.2715
     91  CB         0.7560   26.4900   21.1730 C.3    69  VAL69       0.0290
     92  CG1        1.7600   25.8430   20.2120 C.3    69  VAL69       0.0023
     93  CG2        1.1530   26.2420   22.6170 C.3    69  VAL69       0.0023
     94  N         -0.0200   29.5430   22.6890 N.am   70  THR70      -0.1951
     95  CA        -0.9170   30.2730   23.5920 C.3    70  THR70       0.1897
     96  C         -1.3380   31.6460   23.0640 C.2    70  THR70       0.2313
     97  O         -2.1360   32.3120   23.7110 O.2    70  THR70      -0.2863
     98  CB        -0.2730   30.5070   24.9780 C.3    70  THR70       0.1794
     99  OG1        0.7850   31.4850   24.8810 O.3    70  THR70      -0.2208
    100  CG2        0.2450   29.2160   25.5530 C.3    70  THR70       0.0378
    101  N         -4.6780   32.4340   28.9770 N.3    76  PRO76      -0.2116
    102  CA        -4.4210   31.0140   28.7520 C.3    76  PRO76       0.1372
    103  C         -4.1660   30.2210   30.0440 C.2    76  PRO76       0.2244
    104  O         -3.4170   30.6700   30.9110 O.2    76  PRO76      -0.2868
    105  CB        -3.1800   31.0110   27.8440 C.3    76  PRO76       0.0268
    106  CG        -2.5620   32.3510   28.0150 C.3    76  PRO76       0.0207
    107  CD        -3.6710   33.2950   28.3290 C.3    76  PRO76       0.0892
    108  N         -2.5720   26.7230   31.0450 N.3    78  ILE78      -0.1245
    109  CA        -1.5690   25.9080   30.3820 C.3    78  ILE78       0.1561
    110  C         -1.1380   24.7530   31.2820 C.2    78  ILE78       0.2260
    111  O         -0.7990   24.9600   32.4620 O.2    78  ILE78      -0.2867
    112  CB        -0.3350   26.7410   29.9910 C.3    78  ILE78       0.0252
    113  CG1       -0.7340   27.9440   29.1330 C.3    78  ILE78       0.0019
    114  CG2        0.6740   25.8940   29.2170 C.3    78  ILE78       0.0019
    115  CD1        0.1770   29.1150   29.3260 C.3    78  ILE78       0.0001
    116  N          1.5000   21.2440   30.9920 N.3    80  ASP80      -0.1239
    117  CA         2.5190   20.4970   30.2710 C.3    80  ASP80       0.1674
    118  C          2.5340   19.0890   30.8570 C.2    80  ASP80       0.2266
    119  O          2.7310   18.9370   32.0630 O.2    80  ASP80      -0.2867
    120  CB         3.8570   21.2150   30.4680 C.3    80  ASP80       0.1410
    121  CG         4.9420   20.7290   29.5520 C.2    80  ASP80       0.3668
    122  OD1        4.7130   19.8140   28.7440 O.co2  80  ASP80      -0.2456
    123  OD2        6.0580   21.2910   29.6300 O.co2  80  ASP80      -0.2456
    124  N         -0.4170   26.2340   34.8920 N.3   118  ARG118     -0.1245
    125  CA        -0.7090   27.6220   35.1870 C.3   118  ARG118      0.1563
    126  C         -2.2030   27.7580   34.9320 C.2   118  ARG118      0.2260
    127  O         -2.6500   27.5340   33.8000 O.2   118  ARG118     -0.2867
    128  CB         0.1270   28.5250   34.2780 C.3   118  ARG118      0.0307
    129  CG         0.0540   30.0050   34.6090 C.3   118  ARG118      0.0489
    130  CD         1.2890   30.7470   34.1140 C.3   118  ARG118      0.2205
    131  NE         1.0520   32.1810   33.9610 N.pl3 118  ARG118     -0.0865
    132  CZ         0.4520   32.7610   32.9180 C.cat 118  ARG118      0.5346
    133  NH1       -0.0130   32.0460   31.8870 N.pl3 118  ARG118      0.1354
    134  NH2        0.3050   34.0830   32.9040 N.pl3 118  ARG118      0.1354
    135  N          1.2740   19.8290   25.4100 N.3   190  LEU190     -0.1245
    136  CA         0.9750   21.1310   25.9700 C.3   190  LEU190      0.1561
    137  C         -0.5040   21.3530   25.7550 C.2   190  LEU190      0.2260
    138  O         -0.9650   21.3580   24.6140 O.2   190  LEU190     -0.2867
    139  CB         1.8070   22.2010   25.2540 C.3   190  LEU190      0.0270
    140  CG         1.8900   23.5810   25.9040 C.3   190  LEU190      0.0019
    141  CD1        2.4140   23.4870   27.3300 C.3   190  LEU190      0.0001
    142  CD2        2.7680   24.4970   25.0520 C.3   190  LEU190      0.0001
    143  N          5.2520   18.6720   22.0660 N.3   206  ILE206     -0.1231
    144  CA         6.4980   19.4150   22.1860 C.3   206  ILE206      0.1692
    145  C          7.6050   18.5400   22.7970 C.2   206  ILE206      0.2592
    146  O          7.3220   17.4240   23.2800 O.2   206  ILE206     -0.2718
    147  CB         6.3030   20.6760   23.0550 C.3   206  ILE206      0.0266
    148  CG1        5.8630   20.3310   24.4790 C.3   206  ILE206      0.0019
    149  CG2        5.2850   21.6070   22.4090 C.3   206  ILE206      0.0020
    150  CD1        5.8970   21.5220   25.4130 C.3   206  ILE206      0.0001
    151  N          8.8390   19.0580   22.7790 N.am  207  ASP207     -0.1974
    152  CA        10.0140   18.4880   23.4770 C.3   207  ASP207      0.1709
    153  C         10.5430   17.2290   22.7880 C.2   207  ASP207      0.2293
    154  O         10.1720   16.1020   23.1470 O.2   207  ASP207     -0.2864
    155  CB         9.7490   18.1780   24.9660 C.3   207  ASP207      0.1436
    156  CG         9.4380   19.3990   25.7950 C.2   207  ASP207      0.3671
    157  OD1        9.8930   20.5060   25.4670 O.co2 207  ASP207     -0.2456
    158  OD2        8.7340   19.2410   26.8230 O.co2 207  ASP207     -0.2456
@<TRIPOS>BOND
     1    46    45    2
     2    45    44    1
     3    44    43    1
     4    44    47    1
     5    47    48    1
     6    58    57    2
     7    49    48   ar
     8    49    51   ar
     9    48    50   ar
    10    57    56    1
    11    77    76   ar
    12    76    78   ar
    13    76    75    1
    14    74    75    1
    15    74    71    1
    16    51    53   ar
    17    37    36    2
    18    70    71    1
    19    70    64   am
    20    50    52   ar
    21    56    55    1
    22    56    59    1
    23    71    72    1
    24    69    67    1
    25    62    63    1
    26    63    64    1
    27    63    66    1
    28    55    61    1
    29    64    65    2
    30    36    35    1
    31    53    52   ar
    32    53    54    1
    33    59    60    1
    34    67    66    1
    35    67    68    1
    36    61    60    1
    37    72    79   am
    38    72    73    2
    39    35    34    1
    40    35    38    1
    41    79    80    1
    42    21    20    2
    43    18    19    1
    44    39    38    1
    45    39    40    1
    46    82    81    2
    47    92    91    1
    48    20    19    1
    49    80    81    1
    50    80    83    1
    51    81    87   am
    52    19    22    1
    53    83    84    1
    54    88    87    1
    55    88    91    1
    56    88    89    1
    57    40    42   ar
    58    40    41   ar
    59    91    93    1
    60    28    27    2
    61    24    22    1
    62    25    26    1
    63    90    89    2
    64    89    94   am
    65    22    23    1
    66   143   144    1
    67    29    26    1
    68    29    30    1
    69   144   145    1
    70   144   147    1
    71    27    26    1
    72    84    86   ar
    73    84    85   ar
    74   149   147    1
    75    94    95    1
    76   151   145   am
    77   151   152    1
    78   153   154    2
    79   153   152    1
    80   145   146    2
    81    31    30    1
    82    31    32    1
    83   147   148    1
    84    96    95    1
    85    96    97    2
    86   152   155    1
    87    95    98    1
    88    11    10    1
    89    11    12    2
    90    32    33    1
    91    10     9    1
    92    10    13    1
    93   148   150    1
    94   138   137    2
    95     8     6    1
    96    99    98    1
    97   155   156    1
    98    98   100    1
    99   142   140    1
   100    14    13    1
   101    14    15    1
   102   139   140    1
   103   139   136    1
   104     7     5    1
   105   135   136    1
   106   157   156   ar
   107   137   136    1
   108   156   158   ar
   109   140   141    1
   110     6     5    1
   111    15    17   am
   112    15    16    2
   113     2     5    1
   114     2     3    1
   115     2     1    1
   116     3     4    2
   117   105   106    1
   118   105   102    1
   119   106   107    1
   120   107   101    1
   121   122   121   ar
   122   102   101    1
   123   102   103    1
   124   113   115    1
   125   113   112    1
   126   114   112    1
   127   121   123   ar
   128   121   120    1
   129   112   109    1
   130   103   104    2
   131   117   120    1
   132   117   118    1
   133   117   116    1
   134   109   108    1
   135   109   110    1
   136   118   119    2
   137   110   111    2
   138   133   132    1
   139   134   132    1
   140   132   131    2
   141   127   126    2
   142   131   130    1
   143   130   129    1
   144   128   129    1
   145   128   125    1
   146   124   125    1
   147   126   125    1
