@<TRIPOS>MOLECULE
tmp/6m8dA00.pdb
 143 133 0 0 0
SMALL
GASTEIGER

@<TRIPOS>ATOM
      1  N         12.1730   28.9600   27.2880 N.3     1  ILE1       -0.1245
      2  CA        11.0500   29.4410   26.4230 C.3     1  ILE1        0.1561
      3  C         10.8800   30.9540   26.5710 C.2     1  ILE1        0.2260
      4  O         10.4730   31.4330   27.6280 O.2     1  ILE1       -0.2867
      5  CB         9.7310   28.6930   26.7520 C.3     1  ILE1        0.0252
      6  CG1        9.8230   27.2210   26.3110 C.3     1  ILE1        0.0019
      7  CG2        8.5150   29.3580   26.1080 C.3     1  ILE1        0.0019
      8  CD1        9.9130   26.9940   24.8100 C.3     1  ILE1        0.0001
      9  N          8.8330   34.1040   25.1430 N.3     3  GLN3       -0.1245
     10  CA         7.6560   34.5260   24.3710 C.3     3  GLN3        0.1566
     11  C          7.9530   35.8190   23.6220 C.2     3  GLN3        0.2260
     12  O          8.4300   36.7890   24.2140 O.2     3  GLN3       -0.2867
     13  CB         6.4280   34.7090   25.2680 C.3     3  GLN3        0.0367
     14  CG         5.7540   33.4070   25.6550 C.3     3  GLN3        0.0905
     15  CD         4.4660   33.6300   26.4200 C.2     3  GLN3        0.2608
     16  OE1        4.4900   34.0120   27.5840 O.2     3  GLN3       -0.2717
     17  NE2        3.3350   33.3880   25.7680 N.am    3  GLN3       -0.0878
     18  N          7.5550   31.6840   19.9460 N.3     9  VAL9       -0.1245
     19  CA         8.4560   31.4680   21.0660 C.3     9  VAL9        0.1561
     20  C          9.8300   31.1130   20.5140 C.2     9  VAL9        0.2260
     21  O          9.9430   30.5810   19.4050 O.2     9  VAL9       -0.2867
     22  CB         7.9640   30.3730   22.0400 C.3     9  VAL9        0.0252
     23  CG1        6.5760   30.7140   22.5630 C.3     9  VAL9        0.0019
     24  CG2        7.9740   28.9840   21.4000 C.3     9  VAL9        0.0019
     25  N         12.7790   28.7560   21.6690 N.3    11  LYS11      -0.1245
     26  CA        13.2420   27.7040   22.5720 C.3    11  LYS11       0.1561
     27  C         14.7410   27.5060   22.3830 C.2    11  LYS11       0.2260
     28  O         15.1920   27.1090   21.3030 O.2    11  LYS11      -0.2867
     29  CB        12.5050   26.3980   22.2960 C.3    11  LYS11       0.0271
     30  CG        12.7740   25.3040   23.3210 C.3    11  LYS11       0.0035
     31  CD        12.0620   24.0280   22.9270 C.3    11  LYS11       0.0206
     32  CE        12.1250   22.9740   24.0240 C.3    11  LYS11       0.1093
     33  NZ        13.4430   22.2980   24.1450 N.3    11  LYS11      -0.1314
     34  N         16.8390   17.6940   18.8820 N.3    22  GLU22      -0.1245
     35  CA        15.5290   18.3630   18.7290 C.3    22  GLU22       0.1567
     36  C         15.4740   19.2260   17.4550 C.2    22  GLU22       0.2260
     37  O         14.4560   19.2600   16.7540 O.2    22  GLU22      -0.2867
     38  CB        15.1660   19.1940   19.9570 C.3    22  GLU22       0.0388
     39  CG        13.7390   19.7390   19.8870 C.3    22  GLU22       0.1160
     40  CD        13.2840   20.4290   21.1490 C.2    22  GLU22       0.3649
     41  OE1       14.0850   21.1500   21.7660 O.co2  22  GLU22      -0.2457
     42  OE2       12.1050   20.2550   21.5160 O.co2  22  GLU22      -0.2457
     43  N         12.7220   18.6300   14.2880 N.3    26  TYR26      -0.1241
     44  CA        11.9320   19.6760   13.6230 C.3    26  TYR26       0.1605
     45  C         12.2800   19.8230   12.1330 C.2    26  TYR26       0.2264
     46  O         11.3760   19.8930   11.2840 O.2    26  TYR26      -0.2867
     47  CB        12.0760   21.0240   14.3420 C.3    26  TYR26       0.0534
     48  CG        11.1720   21.1850   15.5450 C.ar   26  TYR26      -0.0201
     49  CD1        9.7980   21.3970   15.3800 C.ar   26  TYR26      -0.0009
     50  CD2       11.6770   21.1550   16.8430 C.ar   26  TYR26      -0.0009
     51  CE1        8.9640   21.5600   16.4710 C.ar   26  TYR26       0.0417
     52  CE2       10.8450   21.3240   17.9440 C.ar   26  TYR26       0.0417
     53  CZ         9.4860   21.5290   17.7500 C.ar   26  TYR26       0.1957
     54  OH         8.6350   21.6920   18.8220 O.3    26  TYR26      -0.2866
     55  N          3.7860   22.4760   17.2770 N.3    47  PRO47      -0.2116
     56  CA         3.8380   23.9080   16.9800 C.3    47  PRO47       0.1372
     57  C          4.3830   24.1150   15.5720 C.2    47  PRO47       0.2244
     58  O          5.2420   23.3430   15.1460 O.2    47  PRO47      -0.2868
     59  CB         4.8130   24.4620   18.0270 C.3    47  PRO47       0.0268
     60  CG         5.0060   23.3720   19.0300 C.3    47  PRO47       0.0207
     61  CD         4.7480   22.0920   18.3250 C.3    47  PRO47       0.0892
     62  N          9.3850   28.8610   17.0820 N.3    66  LEU66      -0.1231
     63  CA         8.1710   28.0530   17.0560 C.3    66  LEU66       0.1693
     64  C          6.9300   28.9080   17.3040 C.2    66  LEU66       0.2592
     65  O          6.9910   29.9190   17.9980 O.2    66  LEU66      -0.2718
     66  CB         8.2410   26.9810   18.1400 C.3    66  LEU66       0.0284
     67  CG         9.3590   25.9400   18.0570 C.3    66  LEU66       0.0019
     68  CD1        9.5160   25.2430   19.3960 C.3    66  LEU66       0.0001
     69  CD2        9.0810   24.9200   16.9620 C.3    66  LEU66       0.0001
     70  N          5.8070   28.4770   16.7390 N.am   67  GLU67      -0.1966
     71  CA         4.4980   29.0360   17.0580 C.3    67  GLU67       0.1733
     72  C          4.2450   29.0460   18.5660 C.2    67  GLU67       0.2616
     73  O          4.4710   28.0370   19.2400 O.2    67  GLU67      -0.2715
     74  CB         3.4250   28.1790   16.3960 C.3    67  GLU67       0.0429
     75  CG         1.9770   28.5980   16.6280 C.3    67  GLU67       0.1163
     76  CD         1.0040   27.4930   16.2800 C.2    67  GLU67       0.3649
     77  OE1        1.4330   26.4630   15.7080 O.co2  67  GLU67      -0.2457
     78  OE2       -0.1940   27.6410   16.5910 O.co2  67  GLU67      -0.2457
     79  N          3.7780   30.1820   19.0860 N.am   68  ASP68      -0.1957
     80  CA         3.3190   30.2620   20.4650 C.3    68  ASP68       0.1840
     81  C          1.8630   29.8080   20.4740 C.2    68  ASP68       0.2622
     82  O          0.9640   30.5680   20.0970 O.2    68  ASP68      -0.2715
     83  CB         3.4500   31.6780   21.0340 C.3    68  ASP68       0.1450
     84  CG         3.0940   31.7500   22.5120 C.2    68  ASP68       0.3671
     85  OD1        2.5000   30.7930   23.0470 O.co2  68  ASP68      -0.2456
     86  OD2        3.4050   32.7720   23.1480 O.co2  68  ASP68      -0.2456
     87  N          1.6370   28.5760   20.9240 N.am   69  VAL69      -0.1963
     88  CA         0.2890   27.9830   20.9080 C.3    69  VAL69       0.1727
     89  C         -0.6780   28.6150   21.9240 C.2    69  VAL69       0.2616
     90  O         -1.8800   28.3450   21.8660 O.2    69  VAL69      -0.2715
     91  CB         0.3070   26.4370   21.0680 C.3    69  VAL69       0.0290
     92  CG1        1.2030   25.7800   20.0070 C.3    69  VAL69       0.0023
     93  CG2        0.7020   26.0240   22.4780 C.3    69  VAL69       0.0023
     94  N         -0.1590   29.4420   22.8390 N.am   70  THR70      -0.1951
     95  CA        -0.9780   30.1970   23.7940 C.3    70  THR70       0.1897
     96  C         -1.3860   31.5950   23.3010 C.2    70  THR70       0.2313
     97  O         -2.1880   32.2590   23.9530 O.2    70  THR70      -0.2863
     98  CB        -0.2540   30.3740   25.1530 C.3    70  THR70       0.1794
     99  OG1        0.8190   31.3200   25.0300 O.3    70  THR70      -0.2208
    100  CG2        0.2920   29.0490   25.6570 C.3    70  THR70       0.0378
    101  N         -2.5000   26.7140   31.1170 N.3    78  ILE78      -0.1245
    102  CA        -1.4580   25.9390   30.4420 C.3    78  ILE78       0.1561
    103  C         -1.0200   24.7680   31.3140 C.2    78  ILE78       0.2260
    104  O         -0.6800   24.9650   32.4860 O.2    78  ILE78      -0.2867
    105  CB        -0.2160   26.8060   30.1170 C.3    78  ILE78       0.0252
    106  CG1       -0.6120   28.1250   29.4460 C.3    78  ILE78       0.0019
    107  CG2        0.7530   26.0410   29.2080 C.3    78  ILE78       0.0019
    108  CD1        0.4770   29.1800   29.4610 C.3    78  ILE78       0.0001
    109  N         -0.5210   26.1670   35.0200 N.3   118  ARG118     -0.1245
    110  CA        -0.8360   27.5560   35.3250 C.3   118  ARG118      0.1563
    111  C         -2.3250   27.6860   35.0570 C.2   118  ARG118      0.2260
    112  O         -2.7550   27.5040   33.9240 O.2   118  ARG118     -0.2867
    113  CB        -0.0030   28.4730   34.4220 C.3   118  ARG118      0.0307
    114  CG        -0.1600   29.9620   34.6670 C.3   118  ARG118      0.0489
    115  CD         1.0200   30.7110   34.0680 C.3   118  ARG118      0.2205
    116  NE         0.7760   32.1380   33.8880 N.pl3 118  ARG118     -0.0865
    117  CZ         0.0930   32.6930   32.8810 C.cat 118  ARG118      0.5346
    118  NH1       -0.4800   31.9560   31.9210 N.pl3 118  ARG118      0.1354
    119  NH2       -0.0310   34.0160   32.8400 N.pl3 118  ARG118      0.1354
    120  N          1.3220   19.7620   25.4530 N.3   190  LEU190     -0.1245
    121  CA         1.0270   21.0740   26.0010 C.3   190  LEU190      0.1561
    122  C         -0.4630   21.3200   25.8180 C.2   190  LEU190      0.2260
    123  O         -0.9500   21.3940   24.6800 O.2   190  LEU190     -0.2867
    124  CB         1.8460   22.1500   25.2830 C.3   190  LEU190      0.0270
    125  CG         1.8180   23.5540   25.9000 C.3   190  LEU190      0.0019
    126  CD1        2.3140   23.5530   27.3400 C.3   190  LEU190      0.0001
    127  CD2        2.6500   24.5070   25.0600 C.3   190  LEU190      0.0001
    128  N          5.1630   18.5830   22.1650 N.3   206  ILE206     -0.1231
    129  CA         6.4060   19.3490   22.2670 C.3   206  ILE206      0.1692
    130  C          7.5230   18.4860   22.8670 C.2   206  ILE206      0.2592
    131  O          7.2590   17.3700   23.3360 O.2   206  ILE206     -0.2718
    132  CB         6.2260   20.6390   23.1150 C.3   206  ILE206      0.0266
    133  CG1        5.8790   20.3150   24.5740 C.3   206  ILE206      0.0019
    134  CG2        5.1500   21.5360   22.5050 C.3   206  ILE206      0.0020
    135  CD1        5.8970   21.5210   25.4960 C.3   206  ILE206      0.0001
    136  N          8.7470   19.0280   22.8440 N.am  207  ASP207     -0.1974
    137  CA         9.9370   18.4800   23.5340 C.3   207  ASP207      0.1709
    138  C         10.4680   17.2270   22.8540 C.2   207  ASP207      0.2293
    139  O         10.1360   16.1150   23.2500 O.2   207  ASP207     -0.2864
    140  CB         9.6780   18.1810   25.0280 C.3   207  ASP207      0.1436
    141  CG         9.3340   19.4080   25.8280 C.2   207  ASP207      0.3671
    142  OD1        9.8690   20.4890   25.5330 O.co2 207  ASP207     -0.2456
    143  OD2        8.5310   19.2810   26.7850 O.co2 207  ASP207     -0.2456
@<TRIPOS>BOND
     1    46    45    2
     2    45    44    1
     3    44    43    1
     4    44    47    1
     5    47    48    1
     6    58    57    2
     7    49    48   ar
     8    49    51   ar
     9    48    50   ar
    10    57    56    1
    11    77    76   ar
    12    76    78   ar
    13    76    75    1
    14    74    75    1
    15    74    71    1
    16    51    53   ar
    17    70    71    1
    18    70    64   am
    19    37    36    2
    20    50    52   ar
    21    69    67    1
    22    56    55    1
    23    56    59    1
    24    63    62    1
    25    63    64    1
    26    63    66    1
    27    71    72    1
    28    55    61    1
    29    64    65    2
    30    36    35    1
    31    53    52   ar
    32    53    54    1
    33    59    60    1
    34    67    66    1
    35    67    68    1
    36    61    60    1
    37    72    79   am
    38    72    73    2
    39    35    34    1
    40    35    38    1
    41    79    80    1
    42    21    20    2
    43    39    38    1
    44    39    40    1
    45    18    19    1
    46    92    91    1
    47    82    81    2
    48    80    81    1
    49    80    83    1
    50    81    87   am
    51    20    19    1
    52    88    87    1
    53    88    91    1
    54    88    89    1
    55    83    84    1
    56    19    22    1
    57    91    93    1
    58    40    42   ar
    59    40    41   ar
    60    28    27    2
    61    24    22    1
    62    25    26    1
    63    90    89    2
    64    89    94   am
    65    22    23    1
    66   128   129    1
    67   129   130    1
    68   129   132    1
    69    29    26    1
    70    29    30    1
    71    27    26    1
    72   134   132    1
    73    84    85   ar
    74    84    86   ar
    75    94    95    1
    76   136   130   am
    77   136   137    1
    78   138   139    2
    79   138   137    1
    80   130   131    2
    81    31    30    1
    82    31    32    1
    83   132   133    1
    84    96    95    1
    85    96    97    2
    86   137   140    1
    87    11    12    2
    88    11    10    1
    89    95    98    1
    90    32    33    1
    91    10     9    1
    92    10    13    1
    93   133   135    1
    94   123   122    2
    95     8     6    1
    96   140   141    1
    97    99    98    1
    98   127   125    1
    99    98   100    1
   100    13    14    1
   101   124   125    1
   102   124   121    1
   103   120   121    1
   104   142   141   ar
   105    14    15    1
   106    17    15   am
   107   122   121    1
   108   141   143   ar
   109   125   126    1
   110     7     5    1
   111     6     5    1
   112    15    16    2
   113     2     3    1
   114     2     5    1
   115     2     1    1
   116     3     4    2
   117   107   105    1
   118   106   108    1
   119   106   105    1
   120   105   102    1
   121   102   101    1
   122   102   103    1
   123   103   104    2
   124   118   117    1
   125   119   117    1
   126   117   116    2
   127   116   115    1
   128   112   111    2
   129   115   114    1
   130   113   114    1
   131   113   110    1
   132   109   110    1
   133   111   110    1
