@<TRIPOS>MOLECULE
tmp/6m8eA00.pdb
 151 140 0 0 0
SMALL
GASTEIGER

@<TRIPOS>ATOM
      1  N         12.4600   30.1220   27.3090 N.3     1  ILE1       -0.1245
      2  CA        11.5550   30.3420   26.1380 C.3     1  ILE1        0.1561
      3  C         11.1800   31.8250   26.0460 C.2     1  ILE1        0.2260
      4  O         10.3640   32.3100   26.8300 O.2     1  ILE1       -0.2867
      5  CB        10.2790   29.4620   26.2180 C.3     1  ILE1        0.0252
      6  CG1       10.6640   27.9800   26.3580 C.3     1  ILE1        0.0019
      7  CG2        9.3970   29.6690   24.9850 C.3     1  ILE1        0.0019
      8  CD1        9.4920   27.0320   26.5020 C.3     1  ILE1        0.0001
      9  N          9.3310   34.9180   24.5630 N.3     3  GLN3       -0.1245
     10  CA         8.0980   35.2320   23.8270 C.3     3  GLN3        0.1566
     11  C          8.2520   36.5110   23.0020 C.2     3  GLN3        0.2260
     12  O          8.5250   37.5780   23.5560 O.2     3  GLN3       -0.2867
     13  CB         6.9090   35.3810   24.7840 C.3     3  GLN3        0.0367
     14  CG         6.4200   34.0680   25.3760 C.3     3  GLN3        0.0905
     15  CD         5.1240   34.2210   26.1530 C.2     3  GLN3        0.2608
     16  OE1        4.9650   35.1540   26.9400 O.2     3  GLN3       -0.2717
     17  NE2        4.1910   33.2990   25.9380 N.am    3  GLN3       -0.0878
     18  N          7.5980   31.9750   19.5340 N.3     9  VAL9       -0.1245
     19  CA         8.5420   31.9070   20.6520 C.3     9  VAL9        0.1561
     20  C          9.8970   31.3680   20.1990 C.2     9  VAL9        0.2260
     21  O          9.9990   30.6950   19.1710 O.2     9  VAL9       -0.2867
     22  CB         8.0160   31.0490   21.8350 C.3     9  VAL9        0.0252
     23  CG1        6.7330   31.6430   22.4030 C.3     9  VAL9        0.0019
     24  CG2        7.8050   29.5820   21.4510 C.3     9  VAL9        0.0019
     25  N         12.9080   28.9960   21.4720 N.3    11  LYS11      -0.1245
     26  CA        13.3290   27.9540   22.4220 C.3    11  LYS11       0.1561
     27  C         14.8270   27.6840   22.2750 C.2    11  LYS11       0.2260
     28  O         15.2760   27.1650   21.2460 O.2    11  LYS11      -0.2867
     29  CB        12.5400   26.6640   22.1780 C.3    11  LYS11       0.0271
     30  CG        12.7250   25.5790   23.2420 C.3    11  LYS11       0.0035
     31  CD        12.3580   24.2100   22.6890 C.3    11  LYS11       0.0206
     32  CE        12.3200   23.1360   23.7640 C.3    11  LYS11       0.1093
     33  NZ        13.6660   22.6510   24.1650 N.3    11  LYS11      -0.1314
     34  N         16.9180   17.6500   18.8420 N.3    22  GLU22      -0.1245
     35  CA        15.6340   18.3580   18.7030 C.3    22  GLU22       0.1567
     36  C         15.5860   19.2230   17.4280 C.2    22  GLU22       0.2260
     37  O         14.5540   19.3000   16.7600 O.2    22  GLU22      -0.2867
     38  CB        15.3160   19.2190   19.9280 C.3    22  GLU22       0.0388
     39  CG        13.8820   19.7420   19.8900 C.3    22  GLU22       0.1160
     40  CD        13.4460   20.4470   21.1510 C.2    22  GLU22       0.3649
     41  OE1       14.2690   21.1560   21.7570 O.co2  22  GLU22      -0.2457
     42  OE2       12.2580   20.3150   21.5150 O.co2  22  GLU22      -0.2457
     43  N         12.8320   18.5950   14.2790 N.3    26  TYR26      -0.1241
     44  CA        12.0390   19.6300   13.6100 C.3    26  TYR26       0.1605
     45  C         12.3820   19.7420   12.1150 C.2    26  TYR26       0.2264
     46  O         11.4660   19.8140   11.2750 O.2    26  TYR26      -0.2867
     47  CB        12.1560   20.9880   14.3140 C.3    26  TYR26       0.0534
     48  CG        11.2050   21.1670   15.4910 C.ar   26  TYR26      -0.0201
     49  CD1        9.8500   21.4250   15.2800 C.ar   26  TYR26      -0.0009
     50  CD2       11.6570   21.0930   16.8040 C.ar   26  TYR26      -0.0009
     51  CE1        8.9780   21.6050   16.3470 C.ar   26  TYR26       0.0417
     52  CE2       10.7960   21.2730   17.8790 C.ar   26  TYR26       0.0417
     53  CZ         9.4550   21.5310   17.6440 C.ar   26  TYR26       0.1957
     54  OH         8.5920   21.7020   18.6990 O.3    26  TYR26      -0.2866
     55  N          3.8520   22.5330   17.3900 N.3    47  PRO47      -0.2116
     56  CA         3.8850   23.9750   17.1140 C.3    47  PRO47       0.1372
     57  C          4.4880   24.1910   15.7280 C.2    47  PRO47       0.2244
     58  O          5.4010   23.4540   15.3480 O.2    47  PRO47      -0.2868
     59  CB         4.8120   24.5450   18.1980 C.3    47  PRO47       0.0268
     60  CG         5.0080   23.4570   19.1980 C.3    47  PRO47       0.0207
     61  CD         4.7560   22.1630   18.4930 C.3    47  PRO47       0.0892
     62  N          9.4620   28.9170   17.0240 N.3    66  LEU66      -0.1231
     63  CA         8.2450   28.0980   17.0580 C.3    66  LEU66       0.1693
     64  C          6.9920   28.9360   17.3140 C.2    66  LEU66       0.2592
     65  O          7.0510   29.9830   17.9500 O.2    66  LEU66      -0.2718
     66  CB         8.3530   27.0440   18.1660 C.3    66  LEU66       0.0284
     67  CG         9.4860   26.0160   18.0480 C.3    66  LEU66       0.0019
     68  CD1        9.8030   25.4080   19.4000 C.3    66  LEU66       0.0001
     69  CD2        9.1310   24.9250   17.0460 C.3    66  LEU66       0.0001
     70  N          5.8610   28.4460   16.8210 N.am   67  GLU67      -0.1966
     71  CA         4.5390   28.9970   17.1460 C.3    67  GLU67       0.1733
     72  C          4.3200   29.1360   18.6560 C.2    67  GLU67       0.2616
     73  O          4.6190   28.2110   19.4130 O.2    67  GLU67      -0.2715
     74  CB         3.4640   28.0650   16.5990 C.3    67  GLU67       0.0429
     75  CG         2.0230   28.5310   16.7830 C.3    67  GLU67       0.1163
     76  CD         1.0220   27.4620   16.4070 C.2    67  GLU67       0.3649
     77  OE1        1.4280   26.4020   15.8680 O.co2  67  GLU67      -0.2457
     78  OE2       -0.1820   27.6710   16.6580 O.co2  67  GLU67      -0.2457
     79  N          3.7980   30.2870   19.0840 N.am   68  ASP68      -0.1957
     80  CA         3.3280   30.4550   20.4550 C.3    68  ASP68       0.1840
     81  C          1.8890   29.9370   20.5070 C.2    68  ASP68       0.2622
     82  O          0.9650   30.5990   20.0280 O.2    68  ASP68      -0.2715
     83  CB         3.3990   31.9180   20.9040 C.3    68  ASP68       0.1450
     84  CG         2.9730   32.1110   22.3610 C.2    68  ASP68       0.3671
     85  OD1        2.6310   31.1180   23.0470 O.co2  68  ASP68      -0.2456
     86  OD2        2.9680   33.2700   22.8200 O.co2  68  ASP68      -0.2456
     87  N          1.7040   28.7680   21.1130 N.am   69  VAL69      -0.1963
     88  CA         0.3970   28.0990   21.1180 C.3    69  VAL69       0.1727
     89  C         -0.6230   28.7780   22.0490 C.2    69  VAL69       0.2616
     90  O         -1.8030   28.4620   21.9810 O.2    69  VAL69      -0.2715
     91  CB         0.5040   26.5910   21.4680 C.3    69  VAL69       0.0290
     92  CG1        1.5940   25.9020   20.6460 C.3    69  VAL69       0.0023
     93  CG2        0.7510   26.3820   22.9520 C.3    69  VAL69       0.0023
     94  N         -0.1620   29.6760   22.9260 N.am   70  THR70      -0.1951
     95  CA        -1.0350   30.4610   23.8030 C.3    70  THR70       0.1897
     96  C         -1.4650   31.8150   23.2110 C.2    70  THR70       0.2313
     97  O         -2.2410   32.5320   23.8410 O.2    70  THR70      -0.2863
     98  CB        -0.3550   30.7460   25.1630 C.3    70  THR70       0.1794
     99  OG1        0.7540   31.6370   24.9820 O.3    70  THR70      -0.2208
    100  CG2        0.1190   29.4650   25.8120 C.3    70  THR70       0.0378
    101  N         -2.4540   26.8290   31.2430 N.3    78  ILE78      -0.1245
    102  CA        -1.4360   26.0280   30.5660 C.3    78  ILE78       0.1561
    103  C         -1.0170   24.8560   31.4560 C.2    78  ILE78       0.2260
    104  O         -0.7410   25.0530   32.6370 O.2    78  ILE78      -0.2867
    105  CB        -0.1910   26.8770   30.2200 C.3    78  ILE78       0.0252
    106  CG1       -0.5850   28.1390   29.4410 C.3    78  ILE78       0.0019
    107  CG2        0.8230   26.0530   29.4180 C.3    78  ILE78       0.0019
    108  CD1        0.4540   29.2420   29.4760 C.3    78  ILE78       0.0001
    109  N          1.5760   21.3050   31.1720 N.3    80  ASP80      -0.1239
    110  CA         2.5940   20.5460   30.4800 C.3    80  ASP80       0.1674
    111  C          2.5620   19.1290   31.0660 C.2    80  ASP80       0.2266
    112  O          2.7230   18.9800   32.2700 O.2    80  ASP80      -0.2867
    113  CB         3.9350   21.2310   30.7790 C.3    80  ASP80       0.1410
    114  CG         5.0500   20.7710   29.8950 C.2    80  ASP80       0.3668
    115  OD1        4.8520   19.8730   29.0480 O.co2  80  ASP80      -0.2456
    116  OD2        6.1550   21.3240   30.0560 O.co2  80  ASP80      -0.2456
    117  N         -0.4660   26.2780   35.1120 N.3   118  ARG118     -0.1245
    118  CA        -0.7800   27.6670   35.4080 C.3   118  ARG118      0.1563
    119  C         -2.2740   27.8070   35.1220 C.2   118  ARG118      0.2260
    120  O         -2.6960   27.6250   33.9840 O.2   118  ARG118     -0.2867
    121  CB         0.0710   28.5690   34.5100 C.3   118  ARG118      0.0307
    122  CG        -0.0110   30.0590   34.7920 C.3   118  ARG118      0.0489
    123  CD         1.1670   30.7740   34.1430 C.3   118  ARG118      0.2205
    124  NE         0.9320   32.2000   33.9350 N.pl3 118  ARG118     -0.0865
    125  CZ         0.1870   32.7310   32.9610 C.cat 118  ARG118      0.5346
    126  NH1       -0.4540   31.9670   32.0690 N.pl3 118  ARG118      0.1354
    127  NH2        0.0690   34.0550   32.8860 N.pl3 118  ARG118      0.1354
    128  N          1.3120   19.8510   25.5940 N.3   190  LEU190     -0.1245
    129  CA         0.9990   21.1540   26.1590 C.3   190  LEU190      0.1561
    130  C         -0.4990   21.3590   25.9830 C.2   190  LEU190      0.2260
    131  O         -0.9890   21.3360   24.8500 O.2   190  LEU190     -0.2867
    132  CB         1.7830   22.2470   25.4140 C.3   190  LEU190      0.0270
    133  CG         1.7390   23.6690   25.9950 C.3   190  LEU190      0.0019
    134  CD1        2.1700   23.6950   27.4520 C.3   190  LEU190      0.0001
    135  CD2        2.6180   24.6050   25.1760 C.3   190  LEU190      0.0001
    136  N          5.1830   18.6410   22.2950 N.3   206  ILE206     -0.1231
    137  CA         6.4070   19.4300   22.4220 C.3   206  ILE206      0.1692
    138  C          7.5430   18.5790   23.0180 C.2   206  ILE206      0.2592
    139  O          7.2870   17.4840   23.5270 O.2   206  ILE206     -0.2718
    140  CB         6.1810   20.6890   23.2990 C.3   206  ILE206      0.0266
    141  CG1        5.7310   20.3200   24.7180 C.3   206  ILE206      0.0019
    142  CG2        5.1490   21.6120   22.6600 C.3   206  ILE206      0.0020
    143  CD1        5.8240   21.4810   25.6920 C.3   206  ILE206      0.0001
    144  N          8.7760   19.0930   22.9350 N.am  207  ASP207     -0.1974
    145  CA         9.9840   18.5330   23.6000 C.3   207  ASP207      0.1709
    146  C         10.5130   17.2740   22.9050 C.2   207  ASP207      0.2293
    147  O         10.1720   16.1490   23.2910 O.2   207  ASP207     -0.2864
    148  CB         9.7550   18.2090   25.0900 C.3   207  ASP207      0.1436
    149  CG         9.3280   19.3990   25.9080 C.2   207  ASP207      0.3671
    150  OD1        9.7340   20.5310   25.5900 O.co2 207  ASP207     -0.2456
    151  OD2        8.5930   19.1900   26.9060 O.co2 207  ASP207     -0.2456
@<TRIPOS>BOND
     1    46    45    2
     2    45    44    1
     3    44    43    1
     4    44    47    1
     5    47    48    1
     6    49    48   ar
     7    49    51   ar
     8    58    57    2
     9    48    50   ar
    10    57    56    1
    11    77    76   ar
    12    51    53   ar
    13    76    78   ar
    14    76    75    1
    15    74    75    1
    16    74    71    1
    17    37    36    2
    18    50    52   ar
    19    70    71    1
    20    70    64   am
    21    62    63    1
    22    69    67    1
    23    63    64    1
    24    63    66    1
    25    56    55    1
    26    56    59    1
    27    71    72    1
    28    64    65    2
    29    55    61    1
    30    36    35    1
    31    53    52   ar
    32    53    54    1
    33    67    66    1
    34    67    68    1
    35    59    60    1
    36    61    60    1
    37    72    79   am
    38    72    73    2
    39    35    34    1
    40    35    38    1
    41    79    80    1
    42    21    20    2
    43    18    19    1
    44    39    38    1
    45    39    40    1
    46    82    81    2
    47    20    19    1
    48    80    81    1
    49    80    83    1
    50    81    87   am
    51    92    91    1
    52    19    22    1
    53    83    84    1
    54    87    88    1
    55    88    91    1
    56    88    89    1
    57    40    42   ar
    58    40    41   ar
    59    28    27    2
    60    24    22    1
    61    91    93    1
    62    25    26    1
    63    22    23    1
    64    90    89    2
    65    89    94   am
    66    29    26    1
    67    29    30    1
    68    27    26    1
    69   136   137    1
    70    84    86   ar
    71    84    85   ar
    72   137   138    1
    73   137   140    1
    74   142   140    1
    75    31    30    1
    76    31    32    1
    77   146   147    2
    78   146   145    1
    79    94    95    1
    80   144   138   am
    81   144   145    1
    82    11    12    2
    83    11    10    1
    84   138   139    2
    85    96    95    1
    86    96    97    2
    87   140   141    1
    88   145   148    1
    89    32    33    1
    90    95    98    1
    91    10     9    1
    92    10    13    1
    93   141   143    1
    94    13    14    1
    95   131   130    2
    96    99    98    1
    97     7     5    1
    98   148   149    1
    99    98   100    1
   100   135   133    1
   101    14    15    1
   102   132   133    1
   103   132   129    1
   104   150   149   ar
   105   128   129    1
   106   149   151   ar
   107    17    15   am
   108   130   129    1
   109   133   134    1
   110     3     2    1
   111     3     4    2
   112     2     5    1
   113     2     1    1
   114    15    16    2
   115     5     6    1
   116     6     8    1
   117   115   114   ar
   118   107   105    1
   119   106   108    1
   120   106   105    1
   121   114   116   ar
   122   114   113    1
   123   105   102    1
   124   110   113    1
   125   110   111    1
   126   110   109    1
   127   102   101    1
   128   102   103    1
   129   111   112    2
   130   103   104    2
   131   126   125    1
   132   127   125    1
   133   125   124    2
   134   124   123    1
   135   120   119    2
   136   123   122    1
   137   121   122    1
   138   121   118    1
   139   117   118    1
   140   119   118    1
