@<TRIPOS>MOLECULE
tmp/6m8nA00.pdb
 109 109 0 0 0
SMALL
GASTEIGER

@<TRIPOS>ATOM
      1  N        -35.7800  -23.6850  -15.2350 N.3    18  ARG18      -0.1245
      2  CA       -35.0230  -24.7890  -15.7440 C.3    18  ARG18       0.1563
      3  C        -35.9320  -25.7520  -16.4950 C.2    18  ARG18       0.2260
      4  O        -37.0920  -25.8920  -16.1710 O.2    18  ARG18      -0.2867
      5  CB       -34.3250  -25.5330  -14.6290 C.3    18  ARG18       0.0307
      6  CG       -33.2550  -24.7290  -13.9010 C.3    18  ARG18       0.0489
      7  CD       -32.6550  -25.5080  -12.7890 C.3    18  ARG18       0.2205
      8  NE       -31.6500  -24.7500  -12.0340 N.pl3  18  ARG18      -0.0865
      9  CZ       -31.8880  -23.9120  -11.0260 C.cat  18  ARG18       0.5346
     10  NH1      -33.1470  -23.6820  -10.6310 N.pl3  18  ARG18       0.1354
     11  NH2      -30.8350  -23.3280  -10.4310 N.pl3  18  ARG18       0.1354
     12  N        -29.9420  -29.5840  -14.6280 N.3    58  PRO58      -0.2102
     13  CA       -29.2010  -29.0840  -13.4710 C.3    58  PRO58       0.1504
     14  C        -28.2650  -30.1290  -12.8720 C.2    58  PRO58       0.2575
     15  O        -28.6590  -31.2520  -12.5920 O.2    58  PRO58      -0.2718
     16  CB       -30.3010  -28.7020  -12.4970 C.3    58  PRO58       0.0282
     17  CG       -31.5010  -29.4830  -12.9640 C.3    58  PRO58       0.0208
     18  CD       -31.3880  -29.4660  -14.4730 C.3    58  PRO58       0.0893
     19  N        -26.9950  -29.7400  -12.6970 N.am   59  ALA59      -0.1980
     20  CA       -25.9820  -30.5580  -12.0520 C.3    59  ALA59       0.1597
     21  C        -25.7010  -31.8480  -12.8150 C.2    59  ALA59       0.2287
     22  O        -25.0560  -32.7660  -12.3000 O.2    59  ALA59      -0.2864
     23  CB       -26.3920  -30.8720  -10.6190 C.3    59  ALA59       0.0319
     24  N        -27.9870  -22.1280  -18.6220 N.3   108  TYR108     -0.1241
     25  CA       -27.1720  -22.9210  -17.7030 C.3   108  TYR108      0.1605
     26  C        -26.5510  -24.1030  -18.4660 C.2   108  TYR108      0.2264
     27  O        -27.2860  -24.8490  -19.1660 O.2   108  TYR108     -0.2867
     28  CB       -28.0290  -23.4800  -16.5700 C.3   108  TYR108      0.0534
     29  CG       -27.3040  -24.4750  -15.7060 C.ar  108  TYR108     -0.0201
     30  CD1      -27.2430  -25.8250  -16.0440 C.ar  108  TYR108     -0.0009
     31  CD2      -26.6320  -24.0860  -14.5810 C.ar  108  TYR108     -0.0009
     32  CE1      -26.5850  -26.7540  -15.2460 C.ar  108  TYR108      0.0417
     33  CE2      -25.9620  -24.9850  -13.7790 C.ar  108  TYR108      0.0417
     34  CZ       -25.9190  -26.3200  -14.1160 C.ar  108  TYR108      0.1957
     35  OH       -25.2890  -27.2510  -13.3290 O.3   108  TYR108     -0.2866
     36  N        -24.2650  -19.5880  -18.6270 N.3   164  TRP164     -0.1241
     37  CA       -23.8240  -19.6520  -17.2450 C.3   164  TRP164      0.1605
     38  C        -23.1510  -21.0110  -17.0840 C.2   164  TRP164      0.2264
     39  O        -23.8370  -22.0550  -17.1300 O.2   164  TRP164     -0.2867
     40  CB       -25.0070  -19.4790  -16.2940 C.3   164  TRP164      0.0550
     41  CG       -24.6370  -19.1890  -14.8670 C.ar  164  TRP164      0.0003
     42  CD1      -24.7060  -17.9580  -14.2740 C.ar  164  TRP164      0.0946
     43  CD2      -24.2140  -20.0970  -13.8370 C.ar  164  TRP164      0.0152
     44  NE1      -24.3250  -18.0470  -12.9480 N.ar  164  TRP164     -0.2442
     45  CE2      -23.9950  -19.3340  -12.6720 C.ar  164  TRP164      0.0810
     46  CE3      -23.9730  -21.4640  -13.7980 C.ar  164  TRP164      0.0012
     47  CZ2      -23.5800  -19.9030  -11.4750 C.ar  164  TRP164      0.0191
     48  CZ3      -23.5740  -22.0340  -12.6120 C.ar  164  TRP164      0.0001
     49  CH2      -23.3760  -21.2500  -11.4680 C.ar  164  TRP164      0.0015
     50  N        -21.3890  -23.9290  -15.2950 N.3   166  ASP166     -0.1239
     51  CA       -21.2100  -24.5020  -13.9400 C.3   166  ASP166      0.1674
     52  C        -19.9860  -25.4350  -13.9520 C.2   166  ASP166      0.2266
     53  O        -19.6130  -25.9990  -14.9700 O.2   166  ASP166     -0.2867
     54  CB       -22.4690  -25.2630  -13.5490 C.3   166  ASP166      0.1410
     55  CG       -22.6730  -25.4890  -12.0680 C.2   166  ASP166      0.3668
     56  OD1      -21.8610  -24.9430  -11.2720 O.co2 166  ASP166     -0.2456
     57  OD2      -23.6720  -26.1740  -11.6980 O.co2 166  ASP166     -0.2456
     58  N        -18.6290  -20.4410  -13.2820 N.3   194  ASN194     -0.1240
     59  CA       -18.5150  -20.8680  -11.8680 C.3   194  ASN194      0.1653
     60  C        -17.2660  -21.7440  -11.6920 C.2   194  ASN194      0.2266
     61  O        -17.3440  -22.9870  -11.8660 O.2   194  ASN194     -0.2867
     62  CB       -19.7140  -21.6980  -11.4000 C.3   194  ASN194      0.1155
     63  CG       -19.8160  -21.8450   -9.9020 C.2   194  ASN194      0.2627
     64  OD1      -19.1090  -21.1700   -9.1530 O.2   194  ASN194     -0.2716
     65  ND2      -20.6950  -22.7390   -9.4640 N.am  194  ASN194     -0.0877
     66  N        -23.0510  -17.3840   -7.3930 N.3   241  HIS241     -0.1241
     67  CA       -23.4180  -18.4200   -6.5090 C.3   241  HIS241      0.1621
     68  C        -23.2690  -17.9730   -5.0620 C.2   241  HIS241      0.2264
     69  O        -22.2790  -17.3820   -4.7260 O.2   241  HIS241     -0.2867
     70  CB       -22.4850  -19.6330   -6.7720 C.3   241  HIS241      0.0745
     71  CG       -22.9470  -20.9630   -6.2970 C.ar  241  HIS241      0.0817
     72  ND1      -22.9410  -21.3000   -4.9500 N.ar  241  HIS241     -0.2268
     73  CD2      -23.3660  -22.0410   -6.9670 C.ar  241  HIS241      0.1154
     74  CE1      -23.3240  -22.5600   -4.8140 C.ar  241  HIS241      0.1986
     75  NE2      -23.6200  -23.0290   -6.0520 N.ar  241  HIS241     -0.2212
     76  N        -26.8280  -14.7630   -7.8500 N.3   283  TRP283     -0.1241
     77  CA       -27.8380  -15.8000   -8.1530 C.3   283  TRP283      0.1605
     78  C        -28.3100  -16.3600   -6.8090 C.2   283  TRP283      0.2264
     79  O        -27.5380  -17.0420   -6.1010 O.2   283  TRP283     -0.2867
     80  CB       -27.2820  -16.9050   -9.0320 C.3   283  TRP283      0.0550
     81  CG       -28.3330  -17.6990   -9.7770 C.ar  283  TRP283      0.0003
     82  CD1      -29.6830  -17.4670   -9.8400 C.ar  283  TRP283      0.0946
     83  CD2      -28.1020  -18.8940  -10.5610 C.ar  283  TRP283      0.0152
     84  NE1      -30.2740  -18.3980  -10.6510 N.ar  283  TRP283     -0.2442
     85  CE2      -29.3500  -19.3260  -11.0600 C.ar  283  TRP283      0.0810
     86  CE3      -26.9430  -19.6180  -10.8840 C.ar  283  TRP283      0.0012
     87  CZ2      -29.4550  -20.4380  -11.8980 C.ar  283  TRP283      0.0191
     88  CZ3      -27.0530  -20.7410  -11.6710 C.ar  283  TRP283      0.0001
     89  CH2      -28.2920  -21.1230  -12.1920 C.ar  283  TRP283      0.0015
     90  N        -31.1960  -25.1860   -4.9190 N.3   290  TRP290     -0.1227
     91  CA       -31.0870  -24.4630   -6.2050 C.3   290  TRP290      0.1737
     92  C        -32.3080  -24.7840   -7.0500 C.2   290  TRP290      0.2596
     93  O        -32.9150  -23.8750   -7.6310 O.2   290  TRP290     -0.2718
     94  CB       -29.8030  -24.8250   -6.9310 C.3   290  TRP290      0.0564
     95  CG       -28.6190  -24.1710   -6.3150 C.ar  290  TRP290      0.0003
     96  CD1      -27.7930  -24.6780   -5.3550 C.ar  290  TRP290      0.0946
     97  CD2      -28.2470  -22.8000   -6.4770 C.ar  290  TRP290      0.0152
     98  NE1      -26.8920  -23.7270   -4.9350 N.ar  290  TRP290     -0.2442
     99  CE2      -27.1330  -22.5710   -5.6370 C.ar  290  TRP290      0.0810
    100  CE3      -28.7190  -21.7680   -7.3010 C.ar  290  TRP290      0.0012
    101  CZ2      -26.5000  -21.3380   -5.5850 C.ar  290  TRP290      0.0191
    102  CZ3      -28.0670  -20.5620   -7.2290 C.ar  290  TRP290      0.0001
    103  CH2      -26.9940  -20.3450   -6.3830 C.ar  290  TRP290      0.0015
    104  N        -32.6300  -26.0810   -7.1860 N.am  291  SER291     -0.1952
    105  CA       -33.6060  -26.5350   -8.1910 C.3   291  SER291      0.1924
    106  C        -34.7880  -27.3160   -7.5920 C.2   291  SER291      0.2314
    107  O        -35.8580  -27.4030   -8.2860 O.2   291  SER291     -0.2863
    108  CB       -32.8910  -27.2330   -9.3350 C.3   291  SER291      0.2116
    109  OG       -32.2550  -28.4160   -8.8870 O.3   291  SER291     -0.2180
@<TRIPOS>BOND
     1    27    26    2
     2    36    37    1
     3    24    25    1
     4    26    25    1
     5    25    28    1
     6    37    38    1
     7    37    40    1
     8    39    38    2
     9    28    29    1
    10     3     4    2
    11     3     2    1
    12    40    41    1
    13    30    29   ar
    14    30    32   ar
    15     2     1    1
    16     2     5    1
    17    29    31   ar
    18    50    51    1
    19    32    34   ar
    20    53    52    2
    21    41    42   ar
    22    41    43   ar
    23     5     6    1
    24    12    18    1
    25    12    13    1
    26    31    33   ar
    27    18    17    1
    28    42    44   ar
    29    34    33   ar
    30    34    35    1
    31    52    51    1
    32    51    54    1
    33     6     7    1
    34    43    46   ar
    35    43    45   ar
    36    46    48   ar
    37    54    55    1
    38    13    14    1
    39    13    16    1
    40    58    59    1
    41    17    16    1
    42    44    45   ar
    43    14    19   am
    44    14    15    2
    45    21    22    2
    46    21    20    1
    47     7     8    1
    48    19    20    1
    49    45    47   ar
    50    48    49   ar
    51    89    87   ar
    52    89    88   ar
    53    55    57   ar
    54    55    56   ar
    55    20    23    1
    56     8     9    2
    57    87    85   ar
    58    59    60    1
    59    59    62    1
    60    61    60    2
    61    88    86   ar
    62    47    49   ar
    63    62    63    1
    64    85    84   ar
    65    85    83   ar
    66     9    10    1
    67     9    11    1
    68    86    83   ar
    69    84    82   ar
    70    83    81   ar
    71    63    65   am
    72    63    64    2
    73    82    81   ar
    74    81    80    1
    75   108   109    1
    76   108   105    1
    77    80    77    1
    78   107   106    2
    79   105   106    1
    80   105   104    1
    81    77    76    1
    82    77    78    1
    83    93    92    2
    84    66    67    1
    85   100   102   ar
    86   100    97   ar
    87   102   103   ar
    88   104    92   am
    89    92    91    1
    90    73    71   ar
    91    73    75   ar
    92    94    95    1
    93    94    91    1
    94    78    79    2
    95    70    67    1
    96    70    71    1
    97    67    68    1
    98    97    95   ar
    99    97    99   ar
   100   103   101   ar
   101    95    96   ar
   102    71    72   ar
   103    91    90    1
   104    75    74   ar
   105    99   101   ar
   106    99    98   ar
   107    96    98   ar
   108    68    69    2
   109    72    74   ar
