@<TRIPOS>MOLECULE
tmp/6m8wA00.pdb
 157 149 0 0 0
SMALL
GASTEIGER

@<TRIPOS>ATOM
      1  N         21.1860   21.2050    6.6350 N.3    34  ILE34      -0.1245
      2  CA        20.1630   20.6860    5.7320 C.3    34  ILE34       0.1561
      3  C         18.8830   21.3980    6.1080 C.2    34  ILE34       0.2260
      4  O         18.3250   21.1700    7.1830 O.2    34  ILE34      -0.2867
      5  CB        20.0210   19.1840    5.8370 C.3    34  ILE34       0.0252
      6  CG1       21.3290   18.3690    5.6420 C.3    34  ILE34       0.0019
      7  CG2       18.9230   18.6870    4.9230 C.3    34  ILE34       0.0019
      8  CD1       21.9460   18.5440    4.2990 C.3    34  ILE34       0.0001
      9  N         16.5400   18.1890   12.9080 N.3    76  GLY76      -0.1225
     10  CA        17.7680   18.7930   12.4860 C.3    76  GLY76       0.1811
     11  C         18.1340   20.0190   13.3250 C.2    76  GLY76       0.2280
     12  O         19.3280   20.3090   13.4900 O.2    76  GLY76      -0.2866
     13  N         20.7280   19.3040   15.7910 N.3    79  GLU79      -0.1231
     14  CA        22.0690   19.2170   15.2250 C.3    79  GLU79       0.1699
     15  C         22.6760   20.5730   14.9530 C.2    79  GLU79       0.2592
     16  O         23.8270   20.8340   15.3040 O.2    79  GLU79      -0.2718
     17  CB        22.0180   18.5740   13.8290 C.3    79  GLU79       0.0402
     18  CG        23.3770   18.4410   13.2060 C.3    79  GLU79       0.1161
     19  CD        24.4100   17.6900   13.9820 C.2    79  GLU79       0.3649
     20  OE1       24.0730   16.6770   14.6440 O.co2  79  GLU79      -0.2457
     21  OE2       25.5080   18.2360   13.6180 O.co2  79  GLU79      -0.2457
     22  N         21.9170   21.5320   14.3590 N.am   80  TRP80      -0.1976
     23  CA        22.4820   22.8380   14.1230 C.3    80  TRP80       0.1640
     24  C         22.7310   23.5830   15.4180 C.2    80  TRP80       0.2290
     25  O         23.6090   24.4590   15.4650 O.2    80  TRP80      -0.2864
     26  CB        21.6480   23.6840   13.0990 C.3    80  TRP80       0.0576
     27  CG        20.9490   22.8090   12.0730 C.ar   80  TRP80       0.0006
     28  CD1       19.6450   22.9400   11.7080 C.ar   80  TRP80       0.0946
     29  CD2       21.4610   21.7100   11.3190 C.ar   80  TRP80       0.0152
     30  NE1       19.3140   21.9840   10.7790 N.ar   80  TRP80      -0.2442
     31  CE2       20.4210   21.2160   10.5190 C.ar   80  TRP80       0.0810
     32  CE3       22.6960   21.0580   11.2120 C.ar   80  TRP80       0.0012
     33  CZ2       20.5780   20.1410    9.6670 C.ar   80  TRP80       0.0191
     34  CZ3       22.8700   19.9950   10.3660 C.ar   80  TRP80       0.0001
     35  CH2       21.8010   19.5370    9.5900 C.ar   80  TRP80       0.0015
     36  N         21.7460   14.5230   -4.0800 N.3   110  ASN110     -0.1240
     37  CA        22.4920   15.2520   -3.0960 C.3   110  ASN110      0.1653
     38  C         22.8850   16.6550   -3.5640 C.2   110  ASN110      0.2266
     39  O         23.7430   17.3130   -2.9850 O.2   110  ASN110     -0.2867
     40  CB        23.7390   14.4650   -2.6940 C.3   110  ASN110      0.1155
     41  CG        23.4360   13.1240   -2.0910 C.2   110  ASN110      0.2627
     42  OD1       23.9950   12.0830   -2.5260 O.2   110  ASN110     -0.2716
     43  ND2       22.6240   13.1400   -1.1060 N.am  110  ASN110     -0.0877
     44  N         22.8910   19.6580   -0.9220 N.3   113  LEU113     -0.1245
     45  CA        24.0790   19.6750   -0.0830 C.3   113  LEU113      0.1561
     46  C         25.3100   20.1390   -0.8660 C.2   113  LEU113      0.2260
     47  O         26.0970   20.9660   -0.4100 O.2   113  LEU113     -0.2867
     48  CB        24.2870   18.2740    0.5120 C.3   113  LEU113      0.0270
     49  CG        25.5380   18.1990    1.3800 C.3   113  LEU113      0.0019
     50  CD1       25.4760   19.1100    2.5760 C.3   113  LEU113      0.0001
     51  CD2       25.7390   16.7220    1.8190 C.3   113  LEU113      0.0001
     52  N         28.9370   18.7580   10.2220 N.3   132  SER132     -0.1202
     53  CA        28.5940   17.6860   11.1470 C.3   132  SER132      0.2020
     54  C         27.6140   16.6990   10.5190 C.2   132  SER132      0.2619
     55  O         26.5030   16.4770   10.9860 O.2   132  SER132     -0.2717
     56  CB        28.0240   18.2330   12.4370 C.3   132  SER132      0.2103
     57  OG        29.0370   18.8400   13.2390 O.3   132  SER132     -0.2182
     58  N         28.0780   16.0880    9.3940 N.am  133  LEU133     -0.1965
     59  CA        27.2140   15.2870    8.5480 C.3   133  LEU133      0.1728
     60  C         28.0520   14.3540    7.7040 C.2   133  LEU133      0.2617
     61  O         29.2410   14.6380    7.4470 O.2   133  LEU133     -0.2715
     62  CB        26.6400   16.2570    7.4580 C.3   133  LEU133      0.0311
     63  CG        25.8500   17.5100    7.7790 C.3   133  LEU133      0.0022
     64  CD1       25.6290   18.4810    6.6230 C.3   133  LEU133      0.0001
     65  CD2       24.4770   17.1350    8.3120 C.3   133  LEU133      0.0001
     66  N         27.4270   13.2910    7.2070 N.am  134  GLY134     -0.1940
     67  CA        28.0980   12.3910    6.3090 C.3   134  GLY134      0.2014
     68  C         27.3370   11.0950    6.1720 C.2   134  GLY134      0.2638
     69  O         26.3150   10.8550    6.8250 O.2   134  GLY134     -0.2714
     70  N         27.8610   10.2570    5.2640 N.am  135  TRP135     -0.1973
     71  CA        27.2390    8.9360    5.0100 C.3   135  TRP135      0.1640
     72  C         28.2460    8.0900    4.2900 C.2   135  TRP135      0.2290
     73  O         29.3680    8.5520    3.9200 O.2   135  TRP135     -0.2864
     74  CB        25.9560    9.0700    4.1950 C.3   135  TRP135      0.0576
     75  CG        26.1230    9.5240    2.7910 C.ar  135  TRP135      0.0006
     76  CD1       26.0660    8.7360    1.6880 C.ar  135  TRP135      0.0946
     77  CD2       26.3570   10.8590    2.2800 C.ar  135  TRP135      0.0152
     78  NE1       26.2660    9.4830    0.5450 N.ar  135  TRP135     -0.2442
     79  CE2       26.4350   10.7840    0.8890 C.ar  135  TRP135      0.0810
     80  CE3       26.5040   12.1260    2.8950 C.ar  135  TRP135      0.0012
     81  CZ2       26.6590   11.8930    0.0840 C.ar  135  TRP135      0.0191
     82  CZ3       26.7210   13.2210    2.1010 C.ar  135  TRP135      0.0001
     83  CH2       26.8010   13.0990    0.7070 C.ar  135  TRP135      0.0015
     84  N         32.9450   15.8260   10.5700 N.3   166  SER166     -0.1217
     85  CA        32.7790   14.7210   11.4820 C.3   166  SER166      0.1889
     86  C         33.0820   13.3660   10.7830 C.2   166  SER166      0.2288
     87  O         32.5950   13.1050    9.6940 O.2   166  SER166     -0.2866
     88  CB        31.3400   14.6990   11.9600 C.3   166  SER166      0.2089
     89  OG        30.9710   15.9270   12.5540 O.3   166  SER166     -0.2183
     90  N         32.0500   10.3200   11.6540 N.3   168  GLY168     -0.1210
     91  CA        30.9400    9.3890   11.7210 C.3   168  GLY168      0.1956
     92  C         30.6850    8.8280   13.1060 C.2   168  GLY168      0.2612
     93  O         31.5400    8.9290   14.0060 O.2   168  GLY168     -0.2717
     94  N         29.5190    8.2520   13.2650 N.am  169  ASP169     -0.1959
     95  CA        28.9910    7.8000   14.5370 C.3   169  ASP169      0.1840
     96  C         28.7380    6.3030   14.5670 C.2   169  ASP169      0.2621
     97  O         28.0960    5.7970   15.5030 O.2   169  ASP169     -0.2715
     98  CB        27.6960    8.5400   14.8440 C.3   169  ASP169      0.1450
     99  CG        27.8570   10.0190   15.1440 C.2   169  ASP169      0.3671
    100  OD1       29.0040   10.5070   15.2450 O.co2 169  ASP169     -0.2456
    101  OD2       26.7900   10.6820   15.2790 O.co2 169  ASP169     -0.2456
    102  N         29.2460    5.5930   13.5740 N.am  170  GLU170     -0.1977
    103  CA        28.9110    4.1820   13.3100 C.3   170  GLU170      0.1602
    104  C         30.1420    3.3060   13.5300 C.2   170  GLU170      0.2287
    105  O         30.1660    2.1330   13.0760 O.2   170  GLU170     -0.2864
    106  CB        28.4510    4.0470   11.8620 C.3   170  GLU170      0.0415
    107  CG        27.0870    4.6620   11.5840 C.3   170  GLU170      0.1163
    108  CD        26.9480    6.1330   11.8570 C.2   170  GLU170      0.3649
    109  OE1       27.6740    6.9650   11.2360 O.co2 170  GLU170     -0.2457
    110  OE2       26.1730    6.4760   12.7890 O.co2 170  GLU170     -0.2457
    111  N         30.1370    2.1010    8.9410 N.3   174  GLU174     -0.1245
    112  CA        29.3820    3.1670    8.2830 C.3   174  GLU174      0.1567
    113  C         28.4740    2.6820    7.1740 C.2   174  GLU174      0.2260
    114  O         27.3430    3.1470    7.0430 O.2   174  GLU174     -0.2867
    115  CB        30.3580    4.2560    7.8100 C.3   174  GLU174      0.0388
    116  CG        29.6550    5.4820    7.2430 C.3   174  GLU174      0.1160
    117  CD        28.7480    6.1580    8.2550 C.2   174  GLU174      0.3649
    118  OE1       29.1990    6.2150    9.4500 O.co2 174  GLU174     -0.2457
    119  OE2       27.6240    6.5600    7.9380 O.co2 174  GLU174     -0.2457
    120  N         24.3250    2.0750    7.9670 N.3   178  ARG178     -0.1245
    121  CA        24.6440    3.1410    8.9000 C.3   178  ARG178      0.1563
    122  C         24.7400    2.5960   10.3150 C.2   178  ARG178      0.2260
    123  O         24.0610    3.0270   11.2550 O.2   178  ARG178     -0.2867
    124  CB        23.6570    4.3170    8.7470 C.3   178  ARG178      0.0307
    125  CG        24.1500    5.6140    9.3590 C.3   178  ARG178      0.0489
    126  CD        23.1150    6.7380    9.1410 C.3   178  ARG178      0.2205
    127  NE        23.5720    8.0280    9.6390 N.pl3 178  ARG178     -0.0865
    128  CZ        24.2610    8.9360    8.9080 C.cat 178  ARG178      0.5346
    129  NH1       24.5700    8.7520    7.6500 N.pl3 178  ARG178      0.1354
    130  NH2       24.6010   10.0640    9.5250 N.pl3 178  ARG178      0.1354
    131  N         33.1220    7.2270    6.1670 N.3   189  SER189     -0.1217
    132  CA        32.1740    8.2520    5.7390 C.3   189  SER189      0.1889
    133  C         32.7750    9.2550    4.7590 C.2   189  SER189      0.2288
    134  O         33.9570    9.6240    4.8010 O.2   189  SER189     -0.2866
    135  CB        31.8540    9.0760    6.9960 C.3   189  SER189      0.2089
    136  OG        31.2730    8.2810    8.0200 O.3   189  SER189     -0.2183
    137  N         26.0520   14.0970   22.1160 N.3   283  GLY283     -0.1210
    138  CA        27.3770   13.8050   21.6060 C.3   283  GLY283      0.1956
    139  C         27.3860   13.5540   20.1060 C.2   283  GLY283      0.2612
    140  O         26.6440   14.1940   19.3650 O.2   283  GLY283     -0.2717
    141  N         28.2760   12.6840   19.7000 N.am  284  GLY284     -0.1942
    142  CA        28.5810   12.3890   18.3150 C.3   284  GLY284      0.2014
    143  C         29.8540   13.0330   17.8580 C.2   284  GLY284      0.2640
    144  O         30.3550   13.9890   18.4560 O.2   284  GLY284     -0.2714
    145  N         30.3830   12.5440   16.7350 N.am  285  THR285     -0.1936
    146  CA        31.4480   13.2920   16.0560 C.3   285  THR285      0.2028
    147  C         30.9070   14.6200   15.5300 C.2   285  THR285      0.2642
    148  O         31.7230   15.5160   15.2050 O.2   285  THR285     -0.2714
    149  CB        32.1480   12.4730   14.9720 C.3   285  THR285      0.1808
    150  OG1       31.2030   12.0020   14.0310 O.3   285  THR285     -0.2208
    151  CG2       32.9420   11.3270   15.5880 C.3   285  THR285      0.0379
    152  N         29.5930   14.7820   15.5000 N.am  286  SER286     -0.1949
    153  CA        28.9470   16.0740   15.2640 C.3   286  SER286      0.1924
    154  C         29.2080   17.1020   16.3620 C.2   286  SER286      0.2314
    155  O         28.9470   18.2920   16.0840 O.2   286  SER286     -0.2863
    156  CB        27.4380   15.9610   15.1900 C.3   286  SER286      0.2116
    157  OG        27.1940   15.1770   13.9820 O.3   286  SER286     -0.2180
@<TRIPOS>BOND
     1    36    37    1
     2    38    37    1
     3    38    39    2
     4    37    40    1
     5    40    41    1
     6    42    41    2
     7    41    43   am
     8    44    45    1
     9    46    47    2
    10    46    45    1
    11    45    48    1
    12    81    83   ar
    13    81    79   ar
    14    48    49    1
    15    78    79   ar
    16    78    76   ar
    17    83    82   ar
    18    79    77   ar
    19    49    51    1
    20    49    50    1
    21    76    75   ar
    22    82    80   ar
    23    77    75   ar
    24    77    80   ar
    25    75    74    1
    26    73    72    2
    27    74    71    1
    28    72    71    1
    29     8     6    1
    30   133   134    2
    31   133   132    1
    32     7     5    1
    33    71    70    1
    34    70    68   am
    35     6     5    1
    36     2     5    1
    37     2     3    1
    38     2     1    1
    39   132   131    1
    40   132   135    1
    41     3     4    2
    42    68    67    1
    43    68    69    2
    44    67    66    1
    45    64    63    1
    46   135   136    1
    47   114   113    2
    48   113   112    1
    49    66    60   am
    50   116   115    1
    51   116   117    1
    52    61    60    2
    53    62    63    1
    54    62    59    1
    55   129   128    1
    56    60    59    1
    57    63    65    1
    58   115   112    1
    59   119   117   ar
    60   120   121    1
    61   117   118   ar
    62   112   111    1
    63    59    58    1
    64   124   121    1
    65   124   125    1
    66   121   122    1
    67   128   130    1
    68   128   127    2
    69   126   125    1
    70   126   127    1
    71    58    54   am
    72    35    33   ar
    73    35    34   ar
    74    33    31   ar
    75    87    86    2
    76    52    53    1
    77   122   123    2
    78    34    32   ar
    79    31    30   ar
    80    31    29   ar
    81    54    55    2
    82    54    53    1
    83    84    85    1
    84    30    28   ar
    85    86    85    1
    86    53    56    1
    87    32    29   ar
    88   109   108   ar
    89    29    27   ar
    90    85    88    1
    91   107   108    1
    92   107   106    1
    93    90    91    1
    94    28    27   ar
    95    91    92    1
    96   108   110   ar
    97   106   103    1
    98    88    89    1
    99    27    26    1
   100    56    57    1
   101    10     9    1
   102    10    11    1
   103   105   104    2
   104    26    23    1
   105    92    94   am
   106    92    93    2
   107    18    17    1
   108    18    19    1
   109    94    95    1
   110   103   104    1
   111   103   102    1
   112    11    12    2
   113   102    96   am
   114    21    19   ar
   115    17    14    1
   116   157   156    1
   117    19    20   ar
   118   150   149    1
   119    23    22    1
   120    23    24    1
   121    22    15   am
   122    95    96    1
   123    95    98    1
   124    96    97    2
   125    98    99    1
   126    15    14    1
   127    15    16    2
   128   149   151    1
   129   149   146    1
   130    99   100   ar
   131    99   101   ar
   132   156   153    1
   133   148   147    2
   134    14    13    1
   135   153   152    1
   136   153   154    1
   137    24    25    2
   138   152   147   am
   139   147   146    1
   140   146   145    1
   141   155   154    2
   142   145   143   am
   143   143   142    1
   144   143   144    2
   145   142   141    1
   146   140   139    2
   147   141   139   am
   148   139   138    1
   149   138   137    1
