@<TRIPOS>MOLECULE
tmp/6m8yA00.pdb
 157 149 0 0 0
SMALL
GASTEIGER

@<TRIPOS>ATOM
      1  N         21.1210   21.1700    6.6710 N.3    34  ILE34      -0.1245
      2  CA        20.1290   20.6090    5.7890 C.3    34  ILE34       0.1561
      3  C         18.8350   21.3140    6.1580 C.2    34  ILE34       0.2260
      4  O         18.2780   21.0720    7.2310 O.2    34  ILE34      -0.2867
      5  CB        20.0620   19.1110    5.8620 C.3    34  ILE34       0.0252
      6  CG1       21.4220   18.4210    5.5370 C.3    34  ILE34       0.0019
      7  CG2       18.9600   18.5650    4.9580 C.3    34  ILE34       0.0019
      8  CD1       21.4750   16.9410    5.7660 C.3    34  ILE34       0.0001
      9  N         16.5330   18.0890   12.9240 N.3    76  GLY76      -0.1225
     10  CA        17.7450   18.7240   12.5010 C.3    76  GLY76       0.1811
     11  C         18.1000   19.9240   13.3350 C.2    76  GLY76       0.2280
     12  O         19.2950   20.1940   13.5240 O.2    76  GLY76      -0.2866
     13  N         20.6960   19.2550   15.8840 N.3    79  GLU79      -0.1231
     14  CA        22.0200   19.1140   15.3380 C.3    79  GLU79       0.1699
     15  C         22.6280   20.4990   15.0100 C.2    79  GLU79       0.2592
     16  O         23.7880   20.7570   15.3420 O.2    79  GLU79      -0.2718
     17  CB        21.9790   18.1520   14.1950 C.3    79  GLU79       0.0402
     18  CG        21.6860   16.7000   14.7890 C.3    79  GLU79       0.1161
     19  CD        22.9350   16.1020   15.4590 C.2    79  GLU79       0.3649
     20  OE1       24.0660   16.3910   14.9390 O.co2  79  GLU79      -0.2457
     21  OE2       22.7210   15.2820   16.4390 O.co2  79  GLU79      -0.2457
     22  N         21.8840   21.4170   14.4060 N.am   80  TRP80      -0.1976
     23  CA        22.4260   22.7320   14.1470 C.3    80  TRP80       0.1640
     24  C         22.6970   23.5110   15.4530 C.2    80  TRP80       0.2290
     25  O         23.5720   24.3680   15.4960 O.2    80  TRP80      -0.2864
     26  CB        21.5890   23.5890   13.1340 C.3    80  TRP80       0.0576
     27  CG        20.9080   22.7110   12.1060 C.ar   80  TRP80       0.0006
     28  CD1       19.6030   22.8260   11.7530 C.ar   80  TRP80       0.0946
     29  CD2       21.4180   21.6240   11.3350 C.ar   80  TRP80       0.0152
     30  NE1       19.2700   21.8870   10.8220 N.ar   80  TRP80      -0.2442
     31  CE2       20.3670   21.1190   10.5330 C.ar   80  TRP80       0.0810
     32  CE3       22.6790   20.9880   11.2280 C.ar   80  TRP80       0.0012
     33  CZ2       20.5270   20.0630    9.6730 C.ar   80  TRP80       0.0191
     34  CZ3       22.8470   19.9190   10.3510 C.ar   80  TRP80       0.0001
     35  CH2       21.7600   19.4770    9.5910 C.ar   80  TRP80       0.0015
     36  N         21.7690   14.4120   -4.1470 N.3   110  ASN110     -0.1240
     37  CA        22.4820   15.1060   -3.1600 C.3   110  ASN110      0.1653
     38  C         22.8640   16.5130   -3.5780 C.2   110  ASN110      0.2266
     39  O         23.7450   17.1770   -2.9950 O.2   110  ASN110     -0.2867
     40  CB        23.7710   14.3450   -2.7640 C.3   110  ASN110      0.1155
     41  CG        23.4950   12.9730   -2.2060 C.2   110  ASN110      0.2627
     42  OD1       24.0930   11.9710   -2.6920 O.2   110  ASN110     -0.2716
     43  ND2       22.6530   12.9310   -1.2130 N.am  110  ASN110     -0.0877
     44  N         22.9210   19.5160   -0.8570 N.3   113  LEU113     -0.1245
     45  CA        24.1470   19.5780   -0.0680 C.3   113  LEU113      0.1561
     46  C         25.3490   20.0350   -0.8940 C.2   113  LEU113      0.2260
     47  O         26.1420   20.8510   -0.4310 O.2   113  LEU113     -0.2867
     48  CB        24.3120   18.1710    0.4920 C.3   113  LEU113      0.0270
     49  CG        25.5110   18.1140    1.4150 C.3   113  LEU113      0.0019
     50  CD1       25.3920   19.0530    2.6080 C.3   113  LEU113      0.0001
     51  CD2       25.6780   16.6610    1.9100 C.3   113  LEU113      0.0001
     52  N         28.9020   18.7260   10.2320 N.3   132  SER132     -0.1202
     53  CA        28.5780   17.6660   11.1840 C.3   132  SER132      0.2020
     54  C         27.5710   16.7020   10.5960 C.2   132  SER132      0.2619
     55  O         26.4690   16.5140   11.0970 O.2   132  SER132     -0.2717
     56  CB        28.0620   18.2480   12.4890 C.3   132  SER132      0.2103
     57  OG        29.0930   18.8190   13.2690 O.3   132  SER132     -0.2182
     58  N         27.9860   16.0460    9.4960 N.am  133  LEU133     -0.1965
     59  CA        27.1000   15.2010    8.7200 C.3   133  LEU133      0.1728
     60  C         27.9460   14.3590    7.7710 C.2   133  LEU133      0.2617
     61  O         29.0820   14.7080    7.4680 O.2   133  LEU133     -0.2715
     62  CB        26.0070   16.0000    8.0450 C.3   133  LEU133      0.0311
     63  CG        26.4240   17.0850    7.1000 C.3   133  LEU133      0.0022
     64  CD1       26.7540   16.5750    5.7140 C.3   133  LEU133      0.0001
     65  CD2       25.3320   18.1770    6.9280 C.3   133  LEU133      0.0001
     66  N         27.3110   13.3000    7.2430 N.am  134  GLY134     -0.1940
     67  CA        27.9850   12.4560    6.2840 C.3   134  GLY134      0.2014
     68  C         27.1980   11.1760    6.0530 C.2   134  GLY134      0.2638
     69  O         26.1090   10.9610    6.5910 O.2   134  GLY134     -0.2714
     70  N         27.7720   10.3330    5.2050 N.am  135  TRP135     -0.1973
     71  CA        27.1730    9.0620    4.8800 C.3   135  TRP135      0.1640
     72  C         28.2250    8.1940    4.2180 C.2   135  TRP135      0.2290
     73  O         29.3420    8.6040    3.9230 O.2   135  TRP135     -0.2864
     74  CB        25.9660    9.2050    4.0000 C.3   135  TRP135      0.0576
     75  CG        26.0980    9.6720    2.6010 C.ar  135  TRP135      0.0006
     76  CD1       25.8550    8.8700    1.5260 C.ar  135  TRP135      0.0946
     77  CD2       26.4300   10.9640    2.0670 C.ar  135  TRP135      0.0152
     78  NE1       26.0450    9.5830    0.3620 N.ar  135  TRP135     -0.2442
     79  CE2       26.3900   10.8750    0.6630 C.ar  135  TRP135      0.0810
     80  CE3       26.7760   12.1700    2.6340 C.ar  135  TRP135      0.0012
     81  CZ2       26.6630   11.9490   -0.1690 C.ar  135  TRP135      0.0191
     82  CZ3       27.0520   13.2470    1.8000 C.ar  135  TRP135      0.0001
     83  CH2       26.9930   13.1250    0.4190 C.ar  135  TRP135      0.0015
     84  N         32.9050   15.8260   10.6030 N.3   166  SER166     -0.1217
     85  CA        32.7370   14.7080   11.5160 C.3   166  SER166      0.1889
     86  C         33.0240   13.3700   10.8240 C.2   166  SER166      0.2288
     87  O         32.5440   13.1070    9.7360 O.2   166  SER166     -0.2866
     88  CB        31.3010   14.6920   11.9760 C.3   166  SER166      0.2089
     89  OG        30.9170   15.9190   12.5870 O.3   166  SER166     -0.2183
     90  N         32.0240   10.3100   11.6660 N.3   168  GLY168     -0.1210
     91  CA        30.9350    9.3640   11.7160 C.3   168  GLY168      0.1956
     92  C         30.6720    8.8130   13.0950 C.2   168  GLY168      0.2612
     93  O         31.5210    8.9080   13.9960 O.2   168  GLY168     -0.2717
     94  N         29.4860    8.2320   13.2410 N.am  169  ASP169     -0.1959
     95  CA        28.9510    7.7900   14.5480 C.3   169  ASP169      0.1840
     96  C         28.7390    6.2820   14.5800 C.2   169  ASP169      0.2621
     97  O         28.0860    5.7810   15.5250 O.2   169  ASP169     -0.2715
     98  CB        27.6710    8.5370   14.8620 C.3   169  ASP169      0.1450
     99  CG        27.8560   10.0040   15.1760 C.2   169  ASP169      0.3671
    100  OD1       28.9750   10.5010   15.2690 O.co2 169  ASP169     -0.2456
    101  OD2       26.7690   10.6530   15.3240 O.co2 169  ASP169     -0.2456
    102  N         29.2160    5.5580   13.5660 N.am  170  GLU170     -0.1977
    103  CA        28.8830    4.1630   13.3240 C.3   170  GLU170      0.1602
    104  C         30.1240    3.2850   13.4980 C.2   170  GLU170      0.2287
    105  O         30.1400    2.1210   13.0630 O.2   170  GLU170     -0.2864
    106  CB        28.3780    4.0230   11.8900 C.3   170  GLU170      0.0415
    107  CG        27.0730    4.6750   11.5490 C.3   170  GLU170      0.1163
    108  CD        26.9240    6.1480   11.8610 C.2   170  GLU170      0.3649
    109  OE1       27.6190    7.0170   11.2270 O.co2 170  GLU170     -0.2457
    110  OE2       26.1590    6.4700   12.8070 O.co2 170  GLU170     -0.2457
    111  N         30.1150    2.1050    8.9350 N.3   174  GLU174     -0.1245
    112  CA        29.3570    3.1820    8.2830 C.3   174  GLU174      0.1567
    113  C         28.4440    2.7040    7.1720 C.2   174  GLU174      0.2260
    114  O         27.3050    3.1560    7.0650 O.2   174  GLU174     -0.2867
    115  CB        30.3350    4.2600    7.7980 C.3   174  GLU174      0.0388
    116  CG        29.6200    5.4790    7.2070 C.3   174  GLU174      0.1160
    117  CD        28.7310    6.1740    8.2210 C.2   174  GLU174      0.3649
    118  OE1       29.1430    6.2320    9.4010 O.co2 174  GLU174     -0.2457
    119  OE2       27.5940    6.6010    7.8990 O.co2 174  GLU174     -0.2457
    120  N         24.2810    2.0530    8.0320 N.3   178  ARG178     -0.1245
    121  CA        24.5930    3.1120    8.9750 C.3   178  ARG178      0.1563
    122  C         24.7100    2.5150   10.3680 C.2   178  ARG178      0.2260
    123  O         24.0410    2.9020   11.3480 O.2   178  ARG178     -0.2867
    124  CB        23.5830    4.2770    8.8530 C.3   178  ARG178      0.0307
    125  CG        24.0820    5.5600    9.5120 C.3   178  ARG178      0.0489
    126  CD        23.0490    6.6960    9.3210 C.3   178  ARG178      0.2205
    127  NE        23.5050    7.9800    9.8080 N.pl3 178  ARG178     -0.0865
    128  CZ        24.2680    8.8860    9.1950 C.cat 178  ARG178      0.5346
    129  NH1       24.7620    8.7630    7.9360 N.pl3 178  ARG178      0.1354
    130  NH2       24.5180   10.0070    9.9130 N.pl3 178  ARG178      0.1354
    131  N         33.0640    7.2090    6.1800 N.3   189  SER189     -0.1217
    132  CA        32.1230    8.2520    5.7540 C.3   189  SER189      0.1889
    133  C         32.7250    9.2750    4.8020 C.2   189  SER189      0.2288
    134  O         33.9070    9.6250    4.8570 O.2   189  SER189     -0.2866
    135  CB        31.4930    8.8800    7.0030 C.3   189  SER189      0.2089
    136  OG        32.4260    9.7920    7.5070 O.3   189  SER189     -0.2183
    137  N         26.0570   14.0470   22.1780 N.3   283  GLY283     -0.1210
    138  CA        27.3850   13.7580   21.6700 C.3   283  GLY283      0.1956
    139  C         27.4000   13.5400   20.1690 C.2   283  GLY283      0.2612
    140  O         26.6710   14.1910   19.4280 O.2   283  GLY283     -0.2717
    141  N         28.2730   12.6560   19.7510 N.am  284  GLY284     -0.1942
    142  CA        28.5630   12.3560   18.3780 C.3   284  GLY284      0.2014
    143  C         29.8110   12.9920   17.8980 C.2   284  GLY284      0.2640
    144  O         30.3270   13.9720   18.4740 O.2   284  GLY284     -0.2714
    145  N         30.3500   12.5290   16.7680 N.am  285  THR285     -0.1936
    146  CA        31.4070   13.2700   16.0940 C.3   285  THR285      0.2028
    147  C         30.8750   14.6090   15.5670 C.2   285  THR285      0.2642
    148  O         31.6700   15.5010   15.2300 O.2   285  THR285     -0.2714
    149  CB        32.1100   12.4730   14.9890 C.3   285  THR285      0.1808
    150  OG1       31.1670   11.9950   14.0540 O.3   285  THR285     -0.2208
    151  CG2       32.9140   11.3230   15.6200 C.3   285  THR285      0.0379
    152  N         29.5420   14.7690   15.5590 N.am  286  SER286     -0.1949
    153  CA        28.8900   16.0550   15.3150 C.3   286  SER286      0.1924
    154  C         29.1960   17.0830   16.3980 C.2   286  SER286      0.2314
    155  O         28.9470   18.2790   16.1120 O.2   286  SER286     -0.2863
    156  CB        27.3960   15.8880   15.2130 C.3   286  SER286      0.2116
    157  OG        27.1210   15.0760   14.0650 O.3   286  SER286     -0.2180
@<TRIPOS>BOND
     1    36    37    1
     2    38    37    1
     3    38    39    2
     4    37    40    1
     5    40    41    1
     6    42    41    2
     7    41    43   am
     8    46    47    2
     9    46    45    1
    10    44    45    1
    11    81    83   ar
    12    81    79   ar
    13    45    48    1
    14    78    79   ar
    15    78    76   ar
    16    83    82   ar
    17    48    49    1
    18    79    77   ar
    19    49    51    1
    20    49    50    1
    21    76    75   ar
    22    82    80   ar
    23    77    75   ar
    24    77    80   ar
    25    75    74    1
    26    73    72    2
    27    74    71    1
    28    72    71    1
    29   133   134    2
    30   133   132    1
    31    71    70    1
    32     7     5    1
    33    70    68   am
    34     6     8    1
    35     6     5    1
    36    64    63    1
    37   132   131    1
    38   132   135    1
    39     2     5    1
    40     2     3    1
    41     2     1    1
    42    68    67    1
    43    68    69    2
    44     3     4    2
    45    67    66    1
    46    65    63    1
    47   135   136    1
    48   114   113    2
    49    63    62    1
    50   113   112    1
    51   116   115    1
    52   116   117    1
    53    66    60   am
    54    61    60    2
    55    60    59    1
    56   115   112    1
    57   119   117   ar
    58   129   128    1
    59   120   121    1
    60    62    59    1
    61   117   118   ar
    62   112   111    1
    63    59    58    1
    64   124   121    1
    65   124   125    1
    66   121   122    1
    67   128   127    2
    68   128   130    1
    69   126   125    1
    70   126   127    1
    71    58    54   am
    72    35    33   ar
    73    35    34   ar
    74    33    31   ar
    75    87    86    2
    76    52    53    1
    77    34    32   ar
    78   122   123    2
    79    31    30   ar
    80    31    29   ar
    81    54    55    2
    82    54    53    1
    83    84    85    1
    84    30    28   ar
    85    86    85    1
    86    53    56    1
    87   109   108   ar
    88    32    29   ar
    89    29    27   ar
    90    85    88    1
    91   107   108    1
    92   107   106    1
    93    90    91    1
    94    91    92    1
    95    28    27   ar
    96   108   110   ar
    97   106   103    1
    98    88    89    1
    99    27    26    1
   100    56    57    1
   101    10     9    1
   102    10    11    1
   103   105   104    2
   104    92    94   am
   105    92    93    2
   106    26    23    1
   107    94    95    1
   108   103   104    1
   109   103   102    1
   110    11    12    2
   111   102    96   am
   112   150   149    1
   113   157   156    1
   114    23    22    1
   115    23    24    1
   116    17    18    1
   117    17    14    1
   118    22    15   am
   119    95    96    1
   120    95    98    1
   121    96    97    2
   122    18    19    1
   123    98    99    1
   124    20    19   ar
   125   149   151    1
   126   149   146    1
   127    15    14    1
   128    15    16    2
   129    99   100   ar
   130    99   101   ar
   131   156   153    1
   132   148   147    2
   133   153   152    1
   134   153   154    1
   135    14    13    1
   136    24    25    2
   137    19    21   ar
   138   152   147   am
   139   147   146    1
   140   146   145    1
   141   155   154    2
   142   145   143   am
   143   143   142    1
   144   143   144    2
   145   142   141    1
   146   140   139    2
   147   141   139   am
   148   139   138    1
   149   138   137    1
