@<TRIPOS>MOLECULE
tmp/6m9aC00.pdb
 226 215 0 0 0
SMALL
GASTEIGER

@<TRIPOS>ATOM
      1  N         24.7300  -21.0290   -3.9280 N.3    40  PHE40      -0.1227
      2  CA        23.8560  -21.9380   -3.1960 C.3    40  PHE40       0.1736
      3  C         23.8370  -23.3280   -3.8330 C.2    40  PHE40       0.2595
      4  O         24.0240  -24.3370   -3.1470 O.2    40  PHE40      -0.2718
      5  CB        22.4490  -21.3350   -3.1230 C.3    40  PHE40       0.0547
      6  CG        21.4920  -22.1230   -2.2850 C.ar   40  PHE40      -0.0202
      7  CD1       21.2670  -21.7770   -0.9530 C.ar   40  PHE40      -0.0042
      8  CD2       20.8060  -23.2060   -2.8270 C.ar   40  PHE40      -0.0042
      9  CE1       20.3580  -22.4940   -0.1760 C.ar   40  PHE40      -0.0003
     10  CE2       19.9110  -23.9360   -2.0530 C.ar   40  PHE40      -0.0003
     11  CZ        19.6920  -23.5850   -0.7230 C.ar   40  PHE40      -0.0000
     12  N         23.6270  -23.4060   -5.1490 N.am   41  TYR41      -0.1976
     13  CA        23.4610  -24.7150   -5.7700 C.3    41  TYR41       0.1639
     14  C         24.7780  -25.4120   -6.0740 C.2    41  TYR41       0.2290
     15  O         24.7900  -26.6400   -6.2100 O.2    41  TYR41      -0.2864
     16  CB        22.5940  -24.5990   -7.0290 C.3    41  TYR41       0.0560
     17  CG        21.1910  -24.2650   -6.6150 C.ar   41  TYR41      -0.0198
     18  CD1       20.3720  -25.2320   -6.0360 C.ar   41  TYR41      -0.0009
     19  CD2       20.7080  -22.9710   -6.7210 C.ar   41  TYR41      -0.0009
     20  CE1       19.0910  -24.9200   -5.6080 C.ar   41  TYR41       0.0417
     21  CE2       19.4330  -22.6540   -6.3040 C.ar   41  TYR41       0.0417
     22  CZ        18.6330  -23.6270   -5.7380 C.ar   41  TYR41       0.1957
     23  OH        17.3710  -23.3010   -5.3130 O.3    41  TYR41      -0.2866
     24  N         25.1730  -27.2830   -2.6730 N.3    44  MET44      -0.1245
     25  CA        24.2890  -28.4480   -2.5990 C.3    44  MET44       0.1570
     26  C         24.7330  -29.5470   -3.5610 C.2    44  MET44       0.2261
     27  O         24.8090  -30.7230   -3.1850 O.2    44  MET44      -0.2867
     28  CB        22.8400  -28.0440   -2.8920 C.3    44  MET44       0.0387
     29  CG        22.2170  -27.1100   -1.8550 C.3    44  MET44       0.0595
     30  SD        22.1450  -27.8410   -0.2050 S.3    44  MET44      -0.1393
     31  CE        22.0270  -26.3760    0.7860 C.3    44  MET44       0.0692
     32  N         22.6310  -34.0870   -0.6050 N.3    50  ALA50      -0.1245
     33  CA        21.7500  -33.0890   -1.1890 C.3    50  ALA50       0.1562
     34  C         21.6400  -33.2300   -2.7020 C.2    50  ALA50       0.2260
     35  O         20.6110  -32.8640   -3.2770 O.2    50  ALA50      -0.2867
     36  CB        22.2330  -31.6820   -0.8240 C.3    50  ALA50       0.0290
     37  N         18.5390  -34.9950   -4.1450 N.3    53  PHE53      -0.1227
     38  CA        17.2930  -34.2750   -4.3740 C.3    53  PHE53       0.1736
     39  C         17.3130  -33.3780   -5.6080 C.2    53  PHE53       0.2595
     40  O         16.2800  -32.7900   -5.9410 O.2    53  PHE53      -0.2718
     41  CB        16.9430  -33.4270   -3.1420 C.3    53  PHE53       0.0547
     42  CG        16.7530  -34.2350   -1.8970 C.ar   53  PHE53      -0.0202
     43  CD1       15.5390  -34.8520   -1.6330 C.ar   53  PHE53      -0.0042
     44  CD2       17.7970  -34.4100   -1.0070 C.ar   53  PHE53      -0.0042
     45  CE1       15.3670  -35.6180   -0.4840 C.ar   53  PHE53      -0.0003
     46  CE2       17.6360  -35.1750    0.1290 C.ar   53  PHE53      -0.0003
     47  CZ        16.4160  -35.7830    0.3900 C.ar   53  PHE53      -0.0000
     48  N         18.4440  -33.2520   -6.2890 N.am   54  LEU54      -0.1980
     49  CA        18.6010  -32.2520   -7.3270 C.3    54  LEU54       0.1596
     50  C         18.9600  -32.8970   -8.6540 C.2    54  LEU54       0.2287
     51  O         19.5610  -33.9760   -8.7090 O.2    54  LEU54      -0.2864
     52  CB        19.6800  -31.2180   -6.9550 C.3    54  LEU54       0.0297
     53  CG        19.3340  -30.3540   -5.7410 C.3    54  LEU54       0.0022
     54  CD1       20.4300  -29.3420   -5.4570 C.3    54  LEU54       0.0001
     55  CD2       17.9910  -29.6590   -5.9400 C.3    54  LEU54       0.0001
     56  N         16.7110  -29.4230  -13.1700 N.3    58  LEU58      -0.1245
     57  CA        15.8190  -28.7850  -12.2110 C.3    58  LEU58       0.1561
     58  C         16.4030  -27.4750  -11.6950 C.2    58  LEU58       0.2260
     59  O         15.6900  -26.4700  -11.5970 O.2    58  LEU58      -0.2867
     60  CB        15.5210  -29.7470  -11.0570 C.3    58  LEU58       0.0270
     61  CG        14.4760  -29.2540  -10.0510 C.3    58  LEU58       0.0019
     62  CD1       13.1170  -29.0710  -10.7310 C.3    58  LEU58       0.0001
     63  CD2       14.3730  -30.1820   -8.8460 C.3    58  LEU58       0.0001
     64  N         14.5090  -24.0590  -13.0640 N.3    62  LYS62      -0.1231
     65  CA        13.5490  -23.6930  -12.0320 C.3    62  LYS62       0.1693
     66  C         14.2130  -23.0590  -10.8090 C.2    62  LYS62       0.2591
     67  O         14.0310  -21.8630  -10.5640 O.2    62  LYS62      -0.2718
     68  CB        12.7350  -24.9220  -11.6230 C.3    62  LYS62       0.0285
     69  CG        11.4250  -24.5900  -10.9470 C.3    62  LYS62       0.0035
     70  CD        10.4490  -25.7570  -10.9970 C.3    62  LYS62       0.0206
     71  CE         9.2290  -25.4530  -10.1350 C.3    62  LYS62       0.1093
     72  NZ         7.9860  -26.0990  -10.6450 N.3    62  LYS62      -0.1314
     73  N         14.9970  -23.8410  -10.0500 N.am   63  LEU63      -0.1980
     74  CA        15.4090  -23.4140   -8.7100 C.3    63  LEU63       0.1596
     75  C         16.3620  -22.2250   -8.7320 C.2    63  LEU63       0.2287
     76  O         16.3140  -21.3910   -7.8280 O.2    63  LEU63      -0.2864
     77  CB        16.0490  -24.5740   -7.9450 C.3    63  LEU63       0.0297
     78  CG        15.1030  -25.7630   -7.7850 C.3    63  LEU63       0.0022
     79  CD1       15.6940  -26.8280   -6.8780 C.3    63  LEU63       0.0001
     80  CD2       13.7400  -25.2920   -7.2820 C.3    63  LEU63       0.0001
     81  N         14.1070  -19.4690   -8.8400 N.3    66  SER66      -0.1202
     82  CA        13.3040  -19.4230   -7.6290 C.3    66  SER66       0.2020
     83  C         14.1250  -18.9660   -6.4280 C.2    66  SER66       0.2618
     84  O         13.5680  -18.4110   -5.4740 O.2    66  SER66      -0.2717
     85  CB        12.6800  -20.7920   -7.3670 C.3    66  SER66       0.2103
     86  OG        11.2770  -20.7240   -7.4930 O.3    66  SER66      -0.2182
     87  N         15.4400  -19.1910   -6.4450 N.am   67  MET67      -0.1979
     88  CA        16.2620  -18.7540   -5.3180 C.3    67  MET67       0.1605
     89  C         16.4110  -17.2410   -5.3170 C.2    67  MET67       0.2287
     90  O         16.4030  -16.6070   -4.2520 O.2    67  MET67      -0.2864
     91  CB        17.6350  -19.4270   -5.3560 C.3    67  MET67       0.0413
     92  CG        18.5560  -18.9750   -4.2360 C.3    67  MET67       0.0598
     93  SD        17.8560  -19.2590   -2.5920 S.3    67  MET67      -0.1393
     94  CE        17.8260  -21.0520   -2.5590 C.3    67  MET67       0.0692
     95  N         13.1810  -15.7170   -4.0200 N.3    70  TRP70      -0.1241
     96  CA        13.1820  -15.8900   -2.5720 C.3    70  TRP70       0.1605
     97  C         14.0560  -14.8390   -1.8970 C.2    70  TRP70       0.2264
     98  O         13.6310  -14.1880   -0.9340 O.2    70  TRP70      -0.2867
     99  CB        13.6540  -17.2960   -2.2140 C.3    70  TRP70       0.0550
    100  CG        13.5130  -17.6090   -0.7570 C.ar   70  TRP70       0.0003
    101  CD1       12.4090  -18.0990   -0.1290 C.ar   70  TRP70       0.0946
    102  CD2       14.5110  -17.4310    0.2590 C.ar   70  TRP70       0.0152
    103  NE1       12.6610  -18.2510    1.2150 N.ar   70  TRP70      -0.2442
    104  CE2       13.9460  -17.8470    1.4760 C.ar   70  TRP70       0.0810
    105  CE3       15.8370  -16.9650    0.2510 C.ar   70  TRP70       0.0012
    106  CZ2       14.6550  -17.8070    2.6770 C.ar   70  TRP70       0.0191
    107  CZ3       16.5410  -16.9390    1.4440 C.ar   70  TRP70       0.0001
    108  CH2       15.9490  -17.3540    2.6380 C.ar   70  TRP70       0.0015
    109  N          4.4480  -16.4690    2.0300 N.3    89  PHE89      -0.1241
    110  CA         5.3020  -17.0520    1.0050 C.3    89  PHE89       0.1605
    111  C          6.3110  -18.0190    1.6160 C.2    89  PHE89       0.2264
    112  O          6.4910  -19.1330    1.1120 O.2    89  PHE89      -0.2867
    113  CB         6.0090  -15.9490    0.2120 C.3    89  PHE89       0.0534
    114  CG         6.9490  -16.4720   -0.8480 C.ar   89  PHE89      -0.0203
    115  CD1        6.4550  -17.0980   -1.9890 C.ar   89  PHE89      -0.0042
    116  CD2        8.3250  -16.3400   -0.7040 C.ar   89  PHE89      -0.0042
    117  CE1        7.3240  -17.5830   -2.9630 C.ar   89  PHE89      -0.0003
    118  CE2        9.1940  -16.8130   -1.6780 C.ar   89  PHE89      -0.0003
    119  CZ         8.7020  -17.4390   -2.7960 C.ar   89  PHE89      -0.0000
    120  N          4.5510  -21.2010    2.5650 N.3    92  LYS92      -0.1231
    121  CA         4.2650  -21.9910    1.3730 C.3    92  LYS92       0.1693
    122  C          5.5270  -22.6540    0.8150 C.2    92  LYS92       0.2591
    123  O          5.4760  -23.8030    0.3570 O.2    92  LYS92      -0.2718
    124  CB         3.5920  -21.0920    0.3300 C.3    92  LYS92       0.0285
    125  CG         3.5110  -21.6550   -1.0790 C.3    92  LYS92       0.0035
    126  CD         3.0430  -20.5640   -2.0350 C.3    92  LYS92       0.0206
    127  CE         3.2060  -20.9600   -3.4870 C.3    92  LYS92       0.1093
    128  NZ         2.8170  -19.8370   -4.3910 N.3    92  LYS92      -0.1314
    129  N          6.6680  -21.9570    0.8510 N.am   93  VAL93      -0.1980
    130  CA         7.9240  -22.5440    0.3760 C.3    93  VAL93       0.1595
    131  C          8.3440  -23.7150    1.2660 C.2    93  VAL93       0.2287
    132  O          8.6940  -24.7950    0.7730 O.2    93  VAL93      -0.2864
    133  CB         9.0260  -21.4640    0.2930 C.3    93  VAL93       0.0276
    134  CG1       10.4270  -22.0870    0.1610 C.3    93  VAL93       0.0022
    135  CG2        8.7590  -20.5220   -0.8620 C.3    93  VAL93       0.0022
    136  N          6.6280  -26.9020    0.6000 N.3    96  VAL96      -0.1231
    137  CA         7.0760  -27.6650   -0.5670 C.3    96  VAL96       0.1692
    138  C          8.2310  -28.5950   -0.1960 C.2    96  VAL96       0.2592
    139  O          8.3130  -29.7270   -0.6880 O.2    96  VAL96      -0.2718
    140  CB         7.4610  -26.7190   -1.7240 C.3    96  VAL96       0.0266
    141  CG1        8.1120  -27.4910   -2.8760 C.3    96  VAL96       0.0020
    142  CG2        6.2470  -25.9650   -2.2200 C.3    96  VAL96       0.0020
    143  N          9.1440  -28.1380    0.6720 N.am   97  HIS97      -0.1976
    144  CA        10.3010  -28.9610    1.0090 C.3    97  HIS97       0.1656
    145  C          9.9540  -30.0650    2.0040 C.2    97  HIS97       0.2291
    146  O         10.5230  -31.1590    1.9290 O.2    97  HIS97      -0.2864
    147  CB        11.4370  -28.0930    1.5600 C.3    97  HIS97       0.0771
    148  CG        11.9930  -27.1160    0.5660 C.ar   97  HIS97       0.0820
    149  ND1       11.4810  -25.8470    0.4020 N.ar   97  HIS97      -0.2267
    150  CD2       13.0120  -27.2250   -0.3200 C.ar   97  HIS97       0.1154
    151  CE1       12.1620  -25.2170   -0.5390 C.ar   97  HIS97       0.1986
    152  NE2       13.0980  -26.0300   -0.9920 N.ar   97  HIS97      -0.2212
    153  N          7.0610  -31.5300    2.1450 N.3    99  ARG99      -0.1231
    154  CA         6.2240  -32.4890    1.4390 C.3    99  ARG99       0.1694
    155  C          7.0670  -33.5240    0.6990 C.2    99  ARG99       0.2591
    156  O          6.6870  -34.6980    0.6180 O.2    99  ARG99      -0.2718
    157  CB         5.2850  -31.7480    0.4800 C.3    99  ARG99       0.0321
    158  CG         4.3390  -32.6540   -0.3010 C.3    99  ARG99       0.0489
    159  CD         3.2330  -31.8670   -1.0100 C.3    99  ARG99       0.2205
    160  NE         3.7340  -31.0700   -2.1280 N.pl3  99  ARG99      -0.0865
    161  CZ         3.6780  -29.7430   -2.1900 C.cat  99  ARG99       0.5346
    162  NH1        3.1320  -29.0510   -1.1960 N.pl3  99  ARG99       0.1354
    163  NH2        4.1630  -29.1100   -3.2510 N.pl3  99  ARG99       0.1354
    164  N          8.2200  -33.1180    0.1620 N.am  100  ILE100     -0.1980
    165  CA         9.1230  -34.0550   -0.5040 C.3   100  ILE100      0.1595
    166  C         10.2110  -34.5650    0.4420 C.2   100  ILE100      0.2287
    167  O         11.1270  -35.2670    0.0030 O.2   100  ILE100     -0.2864
    168  CB         9.7320  -33.4460   -1.7830 C.3   100  ILE100      0.0276
    169  CG1       10.5310  -32.1790   -1.4740 C.3   100  ILE100      0.0022
    170  CG2        8.6470  -33.1390   -2.8050 C.3   100  ILE100      0.0022
    171  CD1       11.0790  -31.4970   -2.7220 C.3   100  ILE100      0.0001
    172  N         12.6610  -33.0800    2.1860 N.3   102  ILE102     -0.1245
    173  CA        14.0000  -32.4950    2.2130 C.3   102  ILE102      0.1561
    174  C         14.4290  -32.4160    3.6720 C.2   102  ILE102      0.2260
    175  O         13.7370  -31.7750    4.4760 O.2   102  ILE102     -0.2867
    176  CB        14.0460  -31.0940    1.5870 C.3   102  ILE102      0.0252
    177  CG1       13.4560  -31.0750    0.1730 C.3   102  ILE102      0.0019
    178  CG2       15.4820  -30.5770    1.6030 C.3   102  ILE102      0.0019
    179  CD1       14.3130  -31.7380   -0.8560 C.3   102  ILE102      0.0001
    180  N         19.5780  -29.7530    5.8600 N.3   106  LEU106     -0.1231
    181  CA        20.0770  -29.2590    4.5770 C.3   106  LEU106      0.1693
    182  C         19.6120  -27.8340    4.3020 C.2   106  LEU106      0.2591
    183  O         20.3580  -27.0280    3.7260 O.2   106  LEU106     -0.2718
    184  CB        19.6430  -30.1960    3.4470 C.3   106  LEU106      0.0284
    185  CG        20.3910  -31.5320    3.3780 C.3   106  LEU106      0.0019
    186  CD1       19.9740  -32.3240    2.1450 C.3   106  LEU106      0.0001
    187  CD2       21.8930  -31.2960    3.3840 C.3   106  LEU106      0.0001
    188  N         18.3690  -27.5190    4.6800 N.am  107  VAL107     -0.1980
    189  CA        17.8510  -26.1580    4.5730 C.3   107  VAL107      0.1595
    190  C         18.6800  -25.2070    5.4260 C.2   107  VAL107      0.2287
    191  O         19.0250  -24.0970    5.0010 O.2   107  VAL107     -0.2864
    192  CB        16.3710  -26.1410    5.0020 C.3   107  VAL107      0.0276
    193  CG1       15.8170  -24.7180    5.0040 C.3   107  VAL107      0.0022
    194  CG2       15.5510  -27.0850    4.1350 C.3   107  VAL107      0.0022
    195  N         21.9040  -24.5670    3.7410 N.3   110  GLY110     -0.1210
    196  CA        21.6920  -23.5940    2.6780 C.3   110  GLY110      0.1956
    197  C         21.5980  -22.1770    3.2060 C.2   110  GLY110      0.2611
    198  O         22.2580  -21.2630    2.7030 O.2   110  GLY110     -0.2717
    199  N         20.7740  -21.9770    4.2320 N.am  111  ALA111     -0.1979
    200  CA        20.7440  -20.6920    4.9170 C.3   111  ALA111      0.1597
    201  C         22.1560  -20.2470    5.3110 C.2   111  ALA111      0.2287
    202  O         22.5710  -19.1160    5.0260 O.2   111  ALA111     -0.2864
    203  CB        19.8300  -20.7830    6.1460 C.3   111  ALA111      0.0319
    204  N         24.1200  -18.9320    2.3660 N.3   114  LEU114     -0.1245
    205  CA        23.6820  -17.6140    1.8970 C.3   114  LEU114      0.1561
    206  C         24.1570  -16.4960    2.8260 C.2   114  LEU114      0.2260
    207  O         24.6430  -15.4550    2.3680 O.2   114  LEU114     -0.2867
    208  CB        22.1560  -17.5740    1.7600 C.3   114  LEU114      0.0270
    209  CG        21.5000  -18.4550    0.6950 C.3   114  LEU114      0.0019
    210  CD1       19.9950  -18.4560    0.9000 C.3   114  LEU114      0.0001
    211  CD2       21.8530  -17.9850   -0.7160 C.3   114  LEU114      0.0001
    212  N         14.0270  -18.6480    7.2350 N.3   148  VAL148     -0.1245
    213  CA        14.1850  -20.0920    7.3090 C.3   148  VAL148      0.1561
    214  C         13.3460  -20.6700    8.4460 C.2   148  VAL148      0.2260
    215  O         12.7880  -21.7600    8.3130 O.2   148  VAL148     -0.2867
    216  CB        15.6850  -20.4330    7.4390 C.3   148  VAL148      0.0252
    217  CG1       15.8900  -21.8990    7.7970 C.3   148  VAL148      0.0019
    218  CG2       16.3920  -20.1060    6.1400 C.3   148  VAL148      0.0019
    219  N          9.9110  -21.1200    7.0920 N.3   151  MET151     -0.1245
    220  CA         9.9170  -22.3130    6.2560 C.3   151  MET151      0.1570
    221  C          9.7710  -23.5800    7.0860 C.2   151  MET151      0.2261
    222  O          8.9840  -24.4690    6.7440 O.2   151  MET151     -0.2867
    223  CB        11.2070  -22.3670    5.4520 C.3   151  MET151      0.0387
    224  CG        11.1130  -21.8100    4.0490 C.3   151  MET151      0.0595
    225  SD        12.7460  -21.8440    3.2670 S.3   151  MET151     -0.1393
    226  CE        13.3960  -20.3950    4.0070 C.3   151  MET151      0.0692
@<TRIPOS>BOND
     1    56    57    1
     2    64    65    1
     3    57    58    1
     4    57    60    1
     5    65    68    1
     6    65    66    1
     7    58    59    2
     8    68    69    1
     9    60    61    1
    10    70    69    1
    11    70    71    1
    12    66    67    2
    13    66    73   am
    14    62    61    1
    15    72    71    1
    16    61    63    1
    17    73    74    1
    18    81    82    1
    19    75    74    1
    20    75    76    2
    21    74    77    1
    22    51    50    2
    23    50    49    1
    24    77    78    1
    25    78    80    1
    26    78    79    1
    27    82    85    1
    28    82    83    1
    29    86    85    1
    30    49    52    1
    31    49    48    1
    32    16    17    1
    33    16    13    1
    34    52    53    1
    35    19    17   ar
    36    19    21   ar
    37    17    18   ar
    38    87    83   am
    39    87    88    1
    40    83    84    2
    41    21    22   ar
    42    48    39   am
    43    15    14    2
    44    14    13    1
    45    18    20   ar
    46    40    39    2
    47    55    53    1
    48    13    12    1
    49    53    54    1
    50    22    20   ar
    51    22    23    1
    52    39    38    1
    53    91    88    1
    54    91    92    1
    55    88    89    1
    56    89    90    2
    57    12     3   am
    58   128   127    1
    59    38    37    1
    60    38    41    1
    61    92    93    1
    62    95    96    1
    63     1     2    1
    64     3     2    1
    65     3     4    2
    66    26    27    2
    67    26    25    1
    68   127   126    1
    69    35    34    2
    70   163   161    1
    71     2     5    1
    72    41    42    1
    73     5     6    1
    74   117   119   ar
    75   117   115   ar
    76    28    25    1
    77    28    29    1
    78   141   140    1
    79     8     6   ar
    80     8    10   ar
    81   170   168    1
    82   119   118   ar
    83   171   169    1
    84    34    33    1
    85    24    25    1
    86    93    94    1
    87    96    99    1
    88    96    97    1
    89     6     7   ar
    90   142   140    1
    91    99   100    1
    92   161   160    2
    93   161   162    1
    94   160   159    1
    95    10    11   ar
    96   126   125    1
    97   115   114   ar
    98    42    43   ar
    99    42    44   ar
   100    97    98    2
   101    29    30    1
   102   168   169    1
   103   168   165    1
   104   140   137    1
   105   118   116   ar
   106    43    45   ar
   107    33    36    1
   108    33    32    1
   109   125   124    1
   110   159   158    1
   111    44    46   ar
   112   152   151   ar
   113   152   150   ar
   114     7     9   ar
   115   135   133    1
   116   179   177    1
   117   114   116   ar
   118   114   113    1
   119   100   101   ar
   120   100   102   ar
   121    11     9   ar
   122   211   209    1
   123   139   138    2
   124   137   138    1
   125   137   136    1
   126   151   149   ar
   127   165   164    1
   128   165   166    1
   129    45    47   ar
   130   150   148   ar
   131   158   157    1
   132    30    31    1
   133   138   143   am
   134   101   103   ar
   135   167   166    2
   136    46    47   ar
   137   134   133    1
   138   164   155   am
   139   177   176    1
   140   113   110    1
   141   105   102   ar
   142   105   107   ar
   143   102   104   ar
   144   133   130    1
   145   124   121    1
   146   123   122    2
   147   130   129    1
   148   130   131    1
   149   149   148   ar
   150   157   154    1
   151   148   147    1
   152   156   155    2
   153   143   144    1
   154   209   210    1
   155   209   208    1
   156   155   154    1
   157   132   131    2
   158   122   129   am
   159   122   121    1
   160   110   111    1
   161   110   109    1
   162   144   147    1
   163   144   145    1
   164   112   111    2
   165   103   104   ar
   166   121   120    1
   167   154   153    1
   168   107   108   ar
   169   104   106   ar
   170   176   178    1
   171   176   173    1
   172   208   205    1
   173   205   204    1
   174   205   206    1
   175   146   145    2
   176   186   185    1
   177   172   173    1
   178   173   174    1
   179   207   206    2
   180   108   106   ar
   181   196   197    1
   182   196   195    1
   183   198   197    2
   184   197   199   am
   185   225   226    1
   186   225   224    1
   187   185   187    1
   188   185   184    1
   189   184   181    1
   190   174   175    2
   191   183   182    2
   192   224   223    1
   193   194   192    1
   194   199   200    1
   195   182   181    1
   196   182   188   am
   197   189   188    1
   198   189   192    1
   199   189   190    1
   200   181   180    1
   201   200   201    1
   202   200   203    1
   203   191   190    2
   204   192   193    1
   205   202   201    2
   206   223   220    1
   207   218   216    1
   208   220   221    1
   209   220   219    1
   210   222   221    2
   211   212   213    1
   212   213   216    1
   213   213   214    1
   214   216   217    1
   215   215   214    2
