@<TRIPOS>MOLECULE
tmp/6m9cA00.pdb
 174 165 0 0 0
SMALL
GASTEIGER

@<TRIPOS>ATOM
      1  N         21.5440   21.4550    6.5590 N.3    33  ILE33      -0.1245
      2  CA        20.5090   21.0070    5.6370 C.3    33  ILE33       0.1561
      3  C         19.1800   21.5900    6.0810 C.2    33  ILE33       0.2260
      4  O         18.6730   21.3040    7.1620 O.2    33  ILE33      -0.2867
      5  CB        20.4790   19.4780    5.5770 C.3    33  ILE33       0.0252
      6  CG1       21.7970   18.8960    5.0270 C.3    33  ILE33       0.0019
      7  CG2       19.2740   19.0030    4.7800 C.3    33  ILE33       0.0019
      8  CD1       21.9090   17.4210    5.3600 C.3    33  ILE33       0.0001
      9  N         14.3790   21.6150    9.4710 N.3    72  ASP72      -0.1239
     10  CA        14.2370   20.2070    9.7990 C.3    72  ASP72       0.1674
     11  C         14.3420   20.0720   11.3220 C.2    72  ASP72       0.2266
     12  O         15.3130   20.5510   11.9160 O.2    72  ASP72      -0.2867
     13  CB        15.3050   19.3510    9.1170 C.3    72  ASP72       0.1410
     14  CG        15.1910   17.9170    9.6070 C.2    72  ASP72       0.3668
     15  OD1       14.1640   17.3030    9.2700 O.co2  72  ASP72      -0.2456
     16  OD2       16.0930   17.4410   10.3070 O.co2  72  ASP72      -0.2456
     17  N         14.8280   17.6690   13.6300 N.3    74  GLN74      -0.1231
     18  CA        16.0080   17.0100   14.1960 C.3    74  GLN74       0.1698
     19  C         17.2640   17.7790   13.8060 C.2    74  GLN74       0.2592
     20  O         18.2420   17.8810   14.5310 O.2    74  GLN74      -0.2718
     21  CB        16.1600   15.5610   13.7610 C.3    74  GLN74       0.0381
     22  CG        14.9110   14.6990   13.7710 C.3    74  GLN74       0.0905
     23  CD        14.9280   13.7880   12.5240 C.2    74  GLN74       0.2608
     24  OE1       15.8100   12.9240   12.3740 O.2    74  GLN74      -0.2717
     25  NE2       13.9540   14.0380   11.6350 N.am   74  GLN74      -0.0878
     26  N         17.2520   18.3600   12.6070 N.am   75  GLY75      -0.1957
     27  CA        18.4240   19.1040   12.1960 C.3    75  GLY75       0.1869
     28  C         18.7200   20.2590   13.1260 C.2    75  GLY75       0.2309
     29  O         19.8890   20.6150   13.2930 O.2    75  GLY75      -0.2863
     30  N         21.2820   19.4070   15.5610 N.3    78  GLU78      -0.1231
     31  CA        22.6200   19.4780   14.9770 C.3    78  GLU78       0.1699
     32  C         23.1330   20.9000   14.8410 C.2    78  GLU78       0.2592
     33  O         24.2830   21.1400   15.2220 O.2    78  GLU78      -0.2718
     34  CB        22.6540   18.8210   13.5910 C.3    78  GLU78       0.0402
     35  CG        24.0410   18.6860   12.9670 C.3    78  GLU78       0.1161
     36  CD        24.9380   17.7750   13.7930 C.2    78  GLU78       0.3649
     37  OE1       24.5890   16.5800   13.9090 O.co2  78  GLU78      -0.2457
     38  OE2       25.9590   18.2650   14.3240 O.co2  78  GLU78      -0.2457
     39  N         22.3510   21.8370   14.2940 N.am   79  TRP79      -0.1976
     40  CA        22.8960   23.1840   14.1080 C.3    79  TRP79       0.1640
     41  C         23.0590   23.8730   15.4690 C.2    79  TRP79       0.2290
     42  O         23.9230   24.7440   15.5890 O.2    79  TRP79      -0.2864
     43  CB        22.0700   24.0260   13.1420 C.3    79  TRP79       0.0576
     44  CG        21.3810   23.1540   12.1310 C.ar   79  TRP79       0.0006
     45  CD1       20.0510   23.1650   11.8350 C.ar   79  TRP79       0.0946
     46  CD2       21.9640   22.1480   11.2860 C.ar   79  TRP79       0.0152
     47  NE1       19.7710   22.2320   10.8600 N.ar   79  TRP79      -0.2442
     48  CE2       20.9280   21.5900   10.5070 C.ar   79  TRP79       0.0810
     49  CE3       23.2550   21.6500   11.1010 C.ar   79  TRP79       0.0012
     50  CZ2       21.1230   20.5710    9.5650 C.ar   79  TRP79       0.0191
     51  CZ3       23.4590   20.6450   10.1760 C.ar   79  TRP79       0.0001
     52  CH2       22.3980   20.1110    9.4140 C.ar   79  TRP79       0.0015
     53  N         22.0550   14.4540   -3.9180 N.3   109  ASN109     -0.1240
     54  CA        22.8630   15.1760   -2.9470 C.3   109  ASN109      0.1653
     55  C         23.2250   16.5650   -3.4580 C.2   109  ASN109      0.2266
     56  O         24.1200   17.2310   -2.9240 O.2   109  ASN109     -0.2867
     57  CB        24.1150   14.3620   -2.6350 C.3   109  ASN109      0.1155
     58  CG        23.8200   12.9590   -2.1550 C.2   109  ASN109      0.2627
     59  OD1       24.3340   11.9590   -2.6660 O.2   109  ASN109     -0.2716
     60  ND2       22.9820   12.9000   -1.1270 N.am  109  ASN109     -0.0877
     61  N         23.2290   19.5680   -0.9260 N.3   112  LEU112     -0.1245
     62  CA        24.3970   19.6450   -0.0470 C.3   112  LEU112      0.1561
     63  C         25.6070   20.1300   -0.8130 C.2   112  LEU112      0.2260
     64  O         26.3730   20.9800   -0.3810 O.2   112  LEU112     -0.2867
     65  CB        24.6570   18.2780    0.5840 C.3   112  LEU112      0.0270
     66  CG        25.7450   18.1760    1.6530 C.3   112  LEU112      0.0019
     67  CD1       25.5090   19.1290    2.8180 C.3   112  LEU112      0.0001
     68  CD2       25.8230   16.7460    2.1660 C.3   112  LEU112      0.0001
     69  N         29.2330   18.7470   10.1890 N.3   131  SER131     -0.1202
     70  CA        28.9550   17.6810   11.1500 C.3   131  SER131      0.2020
     71  C         28.0270   16.6580   10.5190 C.2   131  SER131      0.2619
     72  O         26.9610   16.3150   11.0180 O.2   131  SER131     -0.2717
     73  CB        28.3610   18.2800   12.4300 C.3   131  SER131      0.2103
     74  OG        29.4190   18.6950   13.2760 O.3   131  SER131     -0.2182
     75  N         28.4510   16.1640    9.3500 N.am  132  LEU132     -0.1965
     76  CA        27.6620   15.2180    8.5850 C.3   132  LEU132      0.1728
     77  C         28.5390   14.3420    7.6760 C.2   132  LEU132      0.2617
     78  O         29.7190   14.6010    7.4610 O.2   132  LEU132     -0.2715
     79  CB        26.6640   15.9050    7.6560 C.3   132  LEU132      0.0311
     80  CG        26.3020   17.3710    7.8030 C.3   132  LEU132      0.0022
     81  CD1       25.7240   17.9510    6.5180 C.3   132  LEU132      0.0001
     82  CD2       25.2930   17.5700    8.9260 C.3   132  LEU132      0.0001
     83  N         27.8720   13.3050    7.1740 N.am  133  GLY133     -0.1940
     84  CA        28.5190   12.3410    6.3200 C.3   133  GLY133      0.2014
     85  C         27.7280   11.0680    6.1380 C.2   133  GLY133      0.2638
     86  O         26.6830   10.8180    6.7260 O.2   133  GLY133     -0.2714
     87  N         28.2530   10.2180    5.2680 N.am  134  TRP134     -0.1973
     88  CA        27.6980    8.9050    5.0000 C.3   134  TRP134      0.1640
     89  C         28.7290    8.0560    4.2490 C.2   134  TRP134      0.2290
     90  O         29.8010    8.5390    3.9080 O.2   134  TRP134     -0.2864
     91  CB        26.4110    8.9900    4.2000 C.3   134  TRP134      0.0576
     92  CG        26.5320    9.4930    2.7990 C.ar  134  TRP134      0.0006
     93  CD1       26.4440    8.7330    1.6650 C.ar  134  TRP134      0.0946
     94  CD2       26.7450   10.8370    2.3700 C.ar  134  TRP134      0.0152
     95  NE1       26.5980    9.5340    0.5600 N.ar  134  TRP134     -0.2442
     96  CE2       26.7830   10.8280    0.9590 C.ar  134  TRP134      0.0810
     97  CE3       26.9100   12.0600    3.0170 C.ar  134  TRP134      0.0012
     98  CZ2       26.9770   11.9810    0.2080 C.ar  134  TRP134      0.0191
     99  CZ3       27.1060   13.2010    2.2650 C.ar  134  TRP134      0.0001
    100  CH2       27.1420   13.1670    0.8720 C.ar  134  TRP134      0.0015
    101  N         33.2970   15.9230   10.5820 N.3   165  SER165     -0.1217
    102  CA        33.1040   14.7820   11.4620 C.3   165  SER165      0.1889
    103  C         33.4210   13.4550   10.7960 C.2   165  SER165      0.2288
    104  O         32.9950   13.1570    9.6860 O.2   165  SER165     -0.2866
    105  CB        31.6550   14.7260   11.9670 C.3   165  SER165      0.2089
    106  OG        31.3380   15.9840   12.5680 O.3   165  SER165     -0.2183
    107  N         32.4950   10.4180   11.6570 N.3   167  GLY167     -0.1210
    108  CA        31.4430    9.4440   11.7350 C.3   167  GLY167      0.1956
    109  C         31.2130    8.8530   13.1210 C.2   167  GLY167      0.2612
    110  O         32.0930    8.9670   13.9720 O.2   167  GLY167     -0.2717
    111  N         30.0500    8.2480   13.2760 N.am  168  ASP168     -0.1959
    112  CA        29.5710    7.7930   14.5840 C.3   168  ASP168      0.1840
    113  C         29.3050    6.2910   14.6070 C.2   168  ASP168      0.2621
    114  O         28.6080    5.7770   15.4880 O.2   168  ASP168     -0.2715
    115  CB        28.2890    8.5210   14.9330 C.3   168  ASP168      0.1450
    116  CG        28.4040   10.0130   15.1700 C.2   168  ASP168      0.3671
    117  OD1       29.5000   10.5860   15.2320 O.co2 168  ASP168     -0.2456
    118  OD2       27.3140   10.6360   15.2930 O.co2 168  ASP168     -0.2456
    119  N         29.8540    5.5830   13.6260 N.am  169  GLU169     -0.1977
    120  CA        29.5050    4.1790   13.3700 C.3   169  GLU169      0.1602
    121  C         30.7430    3.3050   13.5590 C.2   169  GLU169      0.2287
    122  O         30.7930    2.1370   13.1600 O.2   169  GLU169     -0.2864
    123  CB        28.9810    4.0070   11.9510 C.3   169  GLU169      0.0415
    124  CG        27.6210    4.5790   11.6230 C.3   169  GLU169      0.1163
    125  CD        27.5150    6.0710   11.8560 C.2   169  GLU169      0.3649
    126  OE1       28.2580    6.8500   11.2070 O.co2 169  GLU169     -0.2457
    127  OE2       26.7270    6.4370   12.7600 O.co2 169  GLU169     -0.2457
    128  N         30.6480    2.0250    8.9880 N.3   173  GLU173     -0.1245
    129  CA        29.9380    3.1050    8.3360 C.3   173  GLU173      0.1567
    130  C         29.0590    2.6200    7.1920 C.2   173  GLU173      0.2260
    131  O         27.9370    3.1060    7.0000 O.2   173  GLU173     -0.2867
    132  CB        30.9580    4.1250    7.7990 C.3   173  GLU173      0.0388
    133  CG        30.3110    5.4040    7.2890 C.3   173  GLU173      0.1160
    134  CD        29.4170    6.0270    8.3480 C.2   173  GLU173      0.3649
    135  OE1       29.9090    6.1960    9.4890 O.co2 173  GLU173     -0.2457
    136  OE2       28.2510    6.2910    7.9980 O.co2 173  GLU173     -0.2457
    137  N         24.8420    1.9330    8.0630 N.3   177  ARG177     -0.1245
    138  CA        25.1760    3.0040    9.0010 C.3   177  ARG177      0.1563
    139  C         25.3410    2.4460   10.4140 C.2   177  ARG177      0.2260
    140  O         24.6040    2.8230   11.3260 O.2   177  ARG177     -0.2867
    141  CB        24.1510    4.1430    8.9340 C.3   177  ARG177      0.0307
    142  CG        24.6470    5.4920    9.4570 C.3   177  ARG177      0.0489
    143  CD        23.6870    6.6140    9.0530 C.3   177  ARG177      0.2205
    144  NE        24.0700    7.9200    9.5780 N.pl3 177  ARG177     -0.0865
    145  CZ        24.7540    8.8770    8.9690 C.cat 177  ARG177      0.5346
    146  NH1       25.1940    8.7380    7.7150 N.pl3 177  ARG177      0.1354
    147  NH2       25.0220   10.0250    9.5910 N.pl3 177  ARG177      0.1354
    148  N         33.5500    7.1880    6.1930 N.3   188  SER188     -0.1217
    149  CA        32.6110    8.2240    5.8440 C.3   188  SER188      0.1889
    150  C         33.1470    9.2700    4.8650 C.2   188  SER188      0.2288
    151  O         34.3120    9.6610    4.8710 O.2   188  SER188     -0.2866
    152  CB        32.2150    8.9320    7.1580 C.3   188  SER188      0.2089
    153  OG        31.1950    9.8930    6.9190 O.3   188  SER188     -0.2183
    154  N         26.4620   14.2390   22.0970 N.3   282  GLY282     -0.1210
    155  CA        27.8070   13.8790   21.6880 C.3   282  GLY282      0.1956
    156  C         27.8900   13.5890   20.1900 C.2   282  GLY282      0.2612
    157  O         27.1300   14.1900   19.4470 O.2   282  GLY282     -0.2717
    158  N         28.8030   12.7110   19.8120 N.am  283  GLY283     -0.1942
    159  CA        29.0460   12.3310   18.4350 C.3   283  GLY283      0.2014
    160  C         30.2570   13.0080   17.8780 C.2   283  GLY283      0.2640
    161  O         30.7370   14.0210   18.3830 O.2   283  GLY283     -0.2714
    162  N         30.8170   12.5480   16.7460 N.am  284  THR284     -0.1936
    163  CA        31.8320   13.3750   16.1110 C.3   284  THR284      0.2028
    164  C         31.2300   14.6770   15.5820 C.2   284  THR284      0.2642
    165  O         32.0200   15.5550   15.2270 O.2   284  THR284     -0.2714
    166  CB        32.5360   12.6120   14.9710 C.3   284  THR284      0.1808
    167  OG1       31.5570   12.0940   14.0610 O.3   284  THR284     -0.2208
    168  CG2       33.2970   11.4530   15.5960 C.3   284  THR284      0.0379
    169  N         29.9120   14.8110   15.5490 N.am  285  SER285     -0.1949
    170  CA        29.2140   16.0540   15.2740 C.3   285  SER285      0.1924
    171  C         29.5680   17.1110   16.3260 C.2   285  SER285      0.2314
    172  O         29.4470   18.2920   16.0360 O.2   285  SER285     -0.2863
    173  CB        27.6990   15.8460   15.2630 C.3   285  SER285      0.2116
    174  OG        27.3250   14.9720   14.1900 O.3   285  SER285     -0.2180
@<TRIPOS>BOND
     1    53    54    1
     2    55    54    1
     3    55    56    2
     4    54    57    1
     5    59    58    2
     6    57    58    1
     7    58    60   am
     8    61    62    1
     9    63    64    2
    10    63    62    1
    11    62    65    1
    12    98   100   ar
    13    98    96   ar
    14    95    96   ar
    15    95    93   ar
    16    65    66    1
    17   100    99   ar
    18    96    94   ar
    19    66    68    1
    20    66    67    1
    21    93    92   ar
    22    99    97   ar
    23    94    92   ar
    24    94    97   ar
    25    92    91    1
    26    90    89    2
    27    91    88    1
    28    89    88    1
    29     7     5    1
    30   150   151    2
    31   150   149    1
    32    88    87    1
    33     6     8    1
    34     6     5    1
    35    87    85   am
    36     5     2    1
    37     2     3    1
    38     2     1    1
    39   149   148    1
    40   149   152    1
    41     3     4    2
    42    85    84    1
    43    85    86    2
    44    84    83    1
    45    81    80    1
    46   153   152    1
    47   131   130    2
    48    83    77   am
    49   130   129    1
    50   133   132    1
    51   133   134    1
    52    78    77    2
    53    79    80    1
    54    79    76    1
    55    77    76    1
    56   146   145    1
    57   132   129    1
    58    80    82    1
    59   136   134   ar
    60   137   138    1
    61   129   128    1
    62   134   135   ar
    63    76    75    1
    64   141   138    1
    65   141   142    1
    66   145   144    2
    67   145   147    1
    68   138   139    1
    69   143   142    1
    70   143   144    1
    71    13    14    1
    72    13    10    1
    73    15    14   ar
    74    75    71   am
    75    52    50   ar
    76    52    51   ar
    77     9    10    1
    78    50    48   ar
    79    14    16   ar
    80   104   103    2
    81    10    11    1
    82    51    49   ar
    83    69    70    1
    84   139   140    2
    85    48    47   ar
    86    48    46   ar
    87    71    72    2
    88    71    70    1
    89   101   102    1
    90   103   102    1
    91    47    45   ar
    92    49    46   ar
    93    70    73    1
    94   126   125   ar
    95    46    44   ar
    96    11    12    2
    97   102   105    1
    98   124   125    1
    99   124   123    1
   100    25    23   am
   101   107   108    1
   102   108   109    1
   103    45    44   ar
   104   125   127   ar
   105   123   120    1
   106   105   106    1
   107    44    43    1
   108    27    26    1
   109    27    28    1
   110    24    23    2
   111    73    74    1
   112    23    22    1
   113    26    19   am
   114    35    34    1
   115    35    36    1
   116   109   111   am
   117   109   110    2
   118    28    29    2
   119    43    40    1
   120   122   121    2
   121   111   112    1
   122   120   121    1
   123   120   119    1
   124    34    31    1
   125   119   113   am
   126    17    18    1
   127    21    22    1
   128    21    18    1
   129    36    37   ar
   130    36    38   ar
   131    19    18    1
   132    19    20    2
   133   167   166    1
   134    40    39    1
   135    40    41    1
   136   174   173    1
   137    39    32   am
   138   112   113    1
   139   112   115    1
   140   113   114    2
   141    32    31    1
   142    32    33    2
   143   115   116    1
   144   166   168    1
   145   166   163    1
   146    31    30    1
   147   116   117   ar
   148   116   118   ar
   149   165   164    2
   150   173   170    1
   151   170   169    1
   152   170   171    1
   153    41    42    2
   154   169   164   am
   155   164   163    1
   156   172   171    2
   157   163   162    1
   158   162   160   am
   159   160   161    2
   160   160   159    1
   161   159   158    1
   162   157   156    2
   163   158   156   am
   164   156   155    1
   165   155   154    1
