@<TRIPOS>MOLECULE
tmp/6m9dA00.pdb
 174 165 0 0 0
SMALL
GASTEIGER

@<TRIPOS>ATOM
      1  N         21.5070   21.6350    6.4530 N.3    33  ILE33      -0.1245
      2  CA        20.4730   21.1560    5.5430 C.3    33  ILE33       0.1561
      3  C         19.1480   21.7740    5.9620 C.2    33  ILE33       0.2260
      4  O         18.6200   21.4140    7.0130 O.2    33  ILE33      -0.2867
      5  CB        20.3960   19.6250    5.5300 C.3    33  ILE33       0.0252
      6  CG1       21.6950   18.9580    5.0550 C.3    33  ILE33       0.0019
      7  CG2       19.2320   19.1380    4.6880 C.3    33  ILE33       0.0019
      8  CD1       21.7770   17.4860    5.3850 C.3    33  ILE33       0.0001
      9  N         14.1980   21.9240    9.3680 N.3    72  ASP72      -0.1239
     10  CA        14.0510   20.5020    9.6580 C.3    72  ASP72       0.1674
     11  C         14.1400   20.3400   11.1760 C.2    72  ASP72       0.2266
     12  O         15.1190   20.7630   11.7980 O.2    72  ASP72      -0.2867
     13  CB        15.1160   19.6370    8.9950 C.3    72  ASP72       0.1410
     14  CG        15.0100   18.1710    9.3590 C.2    72  ASP72       0.3668
     15  OD1       15.4310   17.7870   10.4690 O.co2  72  ASP72      -0.2456
     16  OD2       14.4890   17.4090    8.5170 O.co2  72  ASP72      -0.2456
     17  N         14.5380   17.8280   13.4260 N.3    74  GLN74      -0.1231
     18  CA        15.7190   17.1330   13.9500 C.3    74  GLN74       0.1698
     19  C         16.9950   17.8930   13.6090 C.2    74  GLN74       0.2592
     20  O         17.9710   17.8810   14.3640 O.2    74  GLN74      -0.2718
     21  CB        15.7710   15.7020   13.4150 C.3    74  GLN74       0.0381
     22  CG        14.4490   14.9570   13.5450 C.3    74  GLN74       0.0905
     23  CD        13.7000   14.8560   12.2270 C.2    74  GLN74       0.2608
     24  OE1       12.9750   15.7760   11.8410 O.2    74  GLN74      -0.2717
     25  NE2       13.8790   13.7290   11.5410 N.am   74  GLN74      -0.0878
     26  N         16.9900   18.5740   12.4640 N.am   75  GLY75      -0.1957
     27  CA        18.1310   19.3520   12.0250 C.3    75  GLY75       0.1869
     28  C         18.5590   20.4140   13.0110 C.2    75  GLY75       0.2309
     29  O         19.7580   20.6500   13.1910 O.2    75  GLY75      -0.2863
     30  N         21.2430   19.5110   15.4050 N.3    78  GLU78      -0.1231
     31  CA        22.6270   19.5380   14.9270 C.3    78  GLU78       0.1699
     32  C         23.1710   20.9560   14.8620 C.2    78  GLU78       0.2592
     33  O         24.2690   21.2430   15.3400 O.2    78  GLU78      -0.2718
     34  CB        22.7120   18.8760   13.5490 C.3    78  GLU78       0.0402
     35  CG        24.1260   18.7980   12.9920 C.3    78  GLU78       0.1161
     36  CD        25.0250   17.8740   13.7940 C.2    78  GLU78       0.3649
     37  OE1       24.7380   16.6590   13.8590 O.co2  78  GLU78      -0.2457
     38  OE2       26.0210   18.3670   14.3640 O.co2  78  GLU78      -0.2457
     39  N         22.4080   21.8730   14.2670 N.am   79  TRP79      -0.1976
     40  CA        22.8820   23.2420   14.0740 C.3    79  TRP79       0.1640
     41  C         23.0500   23.9440   15.4230 C.2    79  TRP79       0.2290
     42  O         23.9220   24.8080   15.5700 O.2    79  TRP79      -0.2864
     43  CB        21.9670   24.0330   13.1380 C.3    79  TRP79       0.0576
     44  CG        21.2750   23.2370   12.0780 C.ar   79  TRP79       0.0006
     45  CD1       19.9620   23.3660   11.7220 C.ar   79  TRP79       0.0946
     46  CD2       21.8160   22.2070   11.2380 C.ar   79  TRP79       0.0152
     47  NE1       19.6550   22.4810   10.7170 N.ar   79  TRP79      -0.2442
     48  CE2       20.7750   21.7560   10.3990 C.ar   79  TRP79       0.0810
     49  CE3       23.0770   21.6150   11.1040 C.ar   79  TRP79       0.0012
     50  CZ2       20.9580   20.7480    9.4500 C.ar   79  TRP79       0.0191
     51  CZ3       23.2640   20.6170   10.1680 C.ar   79  TRP79       0.0001
     52  CH2       22.2020   20.1930    9.3500 C.ar   79  TRP79       0.0015
     53  N         22.2790   14.7090   -4.2740 N.3   109  ASN109     -0.1240
     54  CA        22.9850   15.3810   -3.1840 C.3   109  ASN109      0.1653
     55  C         23.3160   16.8230   -3.5610 C.2   109  ASN109      0.2266
     56  O         24.1690   17.4640   -2.9360 O.2   109  ASN109     -0.2867
     57  CB        24.2390   14.5750   -2.8530 C.3   109  ASN109      0.1155
     58  CG        23.9580   13.2910   -2.1030 C.2   109  ASN109      0.2627
     59  OD1       24.2470   12.1870   -2.5700 O.2   109  ASN109     -0.2716
     60  ND2       23.4000   13.4290   -0.9080 N.am  109  ASN109     -0.0877
     61  N         23.3060   19.8040   -0.9600 N.3   112  LEU112     -0.1245
     62  CA        24.4960   19.9210   -0.1160 C.3   112  LEU112      0.1561
     63  C         25.6990   20.4250   -0.8880 C.2   112  LEU112      0.2260
     64  O         26.4650   21.2880   -0.4730 O.2   112  LEU112     -0.2867
     65  CB        24.8490   18.5710    0.5050 C.3   112  LEU112      0.0270
     66  CG        25.9200   18.6120    1.5970 C.3   112  LEU112      0.0019
     67  CD1       25.4850   19.4820    2.7640 C.3   112  LEU112      0.0001
     68  CD2       26.2370   17.2030    2.0780 C.3   112  LEU112      0.0001
     69  N         29.2490   18.9470   10.1190 N.3   131  SER131     -0.1202
     70  CA        28.9490   17.8910   11.0780 C.3   131  SER131      0.2020
     71  C         28.0270   16.8580   10.4540 C.2   131  SER131      0.2619
     72  O         26.9490   16.5370   10.9490 O.2   131  SER131     -0.2717
     73  CB        28.3840   18.5190   12.3540 C.3   131  SER131      0.2103
     74  OG        29.4120   18.7180   13.3160 O.3   131  SER131     -0.2182
     75  N         28.4470   16.2980    9.3110 N.am  132  LEU132     -0.1965
     76  CA        27.5880   15.2860    8.6960 C.3   132  LEU132      0.1728
     77  C         28.3840   14.4180    7.7290 C.2   132  LEU132      0.2617
     78  O         29.5530   14.7200    7.4900 O.2   132  LEU132     -0.2715
     79  CB        26.4070   15.9230    7.9650 C.3   132  LEU132      0.0311
     80  CG        26.7750   17.0210    6.9720 C.3   132  LEU132      0.0022
     81  CD1       26.9400   16.4470    5.5740 C.3   132  LEU132      0.0001
     82  CD2       25.7300   18.1300    7.0040 C.3   132  LEU132      0.0001
     83  N         27.7240   13.3830    7.2060 N.am  133  GLY133     -0.1940
     84  CA        28.3980   12.5010    6.2670 C.3   133  GLY133      0.2014
     85  C         27.6300   11.2100    6.0470 C.2   133  GLY133      0.2638
     86  O         26.5590   11.0370    6.6300 O.2   133  GLY133     -0.2714
     87  N         28.2040   10.3520    5.2090 N.am  134  TRP134     -0.1973
     88  CA        27.6330    9.0440    4.8840 C.3   134  TRP134      0.1640
     89  C         28.6810    8.1790    4.1910 C.2   134  TRP134      0.2290
     90  O         29.7890    8.6370    3.9110 O.2   134  TRP134     -0.2864
     91  CB        26.3520    9.2000    4.0730 C.3   134  TRP134      0.0576
     92  CG        26.4980    9.7200    2.6830 C.ar  134  TRP134      0.0006
     93  CD1       26.3980    8.9790    1.5350 C.ar  134  TRP134      0.0946
     94  CD2       26.7600   11.0670    2.2820 C.ar  134  TRP134      0.0152
     95  NE1       26.5880    9.7900    0.4440 N.ar  134  TRP134     -0.2442
     96  CE2       26.8110   11.0750    0.8740 C.ar  134  TRP134      0.0810
     97  CE3       26.9580   12.2690    2.9740 C.ar  134  TRP134      0.0012
     98  CZ2       27.0510   12.2360    0.1460 C.ar  134  TRP134      0.0191
     99  CZ3       27.1980   13.4180    2.2450 C.ar  134  TRP134      0.0001
    100  CH2       27.2450   13.3970    0.8470 C.ar  134  TRP134      0.0015
    101  N         33.3540   15.9250   10.5550 N.3   165  SER165     -0.1217
    102  CA        33.1960   14.7690   11.4280 C.3   165  SER165      0.1889
    103  C         33.4830   13.4450   10.7390 C.2   165  SER165      0.2288
    104  O         33.0310   13.1900    9.6190 O.2   165  SER165     -0.2866
    105  CB        31.7480   14.7520   11.9380 C.3   165  SER165      0.2089
    106  OG        31.5000   15.9490   12.6560 O.3   165  SER165     -0.2183
    107  N         32.6150   10.4260   11.6610 N.3   167  GLY167     -0.1210
    108  CA        31.5320    9.4570   11.7360 C.3   167  GLY167      0.1956
    109  C         31.2040    8.9800   13.1380 C.2   167  GLY167      0.2612
    110  O         31.9640    9.1980   14.0790 O.2   167  GLY167     -0.2717
    111  N         30.0620    8.3060   13.2750 N.am  168  ASP168     -0.1959
    112  CA        29.5700    7.8250   14.5560 C.3   168  ASP168      0.1840
    113  C         29.2100    6.3470   14.4990 C.2   168  ASP168      0.2621
    114  O         28.4620    5.8130   15.3210 O.2   168  ASP168     -0.2715
    115  CB        28.3280    8.6120   14.9600 C.3   168  ASP168      0.1450
    116  CG        28.4860   10.1120   15.0580 C.2   168  ASP168      0.3671
    117  OD1       29.5770   10.7010   15.1960 O.co2 168  ASP168     -0.2456
    118  OD2       27.4190   10.7660   15.0030 O.co2 168  ASP168     -0.2456
    119  N         29.7300    5.6830   13.4660 N.am  169  GLU169     -0.1977
    120  CA        29.3720    4.2850   13.2080 C.3   169  GLU169      0.1602
    121  C         30.6040    3.3920   13.3220 C.2   169  GLU169      0.2287
    122  O         30.6200    2.2480   12.8650 O.2   169  GLU169     -0.2864
    123  CB        28.7430    4.1240   11.8300 C.3   169  GLU169      0.0415
    124  CG        27.3460    4.6920   11.6410 C.3   169  GLU169      0.1163
    125  CD        27.2440    6.1860   11.8740 C.2   169  GLU169      0.3649
    126  OE1       27.9480    6.9970   11.2300 O.co2 169  GLU169     -0.2457
    127  OE2       26.4640    6.5800   12.7720 O.co2 169  GLU169     -0.2457
    128  N         30.6100    2.0670    8.8950 N.3   173  GLU173     -0.1245
    129  CA        29.8860    3.1610    8.2680 C.3   173  GLU173      0.1567
    130  C         28.9640    2.7180    7.1410 C.2   173  GLU173      0.2260
    131  O         27.8330    3.2010    6.9940 O.2   173  GLU173     -0.2867
    132  CB        30.9020    4.1910    7.7380 C.3   173  GLU173      0.0388
    133  CG        30.2430    5.4180    7.1210 C.3   173  GLU173      0.1160
    134  CD        29.3490    6.1660    8.0920 C.2   173  GLU173      0.3649
    135  OE1       29.7380    6.3250    9.2720 O.co2 173  GLU173     -0.2457
    136  OE2       28.2500    6.5950    7.6850 O.co2 173  GLU173     -0.2457
    137  N         24.5990    1.9090    7.9990 N.3   177  ARG177     -0.1245
    138  CA        24.9950    2.9890    8.8870 C.3   177  ARG177      0.1563
    139  C         25.2080    2.4920   10.3110 C.2   177  ARG177      0.2260
    140  O         24.5110    2.9050   11.2400 O.2   177  ARG177     -0.2867
    141  CB        23.9560    4.1150    8.8810 C.3   177  ARG177      0.0307
    142  CG        24.5060    5.4850    9.2620 C.3   177  ARG177      0.0489
    143  CD        23.4650    6.5740    9.0460 C.3   177  ARG177      0.2205
    144  NE        23.8780    7.8980    9.5030 N.pl3 177  ARG177     -0.0865
    145  CZ        24.5590    8.7850    8.7900 C.cat 177  ARG177      0.5346
    146  NH1       24.9310    8.5090    7.5420 N.pl3 177  ARG177      0.1354
    147  NH2       24.8850    9.9680    9.3040 N.pl3 177  ARG177      0.1354
    148  N         33.4560    7.2350    6.1650 N.3   188  SER188     -0.1217
    149  CA        32.5050    8.2640    5.8000 C.3   188  SER188      0.1889
    150  C         33.0830    9.3740    4.9290 C.2   188  SER188      0.2288
    151  O         34.2360    9.7940    5.0800 O.2   188  SER188     -0.2866
    152  CB        31.9440    8.8160    7.1240 C.3   188  SER188      0.2089
    153  OG        31.5450   10.1600    6.9480 O.3   188  SER188     -0.2183
    154  N         26.5080   14.3270   22.1500 N.3   282  GLY282     -0.1210
    155  CA        27.8390   13.9220   21.7670 C.3   282  GLY282      0.1956
    156  C         27.9470   13.6520   20.2700 C.2   282  GLY282      0.2612
    157  O         27.1550   14.2480   19.5430 O.2   282  GLY282     -0.2717
    158  N         28.8780   12.7990   19.8690 N.am  283  GLY283     -0.1942
    159  CA        29.1590   12.3880   18.5110 C.3   283  GLY283      0.2014
    160  C         30.3660   13.0960   17.9350 C.2   283  GLY283      0.2640
    161  O         30.8940   14.0290   18.5400 O.2   283  GLY283     -0.2714
    162  N         30.8270   12.6850   16.7470 N.am  284  THR284     -0.1936
    163  CA        31.9270   13.4080   16.1120 C.3   284  THR284      0.2028
    164  C         31.3970   14.7400   15.5820 C.2   284  THR284      0.2642
    165  O         32.1930   15.6110   15.2430 O.2   284  THR284     -0.2714
    166  CB        32.6020   12.6490   14.9640 C.3   284  THR284      0.1808
    167  OG1       31.6130   12.0450   14.1210 O.3   284  THR284     -0.2208
    168  CG2       33.4550   11.4970   15.4890 C.3   284  THR284      0.0379
    169  N         30.0820   14.8570   15.5360 N.am  285  SER285     -0.1949
    170  CA        29.3200   16.0650   15.2480 C.3   285  SER285      0.1924
    171  C         29.6120   17.1370   16.2930 C.2   285  SER285      0.2314
    172  O         29.4700   18.3330   16.0610 O.2   285  SER285     -0.2863
    173  CB        27.8270   15.7570   15.2230 C.3   285  SER285      0.2116
    174  OG        27.4290   15.0830   14.0460 O.3   285  SER285     -0.2180
@<TRIPOS>BOND
     1    53    54    1
     2    55    54    1
     3    55    56    2
     4    54    57    1
     5    57    58    1
     6    59    58    2
     7    58    60   am
     8    61    62    1
     9    63    64    2
    10    63    62    1
    11    62    65    1
    12    98   100   ar
    13    98    96   ar
    14    95    96   ar
    15    95    93   ar
    16    65    66    1
    17   100    99   ar
    18    96    94   ar
    19    93    92   ar
    20    66    68    1
    21    66    67    1
    22    99    97   ar
    23    94    92   ar
    24    94    97   ar
    25    92    91    1
    26    90    89    2
    27    91    88    1
    28    89    88    1
    29     7     5    1
    30    88    87    1
    31   150   151    2
    32   150   149    1
    33     6     8    1
    34     6     5    1
    35    87    85   am
    36     5     2    1
    37     2     3    1
    38     2     1    1
    39    81    80    1
    40   149   148    1
    41   149   152    1
    42     3     4    2
    43    85    84    1
    44    85    86    2
    45    84    83    1
    46   153   152    1
    47    80    82    1
    48    80    79    1
    49   131   130    2
    50   133   132    1
    51   133   134    1
    52   130   129    1
    53    83    77   am
    54    78    77    2
    55   146   145    1
    56   136   134   ar
    57    77    76    1
    58   132   129    1
    59    79    76    1
    60   137   138    1
    61   134   135   ar
    62   129   128    1
    63    16    14   ar
    64    76    75    1
    65   145   147    1
    66   145   144    2
    67   141   138    1
    68   141   142    1
    69   138   139    1
    70    13    14    1
    71    13    10    1
    72   143   142    1
    73   143   144    1
    74    75    71   am
    75    52    50   ar
    76    52    51   ar
    77    14    15   ar
    78     9    10    1
    79    50    48   ar
    80   104   103    2
    81    10    11    1
    82    69    70    1
    83    51    49   ar
    84   139   140    2
    85    48    47   ar
    86    48    46   ar
    87    71    72    2
    88    71    70    1
    89   101   102    1
    90    47    45   ar
    91   103   102    1
    92    70    73    1
    93    49    46   ar
    94    11    12    2
    95   126   125   ar
    96    46    44   ar
    97   102   105    1
    98    25    23   am
    99   124   123    1
   100   124   125    1
   101   107   108    1
   102    45    44   ar
   103   108   109    1
   104   123   120    1
   105    24    23    2
   106   125   127   ar
   107   105   106    1
   108    27    26    1
   109    27    28    1
   110    44    43    1
   111    23    22    1
   112    73    74    1
   113    26    19   am
   114   122   121    2
   115    35    34    1
   116    35    36    1
   117    28    29    2
   118    43    40    1
   119   109   111   am
   120   109   110    2
   121   120   121    1
   122   120   119    1
   123   111   112    1
   124    21    22    1
   125    21    18    1
   126    17    18    1
   127   119   113   am
   128    34    31    1
   129    19    18    1
   130    19    20    2
   131    36    37   ar
   132    36    38   ar
   133   174   173    1
   134    40    39    1
   135    40    41    1
   136   167   166    1
   137    39    32   am
   138   113   112    1
   139   113   114    2
   140   112   115    1
   141    32    31    1
   142    32    33    2
   143    31    30    1
   144   115   116    1
   145   166   168    1
   146   166   163    1
   147   118   116   ar
   148   116   117   ar
   149   173   170    1
   150   165   164    2
   151   170   169    1
   152   170   171    1
   153    41    42    2
   154   169   164   am
   155   164   163    1
   156   172   171    2
   157   163   162    1
   158   162   160   am
   159   160   159    1
   160   160   161    2
   161   159   158    1
   162   157   156    2
   163   158   156   am
   164   156   155    1
   165   155   154    1
