@<TRIPOS>MOLECULE
tmp/6m9fA00.pdb
 180 171 0 0 0
SMALL
GASTEIGER

@<TRIPOS>ATOM
      1  N         21.5340   21.4190    6.5000 N.3    33  ILE33      -0.1245
      2  CA        20.5040   20.9110    5.6150 C.3    33  ILE33       0.1561
      3  C         19.2220   21.6170    6.0220 C.2    33  ILE33       0.2260
      4  O         18.7360   21.3660    7.1060 O.2    33  ILE33      -0.2867
      5  CB        20.4220   19.3770    5.6860 C.3    33  ILE33       0.0252
      6  CG1       21.7410   18.7220    5.2700 C.3    33  ILE33       0.0019
      7  CG2       19.2290   18.8910    4.8680 C.3    33  ILE33       0.0019
      8  CD1       21.9380   17.2680    5.5270 C.3    33  ILE33       0.0001
      9  N         14.3390   21.6810    9.4510 N.3    72  ASP72      -0.1239
     10  CA        14.2440   20.2670    9.7750 C.3    72  ASP72       0.1674
     11  C         14.3080   20.1510   11.3020 C.2    72  ASP72       0.2266
     12  O         15.2920   20.5770   11.8910 O.2    72  ASP72      -0.2867
     13  CB        15.3550   19.4530    9.1250 C.3    72  ASP72       0.1410
     14  CG        15.2110   17.9790    9.3730 C.2    72  ASP72       0.3668
     15  OD1       15.4190   17.4930   10.4850 O.co2  72  ASP72      -0.2456
     16  OD2       14.8780   17.3020    8.3870 O.co2  72  ASP72      -0.2456
     17  N         14.5990   17.6580   13.4740 N.3    74  GLN74      -0.1231
     18  CA        15.7450   16.9250   14.0570 C.3    74  GLN74       0.1698
     19  C         17.0590   17.6490   13.7870 C.2    74  GLN74       0.2592
     20  O         18.0390   17.6980   14.5300 O.2    74  GLN74      -0.2718
     21  CB        15.8460   15.4920   13.5090 C.3    74  GLN74       0.0381
     22  CG        14.5510   14.7220   13.4640 C.3    74  GLN74       0.0905
     23  CD        14.3180   13.8650   12.2350 C.2    74  GLN74       0.2608
     24  OE1       14.7420   14.1600   11.1110 O.2    74  GLN74      -0.2717
     25  NE2       13.6020   12.7530   12.4350 N.am   74  GLN74      -0.0878
     26  N         17.0870   18.2460   12.5900 N.am   75  GLY75      -0.1957
     27  CA        18.2770   18.9610   12.2090 C.3    75  GLY75       0.1869
     28  C         18.6390   20.0900   13.1470 C.2    75  GLY75       0.2309
     29  O         19.8190   20.3990   13.3450 O.2    75  GLY75      -0.2863
     30  N         21.3440   19.3660   15.5450 N.3    78  GLU78      -0.1231
     31  CA        22.6830   19.4070   14.9760 C.3    78  GLU78       0.1699
     32  C         23.1400   20.8490   14.8470 C.2    78  GLU78       0.2592
     33  O         24.2810   21.1390   15.2240 O.2    78  GLU78      -0.2718
     34  CB        22.6910   18.7400   13.6150 C.3    78  GLU78       0.0402
     35  CG        24.0740   18.7080   12.9430 C.3    78  GLU78       0.1161
     36  CD        25.0030   17.8130   13.7040 C.2    78  GLU78       0.3649
     37  OE1       24.8320   16.5700   13.6110 O.co2  78  GLU78      -0.2457
     38  OE2       25.9210   18.3030   14.4020 O.co2  78  GLU78      -0.2457
     39  N         22.3260   21.7690   14.3240 N.am   79  TRP79      -0.1976
     40  CA        22.8420   23.1060   14.0930 C.3    79  TRP79       0.1640
     41  C         23.0200   23.8320   15.4450 C.2    79  TRP79       0.2290
     42  O         23.9070   24.6810   15.5510 O.2    79  TRP79      -0.2864
     43  CB        22.0180   23.9400   13.0840 C.3    79  TRP79       0.0576
     44  CG        21.3110   23.0900   12.0590 C.ar   79  TRP79       0.0006
     45  CD1       19.9930   23.1380   11.7320 C.ar   79  TRP79       0.0946
     46  CD2       21.8820   22.0590   11.2350 C.ar   79  TRP79       0.0152
     47  NE1       19.7250   22.1920   10.7470 N.ar   79  TRP79      -0.2442
     48  CE2       20.8650   21.5210   10.4360 C.ar   79  TRP79       0.0810
     49  CE3       23.1670   21.5310   11.0900 C.ar   79  TRP79       0.0012
     50  CZ2       21.0450   20.4960    9.5120 C.ar   79  TRP79       0.0191
     51  CZ3       23.3410   20.5140   10.1760 C.ar   79  TRP79       0.0001
     52  CH2       22.3030   19.9960    9.3900 C.ar   79  TRP79       0.0015
     53  N         22.0520   14.5380   -4.1670 N.3   109  ASN109     -0.1240
     54  CA        22.8100   15.2350   -3.1350 C.3   109  ASN109      0.1653
     55  C         23.1900   16.6330   -3.5940 C.2   109  ASN109      0.2266
     56  O         24.0790   17.2360   -2.9760 O.2   109  ASN109     -0.2867
     57  CB        24.0560   14.4500   -2.7650 C.3   109  ASN109      0.1155
     58  CG        23.7440   13.0940   -2.1860 C.2   109  ASN109      0.2627
     59  OD1       24.3020   12.0610   -2.6090 O.2   109  ASN109     -0.2716
     60  ND2       22.8550   13.0450   -1.2190 N.am  109  ASN109     -0.0877
     61  N         23.2790   19.6490   -0.9920 N.3   112  LEU112     -0.1245
     62  CA        24.4650   19.6430   -0.1450 C.3   112  LEU112      0.1561
     63  C         25.6950   20.0960   -0.9050 C.2   112  LEU112      0.2260
     64  O         26.4790   20.9240   -0.4300 O.2   112  LEU112     -0.2867
     65  CB        24.6670   18.2520    0.4540 C.3   112  LEU112      0.0270
     66  CG        25.8650   18.1600    1.4150 C.3   112  LEU112      0.0019
     67  CD1       25.6590   19.0300    2.6560 C.3   112  LEU112      0.0001
     68  CD2       26.1890   16.7220    1.8030 C.3   112  LEU112      0.0001
     69  N         29.2460   18.7490   10.2060 N.3   131  SER131     -0.1202
     70  CA        28.9640   17.6660   11.1500 C.3   131  SER131      0.2020
     71  C         28.0370   16.6260   10.5420 C.2   131  SER131      0.2619
     72  O         26.9680   16.3280   11.0600 O.2   131  SER131     -0.2717
     73  CB        28.3520   18.2360   12.4270 C.3   131  SER131      0.2103
     74  OG        29.3260   18.7580   13.2570 O.3   131  SER131     -0.2182
     75  N         28.4560   16.0370    9.4120 N.am  132  LEU132     -0.1965
     76  CA        27.6150   15.1520    8.6420 C.3   132  LEU132      0.1728
     77  C         28.4680   14.2930    7.7230 C.2   132  LEU132      0.2617
     78  O         29.6430   14.5590    7.4680 O.2   132  LEU132     -0.2715
     79  CB        26.5610   15.9310    7.8650 C.3   132  LEU132      0.0311
     80  CG        26.9710   17.0560    6.9440 C.3   132  LEU132      0.0022
     81  CD1       27.4570   16.5600    5.5770 C.3   132  LEU132      0.0001
     82  CD2       25.8230   18.0440    6.6970 C.3   132  LEU132      0.0001
     83  N         27.8370   13.2740    7.1650 N.am  133  GLY133     -0.1940
     84  CA        28.5030   12.3910    6.2440 C.3   133  GLY133      0.2014
     85  C         27.6660   11.1650    5.9330 C.2   133  GLY133      0.2639
     86  O         26.5660   11.0210    6.4500 O.2   133  GLY133     -0.2714
     87  N         28.2080   10.2970    5.0940 N.am  134  TRP134     -0.1959
     88  CA        27.5960    9.0010    4.7800 C.3   134  TRP134      0.1771
     89  C         28.6650    8.1160    4.1480 C.2   134  TRP134      0.2619
     90  O         29.8030    8.5290    3.8810 O.2   134  TRP134     -0.2715
     91  CB        26.3980    9.1700    3.9080 C.3   134  TRP134      0.0590
     92  CG        26.5320    9.6630    2.5280 C.ar  134  TRP134      0.0006
     93  CD1       26.3220    8.8970    1.4130 C.ar  134  TRP134      0.0946
     94  CD2       26.8720   10.9730    2.0670 C.ar  134  TRP134      0.0152
     95  NE1       26.5230    9.6770    0.3000 N.ar  134  TRP134     -0.2442
     96  CE2       26.8610   10.9470    0.6690 C.ar  134  TRP134      0.0810
     97  CE3       27.2000   12.1920    2.6750 C.ar  134  TRP134      0.0012
     98  CZ2       27.1490   12.0510   -0.1330 C.ar  134  TRP134      0.0191
     99  CZ3       27.4860   13.2950    1.8970 C.ar  134  TRP134      0.0001
    100  CH2       27.4600   13.2220    0.4900 C.ar  134  TRP134      0.0015
    101  N         28.3120    6.8650    3.9380 N.am  135  CYS135     -0.1968
    102  CA        29.2140    5.8710    3.3940 C.3   135  CYS135      0.1712
    103  C         29.9370    6.3680    2.1420 C.2   135  CYS135      0.2296
    104  O         29.3030    6.7340    1.1530 O.2   135  CYS135     -0.2864
    105  CB        28.4050    4.6100    3.0670 C.3   135  CYS135      0.0983
    106  SG        29.2510    3.3480    2.1260 S.3   135  CYS135     -0.0798
    107  N         33.2920   15.9080   10.6020 N.3   165  SER165     -0.1217
    108  CA        33.1280   14.7860   11.4990 C.3   165  SER165      0.1889
    109  C         33.4310   13.4490   10.8420 C.2   165  SER165      0.2288
    110  O         32.9660   13.1830    9.7400 O.2   165  SER165     -0.2866
    111  CB        31.6770   14.7510   11.9580 C.3   165  SER165      0.2089
    112  OG        31.2710   15.9690   12.5690 O.3   165  SER165     -0.2183
    113  N         32.4550   10.3750   11.6310 N.3   167  GLY167     -0.1210
    114  CA        31.3770    9.4300   11.7080 C.3   167  GLY167      0.1956
    115  C         31.1250    8.8700   13.0790 C.2   167  GLY167      0.2612
    116  O         31.9980    8.9260   13.9490 O.2   167  GLY167     -0.2717
    117  N         29.9480    8.2810   13.2560 N.am  168  ASP168     -0.1959
    118  CA        29.4510    7.8450   14.5640 C.3   168  ASP168      0.1840
    119  C         29.2270    6.3530   14.6180 C.2   168  ASP168      0.2621
    120  O         28.6170    5.8550   15.5770 O.2   168  ASP168     -0.2715
    121  CB        28.1350    8.5660   14.8350 C.3   168  ASP168      0.1450
    122  CG        28.2640   10.0290   15.1980 C.2   168  ASP168      0.3671
    123  OD1       29.4190   10.5380   15.2800 O.co2 168  ASP168     -0.2456
    124  OD2       27.1760   10.6330   15.3990 O.co2 168  ASP168     -0.2456
    125  N         29.7050    5.6220   13.6220 N.am  169  GLU169     -0.1977
    126  CA        29.3980    4.2070   13.4100 C.3   169  GLU169      0.1602
    127  C         30.6470    3.3640   13.6010 C.2   169  GLU169      0.2287
    128  O         30.6870    2.2040   13.2020 O.2   169  GLU169     -0.2864
    129  CB        28.8660    3.9720   11.9910 C.3   169  GLU169      0.0415
    130  CG        27.5200    4.5890   11.6610 C.3   169  GLU169      0.1163
    131  CD        27.3160    6.0570   11.9400 C.2   169  GLU169      0.3649
    132  OE1       27.9650    6.9090   11.2700 O.co2 169  GLU169     -0.2457
    133  OE2       26.5680    6.3830   12.8830 O.co2 169  GLU169     -0.2457
    134  N         30.6600    2.0670    8.8620 N.3   173  GLU173     -0.1245
    135  CA        29.9440    3.1760    8.2480 C.3   173  GLU173      0.1567
    136  C         29.0350    2.7300    7.1080 C.2   173  GLU173      0.2260
    137  O         27.9600    3.2970    6.9520 O.2   173  GLU173     -0.2867
    138  CB        30.9390    4.2550    7.7540 C.3   173  GLU173      0.0388
    139  CG        30.2000    5.4540    7.1850 C.3   173  GLU173      0.1160
    140  CD        29.3510    6.0860    8.2800 C.2   173  GLU173      0.3649
    141  OE1       29.8660    6.2150    9.4070 O.co2 173  GLU173     -0.2457
    142  OE2       28.1910    6.4300    7.9650 O.co2 173  GLU173     -0.2457
    143  N         24.5660    1.6290    8.3810 N.3   177  ARG177     -0.1245
    144  CA        24.9950    2.6790    9.2860 C.3   177  ARG177      0.1563
    145  C         25.1690    2.1340   10.6930 C.2   177  ARG177      0.2260
    146  O         24.3890    2.4070   11.6200 O.2   177  ARG177     -0.2867
    147  CB        24.0010    3.8210    9.2570 C.3   177  ARG177      0.0307
    148  CG        24.5740    5.2450    9.3380 C.3   177  ARG177      0.0489
    149  CD        23.4000    6.1680    9.1070 C.3   177  ARG177      0.2205
    150  NE        23.1390    7.2000   10.0880 N.pl3 177  ARG177     -0.0865
    151  CZ        22.3420    7.1350   11.1440 C.cat 177  ARG177      0.5346
    152  NH1       21.6620    6.0190   11.4200 N.pl3 177  ARG177      0.1354
    153  NH2       22.2080    8.1870   11.9460 N.pl3 177  ARG177      0.1354
    154  N         33.5170    7.2300    6.1700 N.3   188  SER188     -0.1217
    155  CA        32.5920    8.2750    5.8160 C.3   188  SER188      0.1889
    156  C         33.1790    9.3210    4.8700 C.2   188  SER188      0.2288
    157  O         34.3290    9.7300    4.9930 O.2   188  SER188     -0.2866
    158  CB        32.1410    8.9820    7.1120 C.3   188  SER188      0.2089
    159  OG        31.1600    9.9710    6.8720 O.3   188  SER188     -0.2183
    160  N         26.4520   14.2090   22.1950 N.3   282  GLY282     -0.1210
    161  CA        27.7750   13.8820   21.6990 C.3   282  GLY282      0.1956
    162  C         27.7860   13.6320   20.2050 C.2   282  GLY282      0.2612
    163  O         26.9980   14.2020   19.4650 O.2   282  GLY282     -0.2717
    164  N         28.6680   12.7680   19.7820 N.am  283  GLY283     -0.1942
    165  CA        28.9780   12.4480   18.4280 C.3   283  GLY283      0.2014
    166  C         30.2090   13.0960   17.9260 C.2   283  GLY283      0.2640
    167  O         30.7070   14.0720   18.4830 O.2   283  GLY283     -0.2714
    168  N         30.7480   12.5890   16.7900 N.am  284  THR284     -0.1936
    169  CA        31.7850   13.3750   16.1230 C.3   284  THR284      0.2028
    170  C         31.2280   14.6840   15.5930 C.2   284  THR284      0.2642
    171  O         32.0080   15.5950   15.2420 O.2   284  THR284     -0.2714
    172  CB        32.5030   12.5780   14.9990 C.3   284  THR284      0.1808
    173  OG1       31.5270   12.1040   14.0690 O.3   284  THR284     -0.2208
    174  CG2       33.3200   11.4250   15.5830 C.3   284  THR284      0.0379
    175  N         29.9140   14.8270   15.5470 N.am  285  SER285     -0.1949
    176  CA        29.2080   16.0870   15.3150 C.3   285  SER285      0.1924
    177  C         29.5470   17.1340   16.3690 C.2   285  SER285      0.2314
    178  O         29.3680   18.3160   16.0880 O.2   285  SER285     -0.2863
    179  CB        27.6930   15.9020   15.3650 C.3   285  SER285      0.2116
    180  OG        27.2760   15.1100   14.2610 O.3   285  SER285     -0.2180
@<TRIPOS>BOND
     1    53    54    1
     2    55    54    1
     3    55    56    2
     4    54    57    1
     5    57    58    1
     6    59    58    2
     7    58    60   am
     8    61    62    1
     9    63    64    2
    10    63    62    1
    11    62    65    1
    12    98   100   ar
    13    98    96   ar
    14    95    96   ar
    15    95    93   ar
    16    65    66    1
    17   100    99   ar
    18    96    94   ar
    19   104   103    2
    20    93    92   ar
    21    66    68    1
    22    66    67    1
    23    99    97   ar
    24    94    92   ar
    25    94    97   ar
    26   106   105    1
    27   103   102    1
    28    92    91    1
    29   105   102    1
    30   102   101    1
    31    90    89    2
    32    91    88    1
    33   101    89   am
    34    89    88    1
    35    88    87    1
    36     7     5    1
    37   156   157    2
    38   156   155    1
    39    87    85   am
    40     6     8    1
    41     6     5    1
    42    81    80    1
    43     2     5    1
    44     2     3    1
    45     2     1    1
    46   155   154    1
    47   155   158    1
    48    85    84    1
    49    85    86    2
    50     3     4    2
    51    84    83    1
    52    82    80    1
    53   159   158    1
    54    80    79    1
    55   137   136    2
    56   136   135    1
    57    83    77   am
    58   139   138    1
    59   139   140    1
    60    78    77    2
    61    77    76    1
    62   138   135    1
    63    79    76    1
    64   142   140   ar
    65   135   134    1
    66   140   141   ar
    67   143   144    1
    68    16    14   ar
    69    76    75    1
    70   149   148    1
    71   149   150    1
    72    13    14    1
    73    13    10    1
    74   147   144    1
    75   147   148    1
    76   144   145    1
    77    14    15   ar
    78    52    50   ar
    79    52    51   ar
    80    75    71   am
    81     9    10    1
    82    50    48   ar
    83   110   109    2
    84    10    11    1
    85   150   151    2
    86    51    49   ar
    87    69    70    1
    88    48    47   ar
    89    48    46   ar
    90    71    72    2
    91    71    70    1
    92   107   108    1
    93   145   146    2
    94    47    45   ar
    95   109   108    1
    96    49    46   ar
    97    24    23    2
    98   151   152    1
    99   151   153    1
   100    70    73    1
   101    46    44   ar
   102   132   131   ar
   103    11    12    2
   104   108   111    1
   105   113   114    1
   106   130   131    1
   107   130   129    1
   108   114   115    1
   109    45    44   ar
   110   131   133   ar
   111   111   112    1
   112   129   126    1
   113    44    43    1
   114    27    26    1
   115    27    28    1
   116    23    25   am
   117    23    22    1
   118    73    74    1
   119    26    19   am
   120    35    34    1
   121    35    36    1
   122   115   117   am
   123   115   116    2
   124    43    40    1
   125    28    29    2
   126   128   127    2
   127   117   118    1
   128   126   127    1
   129   126   125    1
   130    22    21    1
   131    17    18    1
   132    21    18    1
   133    37    36   ar
   134    34    31    1
   135   125   119   am
   136    36    38   ar
   137    19    18    1
   138    19    20    2
   139   173   172    1
   140    40    39    1
   141    40    41    1
   142   180   179    1
   143    39    32   am
   144   118   119    1
   145   118   121    1
   146   119   120    2
   147   121   122    1
   148    32    31    1
   149    32    33    2
   150    31    30    1
   151   172   174    1
   152   172   169    1
   153   122   123   ar
   154   122   124   ar
   155   171   170    2
   156   176   179    1
   157   176   175    1
   158   176   177    1
   159    41    42    2
   160   175   170   am
   161   170   169    1
   162   178   177    2
   163   169   168    1
   164   168   166   am
   165   166   165    1
   166   166   167    2
   167   165   164    1
   168   163   162    2
   169   164   162   am
   170   162   161    1
   171   161   160    1
