@<TRIPOS>MOLECULE
tmp/6m9hA00.pdb
 143 137 0 0 0
SMALL
GASTEIGER

@<TRIPOS>ATOM
      1  N        -10.8140   14.5340   27.7130 N.3    16  LEU16      -0.1231
      2  CA       -11.2150   13.8370   26.5060 C.3    16  LEU16       0.1693
      3  C        -10.5430   12.4760   26.3900 C.2    16  LEU16       0.2593
      4  O        -10.7050   11.8100   25.3670 O.2    16  LEU16      -0.2718
      5  CB       -10.8870   14.6790   25.2740 C.3    16  LEU16       0.0284
      6  CG       -11.5640   16.0410   25.1770 C.3    16  LEU16       0.0019
      7  CD1      -11.0720   16.7690   23.9300 C.3    16  LEU16       0.0001
      8  CD2      -13.0670   15.8770   25.1370 C.3    16  LEU16       0.0001
      9  N         -9.7830   12.0560   27.3900 N.am   17  GLY17      -0.1942
     10  CA        -9.2120   10.7310   27.3640 C.3    17  GLY17       0.2014
     11  C         -7.7520   10.7670   27.7440 C.2    17  GLY17       0.2638
     12  O         -7.2680   11.7250   28.3630 O.2    17  GLY17      -0.2714
     13  N         -7.0510    9.7010   27.3560 N.am   18  GLN18      -0.1977
     14  CA        -5.6630    9.4810   27.7270 C.3    18  GLN18       0.1601
     15  C         -4.8890    8.8880   26.5610 C.2    18  GLN18       0.2287
     16  O         -5.4540    8.2210   25.6910 O.2    18  GLN18      -0.2864
     17  CB        -5.5400    8.5280   28.9180 C.3    18  GLN18       0.0394
     18  CG        -6.1880    8.9920   30.1890 C.3    18  GLN18       0.0908
     19  CD        -6.1460    7.9170   31.2510 C.2    18  GLN18       0.2608
     20  OE1       -5.8390    6.7600   30.9600 O.2    18  GLN18      -0.2717
     21  NE2       -6.4510    8.2890   32.4880 N.am   18  GLN18      -0.0878
     22  N         -5.5710   14.0510   27.9590 N.3    24  ILE24      -0.1245
     23  CA        -6.0600   14.9220   26.9000 C.3    24  ILE24       0.1561
     24  C         -7.2610   15.7030   27.4180 C.2    24  ILE24       0.2260
     25  O         -8.1590   15.1090   28.0150 O.2    24  ILE24      -0.2867
     26  CB        -6.4580   14.0900   25.6680 C.3    24  ILE24       0.0252
     27  CG1       -5.3430   13.1130   25.3260 C.3    24  ILE24       0.0019
     28  CG2       -6.7280   14.9680   24.5270 C.3    24  ILE24       0.0019
     29  CD1       -4.1280   13.8070   24.8720 C.3    24  ILE24       0.0001
     30  N         -6.9900   21.6470   21.8360 N.3    44  LEU44      -0.1245
     31  CA        -6.8020   20.3410   22.4140 C.3    44  LEU44       0.1561
     32  C         -5.5020   20.4540   23.2150 C.2    44  LEU44       0.2260
     33  O         -4.5270   20.7820   22.6850 O.2    44  LEU44      -0.2867
     34  CB        -6.6600   19.2860   21.3470 C.3    44  LEU44       0.0270
     35  CG        -6.7130   17.8300   21.7320 C.3    44  LEU44       0.0019
     36  CD1       -5.3940   17.2380   22.0530 C.3    44  LEU44       0.0001
     37  CD2       -7.8040   17.3430   22.6260 C.3    44  LEU44       0.0001
     38  N         -2.7490   18.5100   25.3590 N.3    46  LYS46      -0.1245
     39  CA        -2.2180   17.1730   25.5600 C.3    46  LYS46       0.1561
     40  C         -1.1220   17.3050   26.6030 C.2    46  LYS46       0.2260
     41  O         -0.1580   18.0480   26.3990 O.2    46  LYS46      -0.2867
     42  CB        -1.7300   16.6050   24.2220 C.3    46  LYS46       0.0271
     43  CG        -1.1390   15.2320   24.2590 C.3    46  LYS46       0.0035
     44  CD        -0.9310   14.6970   22.8060 C.3    46  LYS46       0.0206
     45  CE        -2.2420   14.6370   22.0000 C.3    46  LYS46       0.1093
     46  NZ        -2.0640   14.1740   20.5650 N.3    46  LYS46      -0.1314
     47  N         -2.8240   21.9020   20.4880 N.3    91  GLN91      -0.1231
     48  CA        -3.1800   21.4600   19.1390 C.3    91  GLN91       0.1698
     49  C         -4.5760   21.9550   18.7530 C.2    91  GLN91       0.2592
     50  O         -5.3930   22.3080   19.6150 O.2    91  GLN91      -0.2718
     51  CB        -3.1000   19.9260   19.0950 C.3    91  GLN91       0.0381
     52  CG        -3.7450   19.2100   17.9330 C.3    91  GLN91       0.0905
     53  CD        -3.6240   17.7040   18.1100 C.2    91  GLN91       0.2608
     54  OE1       -4.6260   16.9920   18.2610 O.2    91  GLN91      -0.2717
     55  NE2       -2.3870   17.2170   18.1150 N.am   91  GLN91      -0.0878
     56  N         -4.8460   22.0300   17.4410 N.am   92  GLU92      -0.1966
     57  CA        -6.1720   22.4410   17.0000 C.3    92  GLU92       0.1733
     58  C         -7.2170   21.4940   17.5750 C.2    92  GLU92       0.2616
     59  O         -6.9920   20.2880   17.6970 O.2    92  GLU92      -0.2715
     60  CB        -6.2750   22.4490   15.4640 C.3    92  GLU92       0.0429
     61  CG        -6.1440   21.0510   14.8430 C.3    92  GLU92       0.1163
     62  CD        -6.3310   21.0410   13.3260 C.2    92  GLU92       0.3649
     63  OE1       -7.3620   21.5540   12.8470 O.co2  92  GLU92      -0.2457
     64  OE2       -5.4440   20.5190   12.6080 O.co2  92  GLU92      -0.2457
     65  N         -8.3730   22.0410   17.9340 N.am   93  PHE93      -0.1960
     66  CA        -9.4640   21.2100   18.4240 C.3    93  PHE93       0.1771
     67  C        -10.2910   20.7410   17.2320 C.2    93  PHE93       0.2619
     68  O        -10.8100   21.5570   16.4710 O.2    93  PHE93      -0.2715
     69  CB       -10.3490   21.9630   19.4200 C.3    93  PHE93       0.0574
     70  CG       -11.4760   21.1330   19.9350 C.ar   93  PHE93      -0.0200
     71  CD1      -11.2290   20.1190   20.8620 C.ar   93  PHE93      -0.0042
     72  CD2      -12.7660   21.3450   19.4880 C.ar   93  PHE93      -0.0042
     73  CE1      -12.2730   19.3330   21.3430 C.ar   93  PHE93      -0.0003
     74  CE2      -13.8080   20.5710   19.9590 C.ar   93  PHE93      -0.0003
     75  CZ       -13.5590   19.5670   20.8950 C.ar   93  PHE93      -0.0000
     76  N        -10.4220   19.4300   17.0810 N.am   94  VAL94      -0.1963
     77  CA       -11.1290   18.8350   15.9600 C.3    94  VAL94       0.1727
     78  C        -12.5330   18.4650   16.4130 C.2    94  VAL94       0.2616
     79  O        -12.7070   17.8470   17.4700 O.2    94  VAL94      -0.2715
     80  CB       -10.3520   17.6230   15.4370 C.3    94  VAL94       0.0290
     81  CG1      -11.2500   16.7370   14.6280 C.3    94  VAL94       0.0023
     82  CG2       -9.1570   18.1180   14.6510 C.3    94  VAL94       0.0023
     83  N        -13.5370   18.8370   15.6180 N.am   95  LYS95      -0.1963
     84  CA       -14.9160   18.7770   16.1010 C.3    95  LYS95       0.1728
     85  C        -15.3780   17.3480   16.4280 C.2    95  LYS95       0.2616
     86  O        -16.1430   17.1440   17.3810 O.2    95  LYS95      -0.2715
     87  CB       -15.8510   19.4150   15.0740 C.3    95  LYS95       0.0311
     88  CG       -17.2610   19.6110   15.5770 C.3    95  LYS95       0.0038
     89  CD       -18.1040   20.4140   14.6020 C.3    95  LYS95       0.0206
     90  CE       -19.5210   20.5650   15.1410 C.3    95  LYS95       0.1093
     91  NZ       -20.4000   21.3790   14.2580 N.3    95  LYS95      -0.1314
     92  N        -14.9530   16.3480   15.6660 N.am   96  PHE96      -0.1960
     93  CA       -15.5720   15.0360   15.8210 C.3    96  PHE96       0.1771
     94  C        -14.6570   14.0140   16.4780 C.2    96  PHE96       0.2620
     95  O        -15.0120   12.8240   16.5380 O.2    96  PHE96      -0.2715
     96  CB       -16.0910   14.5460   14.4600 C.3    96  PHE96       0.0574
     97  CG       -17.1670   15.4300   13.8990 C.ar   96  PHE96      -0.0200
     98  CD1      -18.4740   15.3170   14.3490 C.ar   96  PHE96      -0.0042
     99  CD2      -16.8680   16.4030   12.9570 C.ar   96  PHE96      -0.0042
    100  CE1      -19.4750   16.1560   13.8570 C.ar   96  PHE96      -0.0003
    101  CE2      -17.8480   17.2340   12.4590 C.ar   96  PHE96      -0.0003
    102  CZ       -19.1590   17.1210   12.9120 C.ar   96  PHE96      -0.0000
    103  N        -13.4820   14.4340   16.9530 N.am   97  GLY97      -0.1940
    104  CA       -12.6390   13.5790   17.7670 C.3    97  GLY97       0.2014
    105  C        -11.8620   12.5370   16.9760 C.2    97  GLY97       0.2639
    106  O        -11.6500   12.6330   15.7510 O.2    97  GLY97      -0.2714
    107  N        -11.4260   11.5150   17.7020 N.am   98  SER98      -0.1949
    108  CA       -10.5350   10.5140   17.1300 C.3    98  SER98       0.1924
    109  C        -11.3320    9.4130   16.4330 C.2    98  SER98       0.2314
    110  O        -12.4710    9.1110   16.7920 O.2    98  SER98      -0.2863
    111  CB        -9.6330    9.9210   18.2100 C.3    98  SER98       0.2116
    112  OG       -10.4090    9.2660   19.1940 O.3    98  SER98      -0.2180
    113  N         -6.7320    5.6090   16.6160 N.3   142  LYS142     -0.1231
    114  CA        -6.7150    6.5760   17.7090 C.3   142  LYS142      0.1693
    115  C         -5.9350    7.8370   17.3350 C.2   142  LYS142      0.2592
    116  O         -6.2220    8.9120   17.8740 O.2   142  LYS142     -0.2718
    117  CB        -6.1480    5.9240   18.9760 C.3   142  LYS142      0.0285
    118  CG        -6.1860    6.7880   20.2210 C.3   142  LYS142      0.0035
    119  CD        -5.8510    5.9900   21.4840 C.3   142  LYS142      0.0206
    120  CE        -6.0880    6.8670   22.7110 C.3   142  LYS142      0.1093
    121  NZ        -6.0520    6.0670   23.9550 N.3   142  LYS142     -0.1314
    122  N         -5.0010    7.7500   16.3910 N.am  143  ASN143     -0.1974
    123  CA        -4.2360    8.9130   15.9580 C.3   143  ASN143      0.1688
    124  C         -4.7540    9.5090   14.6450 C.2   143  ASN143      0.2292
    125  O         -4.0340   10.2760   13.9930 O.2   143  ASN143     -0.2864
    126  CB        -2.7410    8.5650   15.8590 C.3   143  ASN143      0.1181
    127  CG        -2.0750    8.5040   17.2100 C.2   143  ASN143      0.2629
    128  OD1       -2.5320    9.1470   18.1570 O.2   143  ASN143     -0.2716
    129  ND2       -0.9640    7.7570   17.3080 N.am  143  ASN143     -0.0877
    130  N         -7.9600   11.9140   13.2420 N.3   145  LEU145     -0.1245
    131  CA        -8.9800   12.8360   13.7190 C.3   145  LEU145      0.1561
    132  C         -9.9700   13.1610   12.6140 C.2   145  LEU145      0.2260
    133  O         -9.5760   13.4060   11.4630 O.2   145  LEU145     -0.2867
    134  CB        -8.3340   14.1340   14.2200 C.3   145  LEU145      0.0270
    135  CG        -7.1350   13.9140   15.1540 C.3   145  LEU145      0.0019
    136  CD1       -6.4710   15.2520   15.5140 C.3   145  LEU145      0.0001
    137  CD2       -7.6020   13.1690   16.4030 C.3   145  LEU145      0.0001
    138  N         -2.8370   12.5930   13.3120 N.3   163  SER163     -0.1217
    139  CA        -2.3380   13.3230   14.4740 C.3   163  SER163      0.1889
    140  C         -0.9050   12.8940   14.7880 C.2   163  SER163      0.2288
    141  O         -0.3440   12.0370   14.1120 O.2   163  SER163     -0.2866
    142  CB        -3.2580   13.1020   15.6760 C.3   163  SER163      0.2089
    143  OG        -2.9750   14.0230   16.7350 O.3   163  SER163     -0.2183
@<TRIPOS>BOND
     1   133   132    2
     2   101   102   ar
     3   101    99   ar
     4    64    62   ar
     5   132   131    1
     6    63    62   ar
     7   102   100   ar
     8    99    97   ar
     9   130   131    1
    10   138   139    1
    11    62    61    1
    12   131   134    1
    13   100    98   ar
    14    97    98   ar
    15    97    96    1
    16   125   124    2
    17   141   140    2
    18   134   135    1
    19    91    90    1
    20    96    93    1
    21   139   140    1
    22   139   142    1
    23    89    90    1
    24    89    88    1
    25    81    80    1
    26   124   123    1
    27    82    80    1
    28    61    60    1
    29    87    88    1
    30    87    84    1
    31   135   136    1
    32   135   137    1
    33    80    77    1
    34    60    57    1
    35    83    84    1
    36    83    78   am
    37    92    93    1
    38    92    85   am
    39   142   143    1
    40   106   105    2
    41    93    94    1
    42   126   123    1
    43   126   127    1
    44   123   122    1
    45    77    78    1
    46    77    76    1
    47    84    85    1
    48   122   115   am
    49    78    79    2
    50    85    86    2
    51   109   110    2
    52   109   108    1
    53    68    67    2
    54    94    95    2
    55    94   103   am
    56   113   114    1
    57   103   104    1
    58   105   107   am
    59   105   104    1
    60    57    56    1
    61    57    58    1
    62    76    67   am
    63   108   107    1
    64   108   111    1
    65   127   129   am
    66   127   128    2
    67    67    66    1
    68   115   114    1
    69   115   116    2
    70    56    49   am
    71    58    59    2
    72    58    65   am
    73   114   117    1
    74    52    53    1
    75    52    51    1
    76    65    66    1
    77    53    55   am
    78    53    54    2
    79   111   112    1
    80    66    69    1
    81    49    48    1
    82    49    50    2
    83   117   118    1
    84    51    48    1
    85    48    47    1
    86    69    70    1
    87    72    70   ar
    88    72    74   ar
    89    70    71   ar
    90    74    75   ar
    91   118   119    1
    92    46    45    1
    93    71    73   ar
    94    75    73   ar
    95    34    35    1
    96    34    31    1
    97   119   120    1
    98    35    36    1
    99    35    37    1
   100    30    31    1
   101    45    44    1
   102    31    32    1
   103    33    32    2
   104   120   121    1
   105    44    43    1
   106     7     6    1
   107    42    43    1
   108    42    39    1
   109    28    26    1
   110    29    27    1
   111     8     6    1
   112     6     5    1
   113     5     2    1
   114    27    26    1
   115    38    39    1
   116     4     3    2
   117    39    40    1
   118    26    23    1
   119    16    15    2
   120     3     2    1
   121     3     9   am
   122    41    40    2
   123     2     1    1
   124    15    14    1
   125    23    24    1
   126    23    22    1
   127    13    14    1
   128    13    11   am
   129    10     9    1
   130    10    11    1
   131    24    25    2
   132    14    17    1
   133    11    12    2
   134    17    18    1
   135    18    19    1
   136    20    19    2
   137    19    21   am
