@<TRIPOS>MOLECULE
tmp/6m9rA00.pdb
 175 165 0 0 0
SMALL
GASTEIGER

@<TRIPOS>ATOM
      1  N         -6.0920   18.4810   45.6180 N.3    29  ASP29      -0.1239
      2  CA        -6.8590   17.7340   46.6110 C.3    29  ASP29       0.1674
      3  C         -7.9540   16.8770   45.9490 C.2    29  ASP29       0.2266
      4  O         -8.6580   17.3170   45.0360 O.2    29  ASP29      -0.2867
      5  CB        -7.5290   18.6870   47.6160 C.3    29  ASP29       0.1410
      6  CG        -6.5640   19.2720   48.6570 C.2    29  ASP29       0.3668
      7  OD1       -5.3640   18.9170   48.6910 O.co2  29  ASP29      -0.2456
      8  OD2       -7.0270   20.1320   49.4540 O.co2  29  ASP29      -0.2456
      9  N         -1.2220   18.3690   48.3680 N.3    45  ARG45      -0.1245
     10  CA        -1.7040   19.5640   49.0770 C.3    45  ARG45       0.1563
     11  C         -0.8770   20.7950   48.7220 C.2    45  ARG45       0.2260
     12  O         -0.3030   21.4600   49.5860 O.2    45  ARG45      -0.2867
     13  CB        -1.7790   19.3220   50.5950 C.3    45  ARG45       0.0307
     14  CG        -2.7330   18.1800   50.9520 C.3    45  ARG45       0.0489
     15  CD        -2.8970   17.9990   52.4510 C.3    45  ARG45       0.2205
     16  NE        -3.7850   18.9890   53.0720 N.pl3  45  ARG45      -0.0865
     17  CZ        -3.4470   19.8610   54.0270 C.cat  45  ARG45       0.5346
     18  NH1       -2.2030   19.9350   54.4990 N.pl3  45  ARG45       0.1354
     19  NH2       -4.3730   20.6840   54.5190 N.pl3  45  ARG45       0.1354
     20  N         -1.4950   23.7780   47.9940 N.3    47  GLN47      -0.1231
     21  CA        -1.8650   25.0430   48.6310 C.3    47  GLN47       0.1698
     22  C         -1.0600   25.3700   49.9010 C.2    47  GLN47       0.2592
     23  O         -0.9210   26.5450   50.2550 O.2    47  GLN47      -0.2718
     24  CB        -3.3860   25.1090   48.8940 C.3    47  GLN47       0.0381
     25  CG        -3.9320   24.1300   49.9280 C.3    47  GLN47       0.0905
     26  CD        -4.1420   22.7090   49.4110 C.2    47  GLN47       0.2608
     27  OE1       -3.7640   22.3680   48.2880 O.2    47  GLN47      -0.2717
     28  NE2       -4.7640   21.8820   50.2300 N.am   47  GLN47      -0.0878
     29  N         -0.5210   24.3500   50.5720 N.am   48  VAL48      -0.1980
     30  CA         0.2650   24.5540   51.8000 C.3    48  VAL48       0.1595
     31  C          1.7570   24.7640   51.4870 C.2    48  VAL48       0.2287
     32  O          2.4870   25.3720   52.2730 O.2    48  VAL48      -0.2864
     33  CB         0.0810   23.3760   52.7940 C.3    48  VAL48       0.0276
     34  CG1        0.7320   23.6810   54.1410 C.3    48  VAL48       0.0022
     35  CG2       -1.3980   23.0930   53.0000 C.3    48  VAL48       0.0022
     36  N        -12.8190   28.8190   60.7630 N.3   381  LEU381     -0.1245
     37  CA       -13.0490   28.2390   59.4480 C.3   381  LEU381      0.1561
     38  C        -14.5350   28.0730   59.1600 C.2   381  LEU381      0.2260
     39  O        -15.3130   27.7810   60.0650 O.2   381  LEU381     -0.2867
     40  CB       -12.3570   26.8780   59.3530 C.3   381  LEU381      0.0270
     41  CG       -10.8280   26.8960   59.5080 C.3   381  LEU381      0.0019
     42  CD1      -10.2800   25.4880   59.4070 C.3   381  LEU381      0.0001
     43  CD2      -10.1520   27.8260   58.5160 C.3   381  LEU381      0.0001
     44  N        -16.7210   26.1570   55.9940 N.3   383  GLU383     -0.1245
     45  CA       -16.5300   25.2770   54.8380 C.3   383  GLU383      0.1567
     46  C        -17.8530   24.6480   54.3960 C.2   383  GLU383      0.2260
     47  O        -18.6550   24.2430   55.2340 O.2   383  GLU383     -0.2867
     48  CB       -15.4900   24.1890   55.1630 C.3   383  GLU383      0.0388
     49  CG       -14.1050   24.7630   55.4510 C.3   383  GLU383      0.1160
     50  CD       -13.0400   23.7240   55.7460 C.2   383  GLU383      0.3649
     51  OE1      -13.3620   22.6160   56.2190 O.co2 383  GLU383     -0.2457
     52  OE2      -11.8540   24.0290   55.5040 O.co2 383  GLU383     -0.2457
     53  N        -16.3620   19.8570   51.1750 N.3   387  GLU387     -0.1231
     54  CA       -14.9860   20.3450   51.2030 C.3   387  GLU387      0.1699
     55  C        -14.1800   19.3560   52.0390 C.2   387  GLU387      0.2592
     56  O        -14.2470   19.3540   53.2760 O.2   387  GLU387     -0.2718
     57  CB       -14.8540   21.7620   51.7620 C.3   387  GLU387      0.0402
     58  CG       -13.3930   22.2270   51.7790 C.3   387  GLU387      0.1161
     59  CD       -13.1810   23.6570   51.3060 C.2   387  GLU387      0.3649
     60  OE1      -14.1570   24.4230   51.1440 O.co2 387  GLU387     -0.2457
     61  OE2      -12.0150   24.0200   51.0630 O.co2 387  GLU387     -0.2457
     62  N        -13.4620   18.4810   51.3510 N.am  388  LEU388     -0.1966
     63  CA       -12.7400   17.4100   52.0100 C.3   388  LEU388      0.1728
     64  C        -11.3110   17.8700   52.2560 C.2   388  LEU388      0.2617
     65  O        -10.5590   18.1340   51.3000 O.2   388  LEU388     -0.2715
     66  CB       -12.7920   16.1410   51.1550 C.3   388  LEU388      0.0311
     67  CG       -12.4370   14.8360   51.8800 C.3   388  LEU388      0.0022
     68  CD1      -13.0040   13.6480   51.1230 C.3   388  LEU388      0.0001
     69  CD2      -10.9320   14.6790   52.0640 C.3   388  LEU388      0.0001
     70  N        -10.9620   18.0040   53.5360 N.am  389  SER389     -0.1936
     71  CA        -9.6200   18.3570   53.9590 C.3   389  SER389      0.2055
     72  C         -8.7910   17.0940   53.8260 C.2   389  SER389      0.2643
     73  O         -8.9470   16.1550   54.6050 O.2   389  SER389     -0.2714
     74  CB        -9.5910   18.8420   55.4090 C.3   389  SER389      0.2130
     75  OG       -10.4630   19.9470   55.5900 O.3   389  SER389     -0.2179
     76  N         -7.9490   17.0680   52.8070 N.am  390  ASN390     -0.1971
     77  CA        -7.1140   15.8980   52.5360 C.3   390  ASN390      0.1688
     78  C         -6.1740   15.6850   53.7190 C.2   390  ASN390      0.2292
     79  O         -5.7960   16.6330   54.4190 O.2   390  ASN390     -0.2864
     80  CB        -6.3400   16.0530   51.2160 C.3   390  ASN390      0.1181
     81  CG        -7.1890   15.7920   49.9720 C.2   390  ASN390      0.2629
     82  OD1       -6.6930   15.2590   48.9840 O.2   390  ASN390     -0.2716
     83  ND2       -8.4630   16.1680   50.0010 N.am  390  ASN390     -0.0877
     84  N         -3.4390   15.1080   56.6100 N.3   392  HIS392     -0.1241
     85  CA        -2.2510   15.8710   56.9550 C.3   392  HIS392      0.1621
     86  C         -2.0020   15.6780   58.4590 C.2   392  HIS392      0.2264
     87  O         -2.6450   14.8480   59.0950 O.2   392  HIS392     -0.2867
     88  CB        -2.4800   17.3440   56.6170 C.3   392  HIS392      0.0745
     89  CG        -3.6790   17.9170   57.2950 C.ar  392  HIS392      0.0817
     90  ND1       -4.9480   17.7780   56.7810 N.ar  392  HIS392     -0.2268
     91  CD2       -3.8200   18.5460   58.4870 C.ar  392  HIS392      0.1154
     92  CE1       -5.8190   18.3130   57.6140 C.ar  392  HIS392      0.1986
     93  NE2       -5.1590   18.7870   58.6540 N.ar  392  HIS392     -0.2212
     94  N         -0.4410   18.1420   62.1460 N.3   394  HIS394     -0.1241
     95  CA         0.0330   19.3960   62.7160 C.3   394  HIS394      0.1621
     96  C          1.2100   19.1250   63.6450 C.2   394  HIS394      0.2264
     97  O          1.3750   18.0110   64.1210 O.2   394  HIS394     -0.2867
     98  CB        -1.1140   20.0900   63.4280 C.3   394  HIS394      0.0745
     99  CG        -2.3040   20.2820   62.5430 C.ar  394  HIS394      0.0817
    100  ND1       -2.2730   21.0960   61.4310 N.ar  394  HIS394     -0.2268
    101  CD2       -3.5340   19.7230   62.5660 C.ar  394  HIS394      0.1154
    102  CE1       -3.4440   21.0440   60.8190 C.ar  394  HIS394      0.1986
    103  NE2       -4.2240   20.2090   61.4840 N.ar  394  HIS394     -0.2212
    104  N        -10.0950   20.8620   67.7810 N.3   400  CYS400     -0.1235
    105  CA       -11.1260   21.1450   66.7910 C.3   400  CYS400      0.1677
    106  C        -12.4620   21.2870   67.5110 C.2   400  CYS400      0.2270
    107  O        -12.8810   20.3690   68.2150 O.2   400  CYS400     -0.2867
    108  CB       -11.2040   20.0140   65.7670 C.3   400  CYS400      0.0956
    109  SG       -12.4920   20.2240   64.5140 S.3   400  CYS400     -0.0801
    110  N        -19.4200   17.4460   60.7740 N.3   407  MET407     -0.1245
    111  CA       -18.1330   17.0770   60.1940 C.3   407  MET407      0.1570
    112  C        -17.8800   15.5840   60.3660 C.2   407  MET407      0.2261
    113  O        -18.1140   15.0290   61.4400 O.2   407  MET407     -0.2867
    114  CB       -17.0030   17.8740   60.8800 C.3   407  MET407      0.0387
    115  CG       -15.5900   17.5320   60.4250 C.3   407  MET407      0.0595
    116  SD       -14.3240   18.3730   61.3990 S.3   407  MET407     -0.1393
    117  CE       -14.4680   20.0390   60.7740 C.3   407  MET407      0.0692
    118  N        -14.8360   13.4700   60.8550 N.3   409  PHE409     -0.1241
    119  CA       -13.4350   13.6220   61.2150 C.3   409  PHE409      0.1605
    120  C        -12.7280   12.2820   61.0660 C.2   409  PHE409      0.2264
    121  O        -13.0800   11.3130   61.7320 O.2   409  PHE409     -0.2867
    122  CB       -13.2890   14.1620   62.6410 C.3   409  PHE409      0.0534
    123  CG       -11.8670   14.3750   63.0400 C.ar  409  PHE409     -0.0203
    124  CD1      -11.1800   15.5050   62.6150 C.ar  409  PHE409     -0.0042
    125  CD2      -11.1870   13.4130   63.7790 C.ar  409  PHE409     -0.0042
    126  CE1       -9.8390   15.6860   62.9480 C.ar  409  PHE409     -0.0003
    127  CE2       -9.8500   13.5980   64.1230 C.ar  409  PHE409     -0.0003
    128  CZ        -9.1800   14.7310   63.6950 C.ar  409  PHE409     -0.0000
    129  N         -6.8360   16.8290   68.6740 N.3   427  ILE427     -0.1245
    130  CA        -6.0150   16.3000   67.5700 C.3   427  ILE427      0.1561
    131  C         -4.5500   16.2430   68.0110 C.2   427  ILE427      0.2260
    132  O         -3.9000   17.2710   68.2150 O.2   427  ILE427     -0.2867
    133  CB        -6.1130   17.1570   66.2890 C.3   427  ILE427      0.0252
    134  CG1       -7.5630   17.3630   65.8660 C.3   427  ILE427      0.0019
    135  CG2       -5.3670   16.4900   65.1340 C.3   427  ILE427      0.0019
    136  CD1       -7.7410   18.3330   64.7220 C.3   427  ILE427      0.0001
    137  N         -4.6170   12.8010   59.8760 N.3   433  HIS433     -0.1226
    138  CA        -6.0590   13.0110   59.9790 C.3   433  HIS433      0.1752
    139  C         -6.5530   13.8950   58.8460 C.2   433  HIS433      0.2597
    140  O         -5.7790   14.6140   58.2250 O.2   433  HIS433     -0.2718
    141  CB        -6.3920   13.6580   61.3250 C.3   433  HIS433      0.0759
    142  CG        -5.9200   15.0690   61.4350 C.ar  433  HIS433      0.0818
    143  ND1       -4.6170   15.3940   61.7220 N.ar  433  HIS433     -0.2268
    144  CD2       -6.5630   16.2390   61.2290 C.ar  433  HIS433      0.1154
    145  CE1       -4.4780   16.7070   61.7170 C.ar  433  HIS433      0.1986
    146  NE2       -5.6400   17.2420   61.4020 N.ar  433  HIS433     -0.2212
    147  N         -7.8610   13.8540   58.6090 N.am  434  GLY434     -0.1942
    148  CA        -8.5120   14.7600   57.6700 C.3   434  GLY434      0.2014
    149  C         -9.9610   14.9540   58.0730 C.2   434  GLY434      0.2638
    150  O        -10.3660   14.5260   59.1610 O.2   434  GLY434     -0.2714
    151  N        -10.7420   15.5860   57.2030 N.am  435  ALA435     -0.1977
    152  CA       -12.1550   15.8040   57.4860 C.3   435  ALA435      0.1597
    153  C        -12.9730   16.0450   56.2320 C.2   435  ALA435      0.2287
    154  O        -12.4390   16.4380   55.1950 O.2   435  ALA435     -0.2864
    155  CB       -12.3250   16.9700   58.4530 C.3   435  ALA435      0.0319
    156  N        -16.4100   26.0370   62.2020 N.3   444  TYR444     -0.1241
    157  CA       -15.6000   25.4370   63.2470 C.3   444  TYR444      0.1605
    158  C        -14.3250   26.2070   63.5320 C.2   444  TYR444      0.2264
    159  O        -13.9600   27.1220   62.7940 O.2   444  TYR444     -0.2867
    160  CB       -15.3130   23.9570   62.9220 C.3   444  TYR444      0.0534
    161  CG       -14.3910   23.6520   61.7580 C.ar  444  TYR444     -0.0201
    162  CD1      -14.8650   23.5940   60.4480 C.ar  444  TYR444     -0.0009
    163  CD2      -13.0520   23.3370   61.9810 C.ar  444  TYR444     -0.0009
    164  CE1      -14.0200   23.2680   59.3920 C.ar  444  TYR444      0.0417
    165  CE2      -12.2050   23.0190   60.9350 C.ar  444  TYR444      0.0417
    166  CZ       -12.6870   22.9900   59.6410 C.ar  444  TYR444      0.1957
    167  OH       -11.8040   22.6520   58.6240 O.3   444  TYR444     -0.2866
    168  N        -10.1420   25.8490   64.9880 N.3   446  ILE446     -0.1245
    169  CA        -8.9620   25.0610   65.3400 C.3   446  ILE446      0.1561
    170  C         -8.1160   25.8920   66.3110 C.2   446  ILE446      0.2260
    171  O         -7.6070   26.9590   65.9470 O.2   446  ILE446     -0.2867
    172  CB        -8.1270   24.6790   64.0970 C.3   446  ILE446      0.0252
    173  CG1       -8.9680   23.8550   63.1100 C.3   446  ILE446      0.0019
    174  CG2       -6.8700   23.9100   64.4880 C.3   446  ILE446      0.0019
    175  CD1       -9.3300   22.4660   63.5870 C.3   446  ILE446      0.0001
@<TRIPOS>BOND
     1     4     3    2
     2     1     2    1
     3     3     2    1
     4     2     5    1
     5     5     6    1
     6    20    21    1
     7    27    26    2
     8     9    10    1
     9    21    24    1
    10    21    22    1
    11     6     7   ar
    12     6     8   ar
    13    11    10    1
    14    11    12    2
    15    24    25    1
    16    82    81    2
    17    10    13    1
    18    26    25    1
    19    26    28   am
    20    22    23    2
    21    22    29   am
    22    81    83   am
    23    81    80    1
    24    29    30    1
    25    13    14    1
    26    14    15    1
    27    61    59   ar
    28    68    67    1
    29    60    59   ar
    30    66    67    1
    31    66    63    1
    32    53    54    1
    33    54    57    1
    34    54    55    1
    35    80    77    1
    36    65    64    2
    37    59    58    1
    38    62    63    1
    39    62    55   am
    40    31    30    1
    41    31    32    2
    42    57    58    1
    43    30    33    1
    44    67    69    1
    45    63    64    1
    46    55    56    2
    47    64    70   am
    48    15    16    1
    49    77    76    1
    50    77    78    1
    51    33    35    1
    52    33    34    1
    53    76    72   am
    54    16    17    2
    55    70    71    1
    56    78    79    2
    57    72    71    1
    58    72    73    2
    59    71    74    1
    60    17    18    1
    61    17    19    1
    62    46    45    1
    63    46    47    2
    64    45    48    1
    65    45    44    1
    66    48    49    1
    67   154   153    2
    68    74    75    1
    69    49    50    1
    70    52    50   ar
    71    50    51   ar
    72   153   152    1
    73    84    85    1
    74    88    85    1
    75    88    89    1
    76    90    89   ar
    77    90    92   ar
    78    85    86    1
    79   151   152    1
    80   151   149   am
    81    89    91   ar
    82   152   155    1
    83    92    93   ar
    84   148   149    1
    85   148   147    1
    86   149   150    2
    87   140   139    2
    88    86    87    2
    89    91    93   ar
    90    43    41    1
    91   147   139   am
    92   167   166    1
    93   139   138    1
    94    38    37    1
    95    38    39    2
    96    40    37    1
    97    40    41    1
    98   164   166   ar
    99   164   162   ar
   100    42    41    1
   101    37    36    1
   102   166   165   ar
   103   137   138    1
   104   138   141    1
   105   111   112    1
   106   111   110    1
   107   111   114    1
   108   112   113    2
   109   115   114    1
   110   115   116    1
   111   162   161   ar
   112   117   116    1
   113   102   100   ar
   114   102   103   ar
   115   118   119    1
   116   165   163   ar
   117   120   119    1
   118   120   121    2
   119   119   122    1
   120   144   146   ar
   121   144   142   ar
   122   141   142    1
   123   146   145   ar
   124   100    99   ar
   125   142   143   ar
   126   103   101   ar
   127   145   143   ar
   128   161   163   ar
   129   161   160    1
   130    94    95    1
   131   156   157    1
   132    99   101   ar
   133    99    98    1
   134   124   126   ar
   135   124   123   ar
   136   122   123    1
   137    95    98    1
   138    95    96    1
   139   159   158    2
   140   160   157    1
   141   126   128   ar
   142   123   125   ar
   143   173   175    1
   144   173   172    1
   145   157   158    1
   146    96    97    2
   147   128   127   ar
   148   125   127   ar
   149   172   174    1
   150   172   169    1
   151   109   108    1
   152   136   134    1
   153   168   169    1
   154   135   133    1
   155   169   170    1
   156   108   105    1
   157   134   133    1
   158   171   170    2
   159   133   130    1
   160   105   106    1
   161   105   104    1
   162   106   107    2
   163   130   131    1
   164   130   129    1
   165   131   132    2
