@<TRIPOS>MOLECULE
tmp/6m9tA01.pdb
 114 109 0 0 0
SMALL
GASTEIGER

@<TRIPOS>ATOM
      1  N        137.0610  -16.3180  125.1400 N.3   374  GLU374     -0.1245
      2  CA       137.1220  -15.3080  126.2040 C.3   374  GLU374      0.1567
      3  C        135.8820  -15.4090  127.1050 C.2   374  GLU374      0.2260
      4  O        136.0260  -15.4150  128.3280 O.2   374  GLU374     -0.2867
      5  CB       137.2570  -13.8880  125.6230 C.3   374  GLU374      0.0388
      6  CG       138.6560  -13.5340  125.1480 C.3   374  GLU374      0.1160
      7  CD       138.8260  -12.0920  124.7110 C.2   374  GLU374      0.3649
      8  OE1      138.5450  -11.7890  123.5290 O.co2 374  GLU374     -0.2457
      9  OE2      139.2530  -11.2640  125.5480 O.co2 374  GLU374     -0.2457
     10  N        135.9060  -18.7550  129.2620 N.3   377  ILE377     -0.1231
     11  CA       136.7850  -18.5960  130.4270 C.3   377  ILE377      0.1692
     12  C        136.1310  -17.6840  131.4720 C.2   377  ILE377      0.2591
     13  O        136.2480  -17.9590  132.6660 O.2   377  ILE377     -0.2718
     14  CB       138.2100  -18.1230  130.0050 C.3   377  ILE377      0.0266
     15  CG1      138.9350  -19.1740  129.0980 C.3   377  ILE377      0.0019
     16  CG2      139.0800  -17.6940  131.1970 C.3   377  ILE377      0.0020
     17  CD1      139.1850  -20.6410  129.6860 C.3   377  ILE377      0.0001
     18  N        135.4170  -16.6320  131.0240 N.am  378  GLN378     -0.1979
     19  CA       134.7200  -15.7130  131.9250 C.3   378  GLN378      0.1601
     20  C        133.5680  -16.4200  132.6560 C.2   378  GLN378      0.2287
     21  O        133.4260  -16.2430  133.8620 O.2   378  GLN378     -0.2864
     22  CB       134.2180  -14.4700  131.1770 C.3   378  GLN378      0.0394
     23  CG       133.7790  -13.3500  132.1130 C.3   378  GLN378      0.0908
     24  CD       132.8650  -12.3600  131.4500 C.2   378  GLN378      0.2608
     25  OE1      133.2440  -11.2130  131.1940 O.2   378  GLN378     -0.2717
     26  NE2      131.6260  -12.7640  131.2000 N.am  378  GLN378     -0.0878
     27  N        135.0040  -18.7690  135.2730 N.3   381  ALA381     -0.1245
     28  CA       135.4670  -17.9480  136.3920 C.3   381  ALA381      0.1562
     29  C        134.3230  -17.5710  137.3310 C.2   381  ALA381      0.2260
     30  O        134.4870  -17.7130  138.5420 O.2   381  ALA381     -0.2867
     31  CB       136.1610  -16.6960  135.8810 C.3   381  ALA381      0.0290
     32  N        134.2970  -18.3950  141.3900 N.3   385  VAL385     -0.1245
     33  CA       134.2610  -17.2700  142.3270 C.3   385  VAL385      0.1561
     34  C        132.9870  -17.2990  143.1740 C.2   385  VAL385      0.2260
     35  O        133.0660  -17.2040  144.3960 O.2   385  VAL385     -0.2867
     36  CB       134.4680  -15.9020  141.6150 C.3   385  VAL385      0.0252
     37  CG1      134.3080  -14.7340  142.5870 C.3   385  VAL385      0.0019
     38  CG2      135.8290  -15.8370  140.9210 C.3   385  VAL385      0.0019
     39  N        133.0460  -10.6630  149.7380 N.3   421  LEU421     -0.1245
     40  CA       134.1390  -10.5920  148.7500 C.3   421  LEU421      0.1561
     41  C        133.6180  -10.7750  147.3160 C.2   421  LEU421      0.2260
     42  O        134.1590  -10.1720  146.3850 O.2   421  LEU421     -0.2867
     43  CB       135.2400  -11.6220  149.0960 C.3   421  LEU421      0.0270
     44  CG       136.4790  -11.6900  148.2180 C.3   421  LEU421      0.0019
     45  CD1      137.3790  -10.4870  148.4390 C.3   421  LEU421      0.0001
     46  CD2      137.2440  -12.9610  148.4810 C.3   421  LEU421      0.0001
     47  N        134.6500   -8.6410  143.8900 N.3   425  LEU425     -0.1245
     48  CA       135.1810   -9.2710  142.6800 C.3   425  LEU425      0.1561
     49  C        134.2740   -9.0920  141.4680 C.2   425  LEU425      0.2260
     50  O        134.7930   -9.0290  140.3530 O.2   425  LEU425     -0.2867
     51  CB       135.5390  -10.7510  142.9080 C.3   425  LEU425      0.0270
     52  CG       136.6860  -11.0270  143.9130 C.3   425  LEU425      0.0019
     53  CD1      136.6270  -12.4320  144.4450 C.3   425  LEU425      0.0001
     54  CD2      138.0450  -10.7810  143.2880 C.3   425  LEU425      0.0001
     55  N        135.2970   -6.8400  138.5400 N.3   428  TRP428     -0.1227
     56  CA       136.4960   -7.3830  137.9040 C.3   428  TRP428      0.1737
     57  C        136.1680   -8.5690  137.0010 C.2   428  TRP428      0.2595
     58  O        136.6250   -8.6030  135.8610 O.2   428  TRP428     -0.2718
     59  CB       137.5710   -7.7360  138.9490 C.3   428  TRP428      0.0564
     60  CG       138.0430   -6.5410  139.7230 C.ar  428  TRP428      0.0003
     61  CD1      137.5630   -6.0960  140.9190 C.ar  428  TRP428      0.0946
     62  CD2      139.0290   -5.5880  139.3080 C.ar  428  TRP428      0.0152
     63  NE1      138.2080   -4.9400  141.2890 N.ar  428  TRP428     -0.2442
     64  CE2      139.1140   -4.6040  140.3180 C.ar  428  TRP428      0.0810
     65  CE3      139.8660   -5.4770  138.1860 C.ar  428  TRP428      0.0012
     66  CZ2      139.9960   -3.5220  140.2380 C.ar  428  TRP428      0.0191
     67  CZ3      140.7350   -4.3990  138.1060 C.ar  428  TRP428      0.0001
     68  CH2      140.7990   -3.4410  139.1270 C.ar  428  TRP428      0.0015
     69  N        135.3530   -9.5170  137.5010 N.am  429  VAL429     -0.1966
     70  CA       134.9480  -10.7270  136.7840 C.3   429  VAL429      0.1727
     71  C        134.1100  -10.3850  135.5530 C.2   429  VAL429      0.2616
     72  O        134.4220  -10.8750  134.4690 O.2   429  VAL429     -0.2715
     73  CB       134.2420  -11.7540  137.7160 C.3   429  VAL429      0.0290
     74  CG1      133.7370  -12.9610  136.9350 C.3   429  VAL429      0.0023
     75  CG2      135.1670  -12.2110  138.8340 C.3   429  VAL429      0.0023
     76  N        133.0790   -9.5250  135.7120 N.am  430  TYR430     -0.1960
     77  CA       132.1600   -9.1400  134.6370 C.3   430  TYR430      0.1771
     78  C        132.6650   -8.1040  133.6560 C.2   430  TYR430      0.2619
     79  O        132.1710   -8.1020  132.5280 O.2   430  TYR430     -0.2715
     80  CB       130.8160   -8.6650  135.2050 C.3   430  TYR430      0.0574
     81  CG       130.0010   -9.7900  135.7970 C.ar  430  TYR430     -0.0198
     82  CD1      129.1840  -10.5850  134.9940 C.ar  430  TYR430     -0.0009
     83  CD2      130.0590  -10.0790  137.1570 C.ar  430  TYR430     -0.0009
     84  CE1      128.4590  -11.6480  135.5280 C.ar  430  TYR430      0.0417
     85  CE2      129.3320  -11.1330  137.7030 C.ar  430  TYR430      0.0417
     86  CZ       128.5400  -11.9210  136.8830 C.ar  430  TYR430      0.1957
     87  OH       127.8240  -12.9580  137.4270 O.3   430  TYR430     -0.2866
     88  N        133.5920   -7.1990  134.0490 N.am  431  LEU431     -0.1977
     89  CA       133.9890   -6.1440  133.1160 C.3   431  LEU431      0.1596
     90  C        135.4680   -5.7290  133.1270 C.2   431  LEU431      0.2287
     91  O        136.1240   -5.8420  132.0930 O.2   431  LEU431     -0.2864
     92  CB       133.0960   -4.9080  133.3640 C.3   431  LEU431      0.0297
     93  CG       133.1840   -3.7560  132.3640 C.3   431  LEU431      0.0022
     94  CD1      132.0790   -3.8420  131.3310 C.3   431  LEU431      0.0001
     95  CD2      133.0980   -2.4280  133.0780 C.3   431  LEU431      0.0001
     96  N        138.5450   -6.7540  134.3300 N.3   433  LEU433     -0.1231
     97  CA       139.7020   -7.5930  133.9690 C.3   433  LEU433      0.1693
     98  C        139.8970   -7.7490  132.4610 C.2   433  LEU433      0.2591
     99  O        141.0410   -7.7580  132.0010 O.2   433  LEU433     -0.2718
    100  CB       139.6810   -8.9640  134.6540 C.3   433  LEU433      0.0284
    101  CG       140.3860   -9.0360  136.0070 C.3   433  LEU433      0.0019
    102  CD1      139.7820  -10.1160  136.8740 C.3   433  LEU433      0.0001
    103  CD2      141.8850   -9.2440  135.8440 C.3   433  LEU433      0.0001
    104  N        138.7880   -7.8560  131.6960 N.am  434  ARG434     -0.1980
    105  CA       138.8120   -7.9720  130.2400 C.3   434  ARG434      0.1597
    106  C        139.2330   -6.6250  129.6430 C.2   434  ARG434      0.2287
    107  O        140.1510   -6.5880  128.8260 O.2   434  ARG434     -0.2864
    108  CB       137.4300   -8.3840  129.7210 C.3   434  ARG434      0.0334
    109  CG       137.4530   -9.0400  128.3490 C.3   434  ARG434      0.0492
    110  CD       136.1200   -8.8520  127.6510 C.3   434  ARG434      0.2205
    111  NE       135.6940  -10.0380  126.9040 N.pl3 434  ARG434     -0.0865
    112  CZ       134.9710  -11.0320  127.4160 C.cat 434  ARG434      0.5346
    113  NH1      134.6160  -12.0590  126.6580 N.pl3 434  ARG434      0.1354
    114  NH2      134.6030  -11.0080  128.6920 N.pl3 434  ARG434      0.1354
@<TRIPOS>BOND
     1     8     7   ar
     2     7     6    1
     3     7     9   ar
     4     1     2    1
     5     6     5    1
     6     5     2    1
     7     2     3    1
     8   113   112    1
     9   111   112    2
    10   111   110    1
    11     3     4    2
    12   112   114    1
    13   110   109    1
    14   109   108    1
    15   107   106    2
    16    15    17    1
    17    15    14    1
    18    10    11    1
    19   106   105    1
    20   108   105    1
    21    14    11    1
    22    14    16    1
    23   105   104    1
    24    11    12    1
    25    18    12   am
    26    18    19    1
    27    22    19    1
    28    22    23    1
    29    25    24    2
    30    26    24   am
    31    94    93    1
    32    24    23    1
    33    12    13    2
    34   104    98   am
    35    19    20    1
    36    99    98    2
    37    91    90    2
    38    93    95    1
    39    93    92    1
    40    98    97    1
    41    79    78    2
    42    20    21    2
    43    89    90    1
    44    89    92    1
    45    89    88    1
    46    78    88   am
    47    78    77    1
    48    97    96    1
    49    97   100    1
    50    72    71    2
    51    77    80    1
    52    77    76    1
    53   100   101    1
    54    82    84   ar
    55    82    81   ar
    56    80    81    1
    57    27    28    1
    58    84    86   ar
    59    71    76   am
    60    71    70    1
    61    81    83   ar
    62   103   101    1
    63    58    57    2
    64    31    28    1
    65   101   102    1
    66    28    29    1
    67    70    69    1
    68    70    73    1
    69    86    87    1
    70    86    85   ar
    71    74    73    1
    72    57    69   am
    73    57    56    1
    74    83    85   ar
    75    29    30    2
    76    73    75    1
    77    56    55    1
    78    56    59    1
    79    67    65   ar
    80    67    68   ar
    81    65    62   ar
    82    59    60    1
    83    68    66   ar
    84    62    60   ar
    85    62    64   ar
    86    60    61   ar
    87    66    64   ar
    88    64    63   ar
    89    50    49    2
    90    61    63   ar
    91    38    36    1
    92    32    33    1
    93    49    48    1
    94    36    33    1
    95    36    37    1
    96    33    34    1
    97    48    51    1
    98    48    47    1
    99    51    52    1
   100    34    35    2
   101    54    52    1
   102    52    53    1
   103    42    41    2
   104    41    40    1
   105    44    45    1
   106    44    46    1
   107    44    43    1
   108    40    43    1
   109    40    39    1
