@<TRIPOS>MOLECULE
tmp/6m9tA03.pdb
 71 64 0 0 0
SMALL
GASTEIGER

@<TRIPOS>ATOM
      1  N        135.9060  -18.7550  129.2620 N.3   377  ILE377     -0.1245
      2  CA       136.7850  -18.5960  130.4270 C.3   377  ILE377      0.1561
      3  C        136.1310  -17.6840  131.4720 C.2   377  ILE377      0.2260
      4  O        136.2480  -17.9590  132.6660 O.2   377  ILE377     -0.2867
      5  CB       138.2100  -18.1230  130.0050 C.3   377  ILE377      0.0252
      6  CG1      138.9350  -19.1740  129.0980 C.3   377  ILE377      0.0019
      7  CG2      139.0800  -17.6940  131.1970 C.3   377  ILE377      0.0019
      8  CD1      139.1850  -20.6410  129.6860 C.3   377  ILE377      0.0001
      9  N        133.3190  -19.6340  133.2280 N.3   380  MET380     -0.1230
     10  CA       133.9620  -20.6410  134.0630 C.3   380  MET380      0.1702
     11  C        134.4000  -19.9760  135.3690 C.2   380  MET380      0.2592
     12  O        134.1300  -20.5180  136.4340 O.2   380  MET380     -0.2718
     13  CB       135.1450  -21.2860  133.3100 C.3   380  MET380      0.0401
     14  CG       135.8030  -22.4440  134.0530 C.3   380  MET380      0.0596
     15  SD       134.7680  -23.9250  134.1190 S.3   380  MET380     -0.1393
     16  CE       134.4760  -24.0190  135.8710 C.3   380  MET380      0.0692
     17  N        135.0040  -18.7690  135.2730 N.am  381  ALA381     -0.1980
     18  CA       135.4670  -17.9480  136.3920 C.3   381  ALA381      0.1597
     19  C        134.3230  -17.5710  137.3310 C.2   381  ALA381      0.2287
     20  O        134.4870  -17.7130  138.5420 O.2   381  ALA381     -0.2864
     21  CB       136.1610  -16.6960  135.8810 C.3   381  ALA381      0.0319
     22  N        133.3690  -20.4860  139.6100 N.3   384  CYS384     -0.1221
     23  CA       134.4000  -20.7320  140.6170 C.3   384  CYS384      0.1808
     24  C        134.3440  -19.6970  141.7490 C.2   384  CYS384      0.2601
     25  O        134.3500  -20.0790  142.9210 O.2   384  CYS384     -0.2717
     26  CB       135.7850  -20.7850  139.9770 C.3   384  CYS384      0.0970
     27  SG       136.0940  -22.2680  138.9880 S.3   384  CYS384     -0.0800
     28  N        134.2970  -18.3950  141.3900 N.am  385  VAL385     -0.1979
     29  CA       134.2610  -17.2700  142.3270 C.3   385  VAL385      0.1595
     30  C        132.9870  -17.2990  143.1740 C.2   385  VAL385      0.2287
     31  O        133.0660  -17.2040  144.3960 O.2   385  VAL385     -0.2864
     32  CB       134.4680  -15.9020  141.6150 C.3   385  VAL385      0.0276
     33  CG1      134.3080  -14.7340  142.5870 C.3   385  VAL385      0.0022
     34  CG2      135.8290  -15.8370  140.9210 C.3   385  VAL385      0.0022
     35  N        132.9240  -20.3930  145.8610 N.3   388  VAL388     -0.1231
     36  CA       133.8370  -20.3340  147.0190 C.3   388  VAL388      0.1692
     37  C        133.4040  -19.2290  147.9970 C.2   388  VAL388      0.2592
     38  O        133.4810  -19.4110  149.2130 O.2   388  VAL388     -0.2718
     39  CB       135.3300  -20.2420  146.5970 C.3   388  VAL388      0.0266
     40  CG1      136.2390  -19.8920  147.7700 C.3   388  VAL388      0.0020
     41  CG2      135.7860  -21.5450  145.9640 C.3   388  VAL388      0.0020
     42  N        132.9150  -18.1060  147.4550 N.am  389  CYS389     -0.1970
     43  CA       132.4780  -16.9510  148.2270 C.3   389  CYS389      0.1712
     44  C        131.1460  -17.1450  148.9380 C.2   389  CYS389      0.2296
     45  O        131.0230  -16.7200  150.0860 O.2   389  CYS389     -0.2864
     46  CB       132.4580  -15.7040  147.3510 C.3   389  CYS389      0.0983
     47  SG       134.0850  -15.2100  146.7340 S.3   389  CYS389     -0.0798
     48  N        133.6510  -13.8360  153.1940 N.3   418  LEU418     -0.1245
     49  CA       133.8320  -14.4400  151.8710 C.3   418  LEU418      0.1561
     50  C        132.6570  -14.0880  150.9830 C.2   418  LEU418      0.2260
     51  O        132.8860  -13.6790  149.8580 O.2   418  LEU418     -0.2867
     52  CB       134.0420  -15.9570  151.9400 C.3   418  LEU418      0.0270
     53  CG       135.4000  -16.4180  152.4800 C.3   418  LEU418      0.0019
     54  CD1      135.2970  -17.7960  153.0860 C.3   418  LEU418      0.0001
     55  CD2      136.4720  -16.3950  151.3970 C.3   418  LEU418      0.0001
     56  N        133.0460  -10.6630  149.7380 N.3   421  LEU421     -0.1245
     57  CA       134.1390  -10.5920  148.7500 C.3   421  LEU421      0.1561
     58  C        133.6180  -10.7750  147.3160 C.2   421  LEU421      0.2260
     59  O        134.1590  -10.1720  146.3850 O.2   421  LEU421     -0.2867
     60  CB       135.2400  -11.6220  149.0960 C.3   421  LEU421      0.0270
     61  CG       136.4790  -11.6900  148.2180 C.3   421  LEU421      0.0019
     62  CD1      137.3790  -10.4870  148.4390 C.3   421  LEU421      0.0001
     63  CD2      137.2440  -12.9610  148.4810 C.3   421  LEU421      0.0001
     64  N        134.6500   -8.6410  143.8900 N.3   425  LEU425     -0.1245
     65  CA       135.1810   -9.2710  142.6800 C.3   425  LEU425      0.1561
     66  C        134.2740   -9.0920  141.4680 C.2   425  LEU425      0.2260
     67  O        134.7930   -9.0290  140.3530 O.2   425  LEU425     -0.2867
     68  CB       135.5390  -10.7510  142.9080 C.3   425  LEU425      0.0270
     69  CG       136.6860  -11.0270  143.9130 C.3   425  LEU425      0.0019
     70  CD1      136.6270  -12.4320  144.4450 C.3   425  LEU425      0.0001
     71  CD2      138.0450  -10.7810  143.2880 C.3   425  LEU425      0.0001
@<TRIPOS>BOND
     1     6     8    1
     2     6     5    1
     3     1     2    1
     4     5     2    1
     5     5     7    1
     6     2     3    1
     7     3     4    2
     8     9    10    1
     9    13    14    1
    10    13    10    1
    11    14    15    1
    12    10    11    1
    13    15    16    1
    14    17    11   am
    15    17    18    1
    16    11    12    2
    17    21    18    1
    18    18    19    1
    19    19    20    2
    20    27    26    1
    21    22    23    1
    22    26    23    1
    23    67    66    2
    24    23    24    1
    25    34    32    1
    26    28    24   am
    27    28    29    1
    28    66    65    1
    29    32    29    1
    30    32    33    1
    31    24    25    2
    32    29    30    1
    33    65    68    1
    34    65    64    1
    35    68    69    1
    36    30    31    2
    37    71    69    1
    38    69    70    1
    39    35    36    1
    40    41    39    1
    41    59    58    2
    42    39    36    1
    43    39    40    1
    44    47    46    1
    45    36    37    1
    46    58    57    1
    47    46    43    1
    48    42    37   am
    49    42    43    1
    50    37    38    2
    51    61    62    1
    52    61    63    1
    53    61    60    1
    54    43    44    1
    55    57    60    1
    56    57    56    1
    57    44    45    2
    58    51    50    2
    59    50    49    1
    60    55    53    1
    61    49    52    1
    62    49    48    1
    63    52    53    1
    64    53    54    1
