@<TRIPOS>MOLECULE
tmp/6m9tA00.pdb
 237 228 0 0 0
SMALL
GASTEIGER

@<TRIPOS>ATOM
      1  N        137.1670   -4.3050  157.1370 N.3    10  PRO10      -0.2116
      2  CA       136.1970   -3.4100  156.4760 C.3    10  PRO10       0.1372
      3  C        136.8210   -2.2490  155.6890 C.2    10  PRO10       0.2244
      4  O        136.3010   -1.9210  154.6290 O.2    10  PRO10      -0.2868
      5  CB       135.3070   -2.9320  157.6250 C.3    10  PRO10       0.0268
      6  CG       136.1060   -3.1450  158.8570 C.3    10  PRO10       0.0207
      7  CD       136.9230   -4.3620  158.5970 C.3    10  PRO10       0.0892
      8  N        138.2160   -3.6650  152.3770 N.3    13  MET13      -0.1230
      9  CA       137.0730   -4.2080  151.6510 C.3    13  MET13       0.1702
     10  C        136.2460   -3.1070  151.0170 C.2    13  MET13       0.2592
     11  O        135.8830   -3.2210  149.8430 O.2    13  MET13      -0.2718
     12  CB       136.2220   -5.1150  152.5430 C.3    13  MET13       0.0401
     13  CG       136.8440   -6.4790  152.7350 C.3    13  MET13       0.0596
     14  SD       135.9900   -7.4810  153.9540 S.3    13  MET13      -0.1393
     15  CE       134.9700   -8.4310  152.9000 C.3    13  MET13       0.0692
     16  N        135.9740   -2.0310  151.7740 N.am   14  LEU14      -0.1980
     17  CA       135.2260   -0.8760  151.2880 C.3    14  LEU14       0.1596
     18  C        136.0250   -0.1880  150.1990 C.2    14  LEU14       0.2287
     19  O        135.4570    0.1340  149.1600 O.2    14  LEU14      -0.2864
     20  CB       134.9060    0.1110  152.4350 C.3    14  LEU14       0.0297
     21  CG       134.2560    1.4620  152.0790 C.3    14  LEU14       0.0022
     22  CD1      132.8930    1.2830  151.3830 C.3    14  LEU14       0.0001
     23  CD2      134.1160    2.3320  153.3100 C.3    14  LEU14       0.0001
     24  N        126.0240   -3.4450  144.0940 N.3    54  ASP54      -0.1239
     25  CA       127.1760   -3.7870  144.9200 C.3    54  ASP54       0.1674
     26  C        127.7340   -2.5880  145.6950 C.2    54  ASP54       0.2266
     27  O        128.0230   -2.7200  146.8890 O.2    54  ASP54      -0.2867
     28  CB       128.2670   -4.4920  144.0860 C.3    54  ASP54       0.1410
     29  CG       127.8590   -5.8450  143.5100 C.2    54  ASP54       0.3668
     30  OD1      126.7930   -6.3680  143.9070 O.co2  54  ASP54      -0.2456
     31  OD2      128.5810   -6.3570  142.6380 O.co2  54  ASP54      -0.2456
     32  N        125.3050   -1.3330  148.6050 N.3    57  GLY57      -0.1210
     33  CA       125.3510   -2.3480  149.6560 C.3    57  GLY57       0.1956
     34  C        126.5680   -2.2400  150.5620 C.2    57  GLY57       0.2611
     35  O        126.5080   -2.6080  151.7350 O.2    57  GLY57      -0.2717
     36  N        127.6730   -1.7200  150.0220 N.am   58  GLN58      -0.1979
     37  CA       128.9220   -1.5200  150.7490 C.3    58  GLN58       0.1601
     38  C        128.9120   -0.1690  151.4790 C.2    58  GLN58       0.2287
     39  O        129.3570   -0.0920  152.6270 O.2    58  GLN58      -0.2864
     40  CB       130.1220   -1.6430  149.7970 C.3    58  GLN58       0.0394
     41  CG       130.3930   -3.0870  149.3590 C.3    58  GLN58       0.0908
     42  CD       131.0640   -3.2100  148.0070 C.2    58  GLN58       0.2608
     43  OE1      131.5170   -2.2330  147.3960 O.2    58  GLN58      -0.2717
     44  NE2      131.1560   -4.4340  147.5100 N.am   58  GLN58      -0.0878
     45  N        126.5130   -0.4400  154.6690 N.3    61  THR61      -0.1203
     46  CA       126.9160   -1.3580  155.7320 C.3    61  THR61       0.1994
     47  C        128.2540   -0.9880  156.4190 C.2    61  THR61       0.2618
     48  O        128.2610   -0.8060  157.6380 O.2    61  THR61      -0.2717
     49  CB       126.9140   -2.8240  155.2340 C.3    61  THR61       0.1784
     50  OG1      127.7500   -2.9620  154.0840 O.3    61  THR61      -0.2211
     51  CG2      125.5130   -3.3500  154.9370 C.3    61  THR61       0.0376
     52  N        129.3640   -0.8950  155.6520 N.am   62  THR62      -0.1952
     53  CA       130.7320   -0.6550  156.1480 C.3    62  THR62       0.1897
     54  C        130.9030    0.5630  157.0950 C.2    62  THR62       0.2313
     55  O        131.5370    0.3570  158.1300 O.2    62  THR62      -0.2863
     56  CB       131.7560   -0.5850  155.0080 C.3    62  THR62       0.1794
     57  OG1      131.3460   -1.4330  153.9340 O.3    62  THR62      -0.2208
     58  CG2      133.1470   -0.9760  155.4600 C.3    62  THR62       0.0378
     59  N        129.9840   -0.4850  160.6480 N.3    65  VAL65      -0.1245
     60  CA       130.9800   -1.4640  161.1210 C.3    65  VAL65       0.1561
     61  C        132.2590   -0.7330  161.5840 C.2    65  VAL65       0.2260
     62  O        132.8080   -1.0760  162.6300 O.2    65  VAL65      -0.2867
     63  CB       131.2810   -2.5550  160.0480 C.3    65  VAL65       0.0252
     64  CG1      132.3370   -3.5480  160.5300 C.3    65  VAL65       0.0019
     65  CG2      130.0120   -3.2920  159.6340 C.3    65  VAL65       0.0019
     66  N        133.7610   -0.3130  165.7190 N.3    69  TYR69      -0.1241
     67  CA       135.1550   -0.6630  166.0480 C.3    69  TYR69       0.1605
     68  C        135.8630    0.4990  166.7660 C.2    69  TYR69       0.2264
     69  O        136.5920    0.2690  167.7330 O.2    69  TYR69      -0.2867
     70  CB       135.9420   -1.0270  164.7790 C.3    69  TYR69       0.0534
     71  CG       135.9560   -2.4960  164.4250 C.ar   69  TYR69      -0.0201
     72  CD1      136.8450   -3.3740  165.0400 C.ar   69  TYR69      -0.0009
     73  CD2      135.1570   -2.9920  163.4000 C.ar   69  TYR69      -0.0009
     74  CE1      136.9020   -4.7190  164.6760 C.ar   69  TYR69       0.0417
     75  CE2      135.2110   -4.3330  163.0210 C.ar   69  TYR69       0.0417
     76  CZ       136.0840   -5.1940  163.6630 C.ar   69  TYR69       0.1957
     77  OH       136.1310   -6.5160  163.2910 O.3    69  TYR69      -0.2866
     78  N        120.3970   -2.7920  159.4160 N.3    88  PHE88      -0.1241
     79  CA       121.6480   -3.4270  158.9840 C.3    88  PHE88       0.1605
     80  C        121.3720   -4.8310  158.4720 C.2    88  PHE88       0.2264
     81  O        121.9120   -5.2090  157.4400 O.2    88  PHE88      -0.2867
     82  CB       122.6880   -3.4640  160.1170 C.3    88  PHE88       0.0534
     83  CG       124.0900   -3.8100  159.6750 C.ar   88  PHE88      -0.0203
     84  CD1      124.5050   -5.1330  159.5950 C.ar   88  PHE88      -0.0042
     85  CD2      125.0060   -2.8110  159.3730 C.ar   88  PHE88      -0.0042
     86  CE1      125.8020   -5.4520  159.1960 C.ar   88  PHE88      -0.0003
     87  CE2      126.3040   -3.1310  158.9720 C.ar   88  PHE88      -0.0003
     88  CZ       126.6890   -4.4490  158.8780 C.ar   88  PHE88      -0.0000
     89  N        121.8060   -5.8430  154.5390 N.3    92  MET92      -0.1245
     90  CA       122.6890   -6.9800  154.2550 C.3    92  MET92       0.1570
     91  C        121.9640   -8.0470  153.4230 C.2    92  MET92       0.2261
     92  O        122.5450   -8.5600  152.4710 O.2    92  MET92      -0.2867
     93  CB       123.2350   -7.5990  155.5510 C.3    92  MET92       0.0387
     94  CG       124.3720   -6.8140  156.1660 C.3    92  MET92       0.0595
     95  SD       126.0230   -7.4370  155.7840 S.3    92  MET92      -0.1393
     96  CE       126.0300   -8.9450  156.7240 C.3    92  MET92       0.0692
     97  N        120.5720   -6.4700  149.6200 N.3    95  PHE95      -0.1227
     98  CA       121.6880   -6.3190  148.6840 C.3    95  PHE95       0.1736
     99  C        122.4640   -7.6320  148.4390 C.2    95  PHE95       0.2596
    100  O        123.1120   -7.7590  147.3980 O.2    95  PHE95      -0.2718
    101  CB       122.6100   -5.1610  149.1040 C.3    95  PHE95       0.0547
    102  CG       121.9580   -3.8210  148.8510 C.ar   95  PHE95      -0.0202
    103  CD1      121.9730   -3.2490  147.5850 C.ar   95  PHE95      -0.0042
    104  CD2      121.2670   -3.1640  149.8600 C.ar   95  PHE95      -0.0042
    105  CE1      121.3460   -2.0230  147.3440 C.ar   95  PHE95      -0.0003
    106  CE2      120.6260   -1.9450  149.6130 C.ar   95  PHE95      -0.0003
    107  CZ       120.6690   -1.3840  148.3560 C.ar   95  PHE95      -0.0000
    108  N        122.3530   -8.5900  149.3680 N.am   96  GLY96      -0.1957
    109  CA       122.9780   -9.9070  149.2720 C.3    96  GLY96       0.1869
    110  C        122.2800  -10.8010  148.2660 C.2    96  GLY96       0.2309
    111  O        122.9380  -11.4020  147.4180 O.2    96  GLY96      -0.2863
    112  N        131.6890  -10.6200  166.3670 N.3   159  PRO159     -0.2116
    113  CA       132.0640  -10.0950  167.6940 C.3   159  PRO159      0.1372
    114  C        131.3900   -8.7760  168.1170 C.2   159  PRO159      0.2244
    115  O        132.0130   -7.9450  168.7900 O.2   159  PRO159     -0.2868
    116  CB       133.5830   -9.9570  167.5590 C.3   159  PRO159      0.0268
    117  CG       133.7840   -9.5620  166.0990 C.3   159  PRO159      0.0207
    118  CD       132.5820  -10.0760  165.3250 C.3   159  PRO159      0.0892
    119  N        130.0850   -6.5610  165.9320 N.3   161  THR161     -0.1203
    120  CA       130.4410   -5.5850  164.9010 C.3   161  THR161      0.1994
    121  C        129.4500   -5.5880  163.7300 C.2   161  THR161      0.2617
    122  O        129.6150   -4.7940  162.7980 O.2   161  THR161     -0.2717
    123  CB       131.8710   -5.8580  164.3990 C.3   161  THR161      0.1784
    124  OG1      131.9360   -7.1810  163.8540 O.3   161  THR161     -0.2211
    125  CG2      132.9200   -5.6810  165.4870 C.3   161  THR161      0.0376
    126  N        128.4300   -6.4810  163.7690 N.am  162  TRP162     -0.1975
    127  CA       127.4350   -6.6330  162.7010 C.3   162  TRP162      0.1640
    128  C        126.1510   -7.3500  163.1290 C.2   162  TRP162      0.2290
    129  O        126.1500   -8.0830  164.1190 O.2   162  TRP162     -0.2864
    130  CB       128.0630   -7.3810  161.5070 C.3   162  TRP162      0.0576
    131  CG       128.4610   -8.8040  161.7900 C.ar  162  TRP162      0.0006
    132  CD1      129.3890   -9.2380  162.6910 C.ar  162  TRP162      0.0946
    133  CD2      127.9960   -9.9710  161.1000 C.ar  162  TRP162      0.0152
    134  NE1      129.4970  -10.6070  162.6380 N.ar  162  TRP162     -0.2442
    135  CE2      128.6640  -11.0830  161.6600 C.ar  162  TRP162      0.0810
    136  CE3      127.0740  -10.1870  160.0610 C.ar  162  TRP162      0.0012
    137  CZ2      128.4230  -12.3930  161.2320 C.ar  162  TRP162      0.0191
    138  CZ3      126.8570  -11.4820  159.6210 C.ar  162  TRP162      0.0001
    139  CH2      127.5060  -12.5690  160.2180 C.ar  162  TRP162      0.0015
    140  N        122.6870   -9.7610  161.5010 N.3   164  PHE164     -0.1241
    141  CA       122.2240  -10.6710  160.4430 C.3   164  PHE164      0.1605
    142  C        121.0230  -11.5230  160.9090 C.2   164  PHE164      0.2264
    143  O        120.5640  -11.3670  162.0450 O.2   164  PHE164     -0.2867
    144  CB       123.3930  -11.5500  159.9250 C.3   164  PHE164      0.0534
    145  CG       123.1860  -12.2220  158.5820 C.ar  164  PHE164     -0.0203
    146  CD1      122.9400  -11.4700  157.4370 C.ar  164  PHE164     -0.0042
    147  CD2      123.2500  -13.6040  158.4620 C.ar  164  PHE164     -0.0042
    148  CE1      122.7250  -12.0930  156.2050 C.ar  164  PHE164     -0.0003
    149  CE2      123.0510  -14.2250  157.2260 C.ar  164  PHE164     -0.0003
    150  CZ       122.7910  -13.4650  156.1050 C.ar  164  PHE164     -0.0000
    151  N        116.0180  -18.1090  153.2410 N.3   178  PHE178     -0.1241
    152  CA       117.2010  -17.4150  152.7210 C.3   178  PHE178      0.1605
    153  C        118.2210  -18.4390  152.2020 C.2   178  PHE178      0.2264
    154  O        118.7740  -18.2460  151.1200 O.2   178  PHE178     -0.2867
    155  CB       117.8320  -16.5120  153.8020 C.3   178  PHE178      0.0534
    156  CG       119.0860  -15.7830  153.3740 C.ar  178  PHE178     -0.0203
    157  CD1      120.3410  -16.3570  153.5520 C.ar  178  PHE178     -0.0042
    158  CD2      119.0140  -14.5160  152.8080 C.ar  178  PHE178     -0.0042
    159  CE1      121.4990  -15.6840  153.1540 C.ar  178  PHE178     -0.0003
    160  CE2      120.1750  -13.8410  152.4160 C.ar  178  PHE178     -0.0003
    161  CZ       121.4080  -14.4330  152.5870 C.ar  178  PHE178     -0.0000
    162  N        130.1510  -17.7670  148.2720 N.3   390  TRP390     -0.1241
    163  CA       128.7970  -17.8970  148.8110 C.3   390  TRP390      0.1605
    164  C        128.4110  -19.2530  149.4360 C.2   390  TRP390      0.2264
    165  O        127.4390  -19.2740  150.1870 O.2   390  TRP390     -0.2867
    166  CB       127.7740  -17.5150  147.7400 C.3   390  TRP390      0.0550
    167  CG       127.4470  -16.0540  147.7470 C.ar  390  TRP390      0.0003
    168  CD1      127.9970  -15.0830  146.9630 C.ar  390  TRP390      0.0946
    169  CD2      126.5270  -15.3920  148.6220 C.ar  390  TRP390      0.0152
    170  NE1      127.4520  -13.8580  147.2740 N.ar  390  TRP390     -0.2442
    171  CE2      126.5430  -14.0190  148.2870 C.ar  390  TRP390      0.0810
    172  CE3      125.6620  -15.8300  149.6400 C.ar  390  TRP390      0.0012
    173  CZ2      125.7280  -13.0820  148.9320 C.ar  390  TRP390      0.0191
    174  CZ3      124.8520  -14.9010  150.2750 C.ar  390  TRP390      0.0001
    175  CH2      124.8870  -13.5460  149.9190 C.ar  390  TRP390      0.0015
    176  N        128.6640  -19.6050  153.8460 N.3   393  LEU393     -0.1245
    177  CA       127.5580  -18.9700  154.5730 C.3   393  LEU393      0.1561
    178  C        126.3070  -19.8400  154.4930 C.2   393  LEU393      0.2260
    179  O        125.7800  -20.2270  155.5340 O.2   393  LEU393     -0.2867
    180  CB       127.2700  -17.5450  154.0460 C.3   393  LEU393      0.0270
    181  CG       126.1520  -16.7520  154.7500 C.3   393  LEU393      0.0019
    182  CD1      126.6400  -16.1400  156.0510 C.3   393  LEU393      0.0001
    183  CD2      125.6370  -15.6520  153.8620 C.3   393  LEU393      0.0001
    184  N        132.1140  -15.5030  160.8270 N.3   413  LEU413     -0.1245
    185  CA       132.6660  -14.2070  160.4280 C.3   413  LEU413      0.1561
    186  C        133.4810  -14.3870  159.1520 C.2   413  LEU413      0.2260
    187  O        133.3650  -13.5610  158.2450 O.2   413  LEU413     -0.2867
    188  CB       133.5180  -13.5860  161.5480 C.3   413  LEU413      0.0270
    189  CG       134.0990  -12.1880  161.2860 C.3   413  LEU413      0.0019
    190  CD1      133.0120  -11.1210  161.2600 C.3   413  LEU413      0.0001
    191  CD2      135.1400  -11.8400  162.3240 C.3   413  LEU413      0.0001
    192  N        130.7710  -14.9590  156.2320 N.3   416  VAL416     -0.1231
    193  CA       130.0870  -13.7490  155.7650 C.3   416  VAL416      0.1692
    194  C        131.0760  -12.8290  155.0200 C.2   416  VAL416      0.2591
    195  O        130.6850  -12.1770  154.0490 O.2   416  VAL416     -0.2718
    196  CB       129.2680  -13.0220  156.8730 C.3   416  VAL416      0.0266
    197  CG1      130.1680  -12.3860  157.9360 C.3   416  VAL416      0.0020
    198  CG2      128.3110  -11.9900  156.2730 C.3   416  VAL416      0.0020
    199  N        132.3620  -12.8130  155.4550 N.am  417  ARG417     -0.1980
    200  CA       133.4180  -12.0150  154.8230 C.3   417  ARG417      0.1597
    201  C        133.6910  -12.4960  153.4110 C.2   417  ARG417      0.2287
    202  O        133.8800  -11.6630  152.5210 O.2   417  ARG417     -0.2864
    203  CB       134.6980  -11.9980  155.6640 C.3   417  ARG417      0.0334
    204  CG       134.6760  -10.9040  156.7080 C.3   417  ARG417      0.0492
    205  CD       136.0570  -10.6230  157.2340 C.3   417  ARG417      0.2205
    206  NE       136.0200   -9.6780  158.3450 N.pl3 417  ARG417     -0.0865
    207  CZ       136.8020   -9.7510  159.4160 C.cat 417  ARG417      0.5346
    208  NH1      137.6930  -10.7300  159.5310 N.pl3 417  ARG417      0.1354
    209  NH2      136.7070   -8.8410  160.3750 N.pl3 417  ARG417      0.1354
    210  N        131.4110  -14.1560  151.5040 N.3   419  ALA419     -0.1231
    211  CA       130.1970  -13.7770  150.7600 C.3   419  ALA419      0.1694
    212  C        130.2330  -12.3040  150.3430 C.2   419  ALA419      0.2592
    213  O        129.7700  -11.9780  149.2520 O.2   419  ALA419     -0.2718
    214  CB       128.9520  -14.0630  151.5840 C.3   419  ALA419      0.0304
    215  N        130.8260  -11.4300  151.1950 N.am  420  SER420     -0.1952
    216  CA       130.9850   -9.9970  150.9290 C.3   420  SER420      0.1924
    217  C        132.0330   -9.7620  149.8400 C.2   420  SER420      0.2314
    218  O        131.9250   -8.7820  149.1050 O.2   420  SER420     -0.2863
    219  CB       131.3820   -9.2490  152.1980 C.3   420  SER420      0.2116
    220  OG       130.3740   -9.3380  153.1880 O.3   420  SER420     -0.2180
    221  N        130.9640   -9.5400  145.9490 N.3   423  GLN423     -0.1231
    222  CA       130.4870   -8.2490  145.4430 C.3   423  GLN423      0.1698
    223  C        131.6490   -7.2500  145.2380 C.2   423  GLN423      0.2592
    224  O        131.4370   -6.1810  144.6550 O.2   423  GLN423     -0.2718
    225  CB       129.3580   -7.6810  146.3240 C.3   423  GLN423      0.0381
    226  CG       128.0320   -8.4530  146.2430 C.3   423  GLN423      0.0905
    227  CD       128.0650   -9.8180  146.8990 C.2   423  GLN423      0.2608
    228  OE1      127.9820  -10.8560  146.2360 O.2   423  GLN423     -0.2717
    229  NE2      128.2510   -9.8530  148.2060 N.am  423  GLN423     -0.0878
    230  N        132.8760   -7.6150  145.6910 N.am  424  ILE424     -0.1980
    231  CA       134.0980   -6.8300  145.4760 C.3   424  ILE424      0.1595
    232  C        134.7200   -7.3090  144.1440 C.2   424  ILE424      0.2287
    233  O        135.2060   -6.4930  143.3510 O.2   424  ILE424     -0.2864
    234  CB       135.0990   -6.9000  146.6720 C.3   424  ILE424      0.0276
    235  CG1      134.4180   -6.4880  148.0040 C.3   424  ILE424      0.0022
    236  CG2      136.3330   -6.0270  146.4050 C.3   424  ILE424      0.0022
    237  CD1      135.1970   -6.7550  149.2760 C.3   424  ILE424      0.0001
@<TRIPOS>BOND
     1    31    29   ar
     2   233   232    2
     3    29    30   ar
     4    29    28    1
     5    28    25    1
     6    24    25    1
     7   232   231    1
     8   224   223    2
     9    25    26    1
    10   223   222    1
    11   223   230   am
    12   222   221    1
    13   222   225    1
    14   231   230    1
    15   231   234    1
    16    26    27    2
    17   228   227    2
    18   226   225    1
    19   226   227    1
    20   236   234    1
    21   234   235    1
    22   227   229   am
    23   168   170   ar
    24   168   167   ar
    25   170   171   ar
    26   105   103   ar
    27   105   107   ar
    28    43    42    2
    29   100    99    2
    30   111   110    2
    31    44    42   am
    32   103   102   ar
    33   166   167    1
    34   166   163    1
    35   167   169   ar
    36   235   237    1
    37    42    41    1
    38   110   109    1
    39   162   163    1
    40   171   169   ar
    41   171   173   ar
    42   107   106   ar
    43    99    98    1
    44    99   108   am
    45    32    33    1
    46   169   172   ar
    47    98   101    1
    48    98    97    1
    49   163   164    1
    50   102   101    1
    51   102   104   ar
    52   173   175   ar
    53   218   217    2
    54    19    18    2
    55   213   212    2
    56   109   108    1
    57    41    40    1
    58   164   165    2
    59   106   104   ar
    60   172   174   ar
    61    33    34    1
    62    40    37    1
    63   217   216    1
    64    11    10    2
    65   175   174   ar
    66    36    34   am
    67    36    37    1
    68    18    17    1
    69   212   211    1
    70   212   215   am
    71    34    35    2
    72    37    38    1
    73   211   210    1
    74   211   214    1
    75   216   215    1
    76   216   219    1
    77    10     9    1
    78    10    16   am
    79   154   153    2
    80    17    16    1
    81    17    20    1
    82    22    21    1
    83    38    39    2
    84     9     8    1
    85     9    12    1
    86    21    20    1
    87    21    23    1
    88   219   220    1
    89   153   152    1
    90   160   161   ar
    91   160   158   ar
    92    92    91    2
    93   202   201    2
    94    12    13    1
    95   161   159   ar
    96   152   151    1
    97   152   155    1
    98    13    14    1
    99   158   156   ar
   100    15    14    1
   101   159   157   ar
   102   156   157   ar
   103   156   155    1
   104   201   200    1
   105    91    90    1
   106   176   177    1
   107   183   181    1
   108    57    56    1
   109   180   177    1
   110   180   181    1
   111   195   194    2
   112    50    49    1
   113    90    89    1
   114    90    93    1
   115   178   177    1
   116   178   179    2
   117     4     3    2
   118    45    46    1
   119   181   182    1
   120   200   199    1
   121   200   203    1
   122    51    49    1
   123    56    58    1
   124    56    53    1
   125   194   199   am
   126   194   193    1
   127    49    46    1
   128    93    94    1
   129    52    53    1
   130    52    47   am
   131   203   204    1
   132     3     2    1
   133    46    47    1
   134   193   192    1
   135   193   196    1
   136    95    94    1
   137    95    96    1
   138   150   148   ar
   139   150   149   ar
   140    53    54    1
   141   148   146   ar
   142   198   196    1
   143    47    48    2
   144     2     1    1
   145     2     5    1
   146   204   205    1
   147   196   197    1
   148    54    55    2
   149     1     7    1
   150   149   147   ar
   151   205   206    1
   152   146   145   ar
   153    81    80    2
   154     5     6    1
   155   187   186    2
   156   206   207    2
   157   147   145   ar
   158    80    79    1
   159   145   144    1
   160     7     6    1
   161    88    87   ar
   162    88    86   ar
   163    87    85   ar
   164    79    78    1
   165    79    82    1
   166   186   185    1
   167    86    84   ar
   168    85    83   ar
   169   207   208    1
   170   207   209    1
   171    84    83   ar
   172   138   136   ar
   173   138   139   ar
   174    65    63    1
   175    83    82    1
   176   144   141    1
   177    63    64    1
   178    63    60    1
   179   136   133   ar
   180   139   137   ar
   181   185   184    1
   182   185   188    1
   183   141   142    1
   184   141   140    1
   185    59    60    1
   186   142   143    2
   187   133   135   ar
   188   133   131   ar
   189    60    61    1
   190   137   135   ar
   191   190   189    1
   192   189   188    1
   193   189   191    1
   194   130   131    1
   195   130   127    1
   196    61    62    2
   197   135   134   ar
   198   131   132   ar
   199   134   132   ar
   200   127   128    1
   201   127   126    1
   202   122   121    2
   203    75    73   ar
   204    75    76   ar
   205   128   129    2
   206    77    76    1
   207    73    71   ar
   208    76    74   ar
   209   121   126   am
   210   121   120    1
   211   124   123    1
   212   123   120    1
   213   123   125    1
   214    71    70    1
   215    71    72   ar
   216    74    72   ar
   217    70    67    1
   218   120   119    1
   219   118   117    1
   220   118   112    1
   221    66    67    1
   222    67    68    1
   223   117   116    1
   224   112   113    1
   225    68    69    2
   226   116   113    1
   227   113   114    1
   228   114   115    2
