@<TRIPOS>MOLECULE
tmp/6m9tA04.pdb
 112 105 0 0 0
SMALL
GASTEIGER

@<TRIPOS>ATOM
      1  N        141.0610  -12.2670  163.4290 N.3     4  SER4       -0.1217
      2  CA       139.8090  -12.0500  162.6930 C.3     4  SER4        0.1889
      3  C        139.1250  -10.7380  163.0340 C.2     4  SER4        0.2288
      4  O        138.5340  -10.1230  162.1470 O.2     4  SER4       -0.2866
      5  CB       138.8450  -13.2090  162.9020 C.3     4  SER4        0.2089
      6  OG       139.2850  -14.3440  162.1770 O.3     4  SER4       -0.2183
      7  N        140.0180   -5.1630  157.9480 N.3     9  PHE9       -0.1241
      8  CA       139.1530   -5.8900  157.0090 C.3     9  PHE9        0.1605
      9  C        138.0890   -4.9720  156.3740 C.2     9  PHE9        0.2264
     10  O        138.1610   -4.7930  155.1550 O.2     9  PHE9       -0.2867
     11  CB       138.5370   -7.1600  157.6250 C.3     9  PHE9        0.0534
     12  CG       139.5220   -8.2800  157.8290 C.ar    9  PHE9       -0.0203
     13  CD1      139.8110   -9.1690  156.8010 C.ar    9  PHE9       -0.0042
     14  CD2      140.1650   -8.4490  159.0500 C.ar    9  PHE9       -0.0042
     15  CE1      140.7330  -10.2030  156.9890 C.ar    9  PHE9       -0.0003
     16  CE2      141.0890   -9.4810  159.2360 C.ar    9  PHE9       -0.0003
     17  CZ       141.3630  -10.3530  158.2070 C.ar    9  PHE9       -0.0000
     18  N        139.8650   -2.0380  153.9530 N.3    12  THR12      -0.1203
     19  CA       140.3770   -2.5160  152.6670 C.3    12  THR12       0.1994
     20  C        139.2570   -3.0530  151.7680 C.2    12  THR12       0.2617
     21  O        139.3250   -2.8860  150.5460 O.2    12  THR12      -0.2717
     22  CB       141.5060   -3.5270  152.8660 C.3    12  THR12       0.1784
     23  OG1      141.0280   -4.5780  153.6980 O.3    12  THR12      -0.2211
     24  CG2      142.7540   -2.9030  153.4850 C.3    12  THR12       0.0376
     25  N        138.2160   -3.6650  152.3770 N.am   13  MET13      -0.1979
     26  CA       137.0730   -4.2080  151.6510 C.3    13  MET13       0.1605
     27  C        136.2460   -3.1070  151.0170 C.2    13  MET13       0.2287
     28  O        135.8830   -3.2210  149.8430 O.2    13  MET13      -0.2864
     29  CB       136.2220   -5.1150  152.5430 C.3    13  MET13       0.0413
     30  CG       136.8440   -6.4790  152.7350 C.3    13  MET13       0.0598
     31  SD       135.9900   -7.4810  153.9540 S.3    13  MET13      -0.1393
     32  CE       134.9700   -8.4310  152.9000 C.3    13  MET13       0.0692
     33  N        138.4860   -1.3520  148.0650 N.3    16  THR16      -0.1218
     34  CA       138.5540   -2.1620  146.8490 C.3    16  THR16       0.1862
     35  C        137.1790   -2.2370  146.1720 C.2    16  THR16       0.2287
     36  O        137.0780   -1.9880  144.9660 O.2    16  THR16      -0.2866
     37  CB       139.2100   -3.5280  147.1140 C.3    16  THR16       0.1770
     38  OG1      138.5760   -4.1650  148.2200 O.3    16  THR16      -0.2211
     39  CG2      140.7050   -3.4200  147.3890 C.3    16  THR16       0.0375
     40  N        134.2590  -15.4930  159.0580 N.3   414  ILE414     -0.1245
     41  CA       135.0350  -15.8350  157.8580 C.3   414  ILE414      0.1561
     42  C        134.0560  -16.0570  156.6930 C.2   414  ILE414      0.2260
     43  O        134.2890  -15.5330  155.6070 O.2   414  ILE414     -0.2867
     44  CB       135.9680  -17.0740  158.0650 C.3   414  ILE414      0.0252
     45  CG1      136.8150  -16.9950  159.3690 C.3   414  ILE414      0.0019
     46  CG2      136.8510  -17.3440  156.8430 C.3   414  ILE414      0.0019
     47  CD1      137.8190  -15.8030  159.5400 C.3   414  ILE414      0.0001
     48  N        132.3620  -12.8130  155.4550 N.3   417  ARG417     -0.1231
     49  CA       133.4180  -12.0150  154.8230 C.3   417  ARG417      0.1694
     50  C        133.6910  -12.4960  153.4110 C.2   417  ARG417      0.2591
     51  O        133.8800  -11.6630  152.5210 O.2   417  ARG417     -0.2718
     52  CB       134.6980  -11.9980  155.6640 C.3   417  ARG417      0.0321
     53  CG       134.6760  -10.9040  156.7080 C.3   417  ARG417      0.0489
     54  CD       136.0570  -10.6230  157.2340 C.3   417  ARG417      0.2205
     55  NE       136.0200   -9.6780  158.3450 N.pl3 417  ARG417     -0.0865
     56  CZ       136.8020   -9.7510  159.4160 C.cat 417  ARG417      0.5346
     57  NH1      137.6930  -10.7300  159.5310 N.pl3 417  ARG417      0.1354
     58  NH2      136.7070   -8.8410  160.3750 N.pl3 417  ARG417      0.1354
     59  N        133.6510  -13.8360  153.1940 N.am  418  LEU418     -0.1980
     60  CA       133.8320  -14.4400  151.8710 C.3   418  LEU418      0.1596
     61  C        132.6570  -14.0880  150.9830 C.2   418  LEU418      0.2287
     62  O        132.8860  -13.6790  149.8580 O.2   418  LEU418     -0.2864
     63  CB       134.0420  -15.9570  151.9400 C.3   418  LEU418      0.0297
     64  CG       135.4000  -16.4180  152.4800 C.3   418  LEU418      0.0022
     65  CD1      135.2970  -17.7960  153.0860 C.3   418  LEU418      0.0001
     66  CD2      136.4720  -16.3950  151.3970 C.3   418  LEU418      0.0001
     67  N        133.0460  -10.6630  149.7380 N.3   421  LEU421     -0.1245
     68  CA       134.1390  -10.5920  148.7500 C.3   421  LEU421      0.1561
     69  C        133.6180  -10.7750  147.3160 C.2   421  LEU421      0.2260
     70  O        134.1590  -10.1720  146.3850 O.2   421  LEU421     -0.2867
     71  CB       135.2400  -11.6220  149.0960 C.3   421  LEU421      0.0270
     72  CG       136.4790  -11.6900  148.2180 C.3   421  LEU421      0.0019
     73  CD1      137.3790  -10.4870  148.4390 C.3   421  LEU421      0.0001
     74  CD2      137.2440  -12.9610  148.4810 C.3   421  LEU421      0.0001
     75  N        132.8760   -7.6150  145.6910 N.3   424  ILE424     -0.1231
     76  CA       134.0980   -6.8300  145.4760 C.3   424  ILE424      0.1692
     77  C        134.7200   -7.3090  144.1440 C.2   424  ILE424      0.2591
     78  O        135.2060   -6.4930  143.3510 O.2   424  ILE424     -0.2718
     79  CB       135.0990   -6.9000  146.6720 C.3   424  ILE424      0.0266
     80  CG1      134.4180   -6.4880  148.0040 C.3   424  ILE424      0.0019
     81  CG2      136.3330   -6.0270  146.4050 C.3   424  ILE424      0.0020
     82  CD1      135.1970   -6.7550  149.2760 C.3   424  ILE424      0.0001
     83  N        134.6500   -8.6410  143.8900 N.am  425  LEU425     -0.1980
     84  CA       135.1810   -9.2710  142.6800 C.3   425  LEU425      0.1596
     85  C        134.2740   -9.0920  141.4680 C.2   425  LEU425      0.2287
     86  O        134.7930   -9.0290  140.3530 O.2   425  LEU425     -0.2864
     87  CB       135.5390  -10.7510  142.9080 C.3   425  LEU425      0.0297
     88  CG       136.6860  -11.0270  143.9130 C.3   425  LEU425      0.0022
     89  CD1      136.6270  -12.4320  144.4450 C.3   425  LEU425      0.0001
     90  CD2      138.0450  -10.7810  143.2880 C.3   425  LEU425      0.0001
     91  N        135.2970   -6.8400  138.5400 N.3   428  TRP428     -0.1241
     92  CA       136.4960   -7.3830  137.9040 C.3   428  TRP428      0.1605
     93  C        136.1680   -8.5690  137.0010 C.2   428  TRP428      0.2264
     94  O        136.6250   -8.6030  135.8610 O.2   428  TRP428     -0.2867
     95  CB       137.5710   -7.7360  138.9490 C.3   428  TRP428      0.0550
     96  CG       138.0430   -6.5410  139.7230 C.ar  428  TRP428      0.0003
     97  CD1      137.5630   -6.0960  140.9190 C.ar  428  TRP428      0.0946
     98  CD2      139.0290   -5.5880  139.3080 C.ar  428  TRP428      0.0152
     99  NE1      138.2080   -4.9400  141.2890 N.ar  428  TRP428     -0.2442
    100  CE2      139.1140   -4.6040  140.3180 C.ar  428  TRP428      0.0810
    101  CE3      139.8660   -5.4770  138.1860 C.ar  428  TRP428      0.0012
    102  CZ2      139.9960   -3.5220  140.2380 C.ar  428  TRP428      0.0191
    103  CZ3      140.7350   -4.3990  138.1060 C.ar  428  TRP428      0.0001
    104  CH2      140.7990   -3.4410  139.1270 C.ar  428  TRP428      0.0015
    105  N        138.5450   -6.7540  134.3300 N.3   433  LEU433     -0.1245
    106  CA       139.7020   -7.5930  133.9690 C.3   433  LEU433      0.1561
    107  C        139.8970   -7.7490  132.4610 C.2   433  LEU433      0.2260
    108  O        141.0410   -7.7580  132.0010 O.2   433  LEU433     -0.2867
    109  CB       139.6810   -8.9640  134.6540 C.3   433  LEU433      0.0270
    110  CG       140.3860   -9.0360  136.0070 C.3   433  LEU433      0.0019
    111  CD1      139.7820  -10.1160  136.8740 C.3   433  LEU433      0.0001
    112  CD2      141.8850   -9.2440  135.8440 C.3   433  LEU433      0.0001
@<TRIPOS>BOND
     1   108   107    2
     2   107   106    1
     3   106   105    1
     4   106   109    1
     5   109   110    1
     6   112   110    1
     7    94    93    2
     8   110   111    1
     9    93    92    1
    10    92    91    1
    11    92    95    1
    12   103   101   ar
    13   103   104   ar
    14   101    98   ar
    15    95    96    1
    16   104   102   ar
    17    98    96   ar
    18    98   100   ar
    19    96    97   ar
    20   102   100   ar
    21   100    99   ar
    22    86    85    2
    23    97    99   ar
    24    85    84    1
    25    84    87    1
    26    84    83    1
    27    87    88    1
    28    90    88    1
    29    78    77    2
    30    83    77   am
    31    88    89    1
    32    77    76    1
    33    36    35    2
    34    76    75    1
    35    76    79    1
    36    35    34    1
    37    70    69    2
    38    81    79    1
    39    79    80    1
    40    34    37    1
    41    34    33    1
    42    37    39    1
    43    37    38    1
    44    69    68    1
    45    80    82    1
    46    72    73    1
    47    72    74    1
    48    72    71    1
    49    68    71    1
    50    68    67    1
    51    28    27    2
    52    62    61    2
    53    21    20    2
    54    61    60    1
    55    27    26    1
    56    66    64    1
    57    26    25    1
    58    26    29    1
    59    20    25   am
    60    20    19    1
    61    60    63    1
    62    60    59    1
    63    63    64    1
    64    64    65    1
    65    51    50    2
    66    29    30    1
    67    19    22    1
    68    19    18    1
    69    30    31    1
    70    22    24    1
    71    22    23    1
    72    32    31    1
    73    59    50   am
    74    50    49    1
    75    49    48    1
    76    49    52    1
    77    10     9    2
    78    43    42    2
    79    52    53    1
    80     9     8    1
    81    42    41    1
    82    53    54    1
    83    13    15   ar
    84    13    12   ar
    85    46    44    1
    86    15    17   ar
    87     8    11    1
    88     8     7    1
    89    54    55    1
    90    11    12    1
    91    12    14   ar
    92    41    44    1
    93    41    40    1
    94    44    45    1
    95    17    16   ar
    96    55    56    2
    97    14    16   ar
    98    45    47    1
    99    56    57    1
   100    56    58    1
   101     4     3    2
   102     6     5    1
   103     2     5    1
   104     2     3    1
   105     2     1    1
