@<TRIPOS>MOLECULE
tmp/6ma2A01.pdb
 145 141 0 0 0
SMALL
GASTEIGER

@<TRIPOS>ATOM
      1  N         10.0150  -42.5500   20.7490 N.3   245  ASN245     -0.1225
      2  CA         9.3110  -43.1330   19.6000 C.3   245  ASN245      0.1785
      3  C          7.8140  -43.0350   19.8560 C.2   245  ASN245      0.2597
      4  O          7.1770  -43.9680   20.3440 O.2   245  ASN245     -0.2718
      5  CB         9.7400  -44.5750   19.3550 C.3   245  ASN245      0.1169
      6  CG         9.0790  -45.1650   18.1130 C.2   245  ASN245      0.2627
      7  OD1        8.4510  -44.4480   17.3320 O.2   245  ASN245     -0.2716
      8  ND2        9.2260  -46.4750   17.9210 N.am  245  ASN245     -0.0877
      9  N          7.2570  -41.8770   19.5210 N.am  246  HIS246     -0.1962
     10  CA         5.8620  -41.5260   19.7110 C.3   246  HIS246      0.1772
     11  C          5.4960  -40.5600   18.5960 C.2   246  HIS246      0.2462
     12  O          6.3380  -39.7510   18.1960 O.2   246  HIS246     -0.2730
     13  CB         5.6260  -40.8740   21.0860 C.3   246  HIS246      0.0785
     14  CG         4.1870  -40.5760   21.3770 C.ar  246  HIS246      0.0821
     15  ND1        3.5500  -39.4500   20.9040 N.ar  246  HIS246     -0.2267
     16  CD2        3.2580  -41.2650   22.0920 C.ar  246  HIS246      0.1154
     17  CE1        2.2940  -39.4520   21.3200 C.ar  246  HIS246      0.1986
     18  NE2        2.0890  -40.5470   22.0350 N.ar  246  HIS246     -0.2212
     19  N          4.2560  -40.6030   18.0930 N.am  247  PRO247     -0.2727
     20  CA         3.8880  -39.7360   16.9590 C.3   247  PRO247      0.1402
     21  C          4.1610  -38.2610   17.1790 C.2   247  PRO247      0.2269
     22  O          4.4250  -37.5480   16.2040 O.2   247  PRO247     -0.2865
     23  CB         2.3840  -39.9980   16.7780 C.3   247  PRO247      0.0296
     24  CG         1.9600  -40.7960   17.9490 C.3   247  PRO247      0.0237
     25  CD         3.1630  -41.5220   18.4530 C.3   247  PRO247      0.0939
     26  N          7.4980  -37.6610   15.9930 N.3   250  HIS250     -0.1241
     27  CA         7.4450  -37.7690   14.5350 C.3   250  HIS250      0.1621
     28  C          6.9260  -36.4940   13.8930 C.2   250  HIS250      0.2264
     29  O          7.1660  -36.2620   12.6950 O.2   250  HIS250     -0.2867
     30  CB         6.5550  -38.9530   14.1200 C.3   250  HIS250      0.0745
     31  CG         6.9210  -40.2480   14.7830 C.ar  250  HIS250      0.0817
     32  ND1        6.0790  -41.3410   14.7960 N.ar  250  HIS250     -0.2268
     33  CD2        8.0390  -40.6260   15.4480 C.ar  250  HIS250      0.1154
     34  CE1        6.6620  -42.3340   15.4450 C.ar  250  HIS250      0.1986
     35  NE2        7.8520  -41.9260   15.8540 N.ar  250  HIS250     -0.2212
     36  N         -6.2010  -45.0540    6.7660 N.3   506  PHE506     -0.1241
     37  CA        -5.2790  -45.7830    7.6250 C.3   506  PHE506      0.1605
     38  C         -5.4410  -45.4170    9.0980 C.2   506  PHE506      0.2264
     39  O         -4.5100  -45.6210    9.8850 O.2   506  PHE506     -0.2867
     40  CB        -3.8410  -45.5240    7.1630 C.3   506  PHE506      0.0534
     41  CG        -3.5360  -46.0550    5.7820 C.ar  506  PHE506     -0.0203
     42  CD1       -4.1320  -47.2200    5.3150 C.ar  506  PHE506     -0.0042
     43  CD2       -2.6370  -45.3850    4.9510 C.ar  506  PHE506     -0.0042
     44  CE1       -3.8290  -47.6960    4.0380 C.ar  506  PHE506     -0.0003
     45  CE2       -2.3450  -45.8650    3.6900 C.ar  506  PHE506     -0.0003
     46  CZ        -2.9430  -47.0120    3.2370 C.ar  506  PHE506     -0.0000
     47  N         -7.2660  -45.5900   13.0220 N.3   508  GLN508     -0.1245
     48  CA        -7.8880  -46.5700   13.8980 C.3   508  GLN508      0.1566
     49  C         -9.3910  -46.6300   13.6270 C.2   508  GLN508      0.2260
     50  O        -10.0380  -45.6040   13.3920 O.2   508  GLN508     -0.2867
     51  CB        -7.6000  -46.2110   15.3610 C.3   508  GLN508      0.0367
     52  CG        -6.1390  -45.7720   15.5510 C.3   508  GLN508      0.0905
     53  CD        -5.6280  -45.9430   16.9770 C.2   508  GLN508      0.2608
     54  OE1       -6.2830  -46.5600   17.8230 O.2   508  GLN508     -0.2717
     55  NE2       -4.4490  -45.4010   17.2460 N.am  508  GLN508     -0.0878
     56  N         -7.3040  -50.6780    7.6580 N.3   535  LEU535     -0.1245
     57  CA        -6.3670  -51.4320    8.4930 C.3   535  LEU535      0.1561
     58  C         -7.0670  -52.2320    9.5950 C.2   535  LEU535      0.2260
     59  O         -8.0990  -51.8180   10.1300 O.2   535  LEU535     -0.2867
     60  CB        -5.3350  -50.5120    9.1430 C.3   535  LEU535      0.0270
     61  CG        -4.5250  -49.6740    8.1530 C.3   535  LEU535      0.0019
     62  CD1       -3.3860  -48.9930    8.8960 C.3   535  LEU535      0.0001
     63  CD2       -4.0190  -50.5290    6.9340 C.3   535  LEU535      0.0001
     64  N         -7.3240  -52.7060   12.8690 N.3   537  PHE537     -0.1241
     65  CA        -6.8830  -51.7400   13.8420 C.3   537  PHE537      0.1605
     66  C         -7.9920  -51.4830   14.8630 C.2   537  PHE537      0.2264
     67  O         -8.4680  -50.3470   14.9910 O.2   537  PHE537     -0.2867
     68  CB        -6.5010  -50.4590   13.0900 C.3   537  PHE537      0.0534
     69  CG        -5.4180  -49.6490   13.7300 C.ar  537  PHE537     -0.0203
     70  CD1       -5.0710  -49.8240   15.0700 C.ar  537  PHE537     -0.0042
     71  CD2       -4.7590  -48.6630   12.9760 C.ar  537  PHE537     -0.0042
     72  CE1       -4.0630  -49.0390   15.6420 C.ar  537  PHE537     -0.0003
     73  CE2       -3.7560  -47.8720   13.5360 C.ar  537  PHE537     -0.0003
     74  CZ        -3.4100  -48.0500   14.8620 C.ar  537  PHE537     -0.0000
     75  N         -1.6110  -53.3530   10.4910 N.3   564  VAL564     -0.1231
     76  CA        -0.8230  -52.2080   10.9270 C.3   564  VAL564      0.1692
     77  C          0.6550  -52.4720   10.6290 C.2   564  VAL564      0.2592
     78  O          1.1600  -53.5820   10.8440 O.2   564  VAL564     -0.2718
     79  CB        -1.0490  -51.9770   12.4330 C.3   564  VAL564      0.0266
     80  CG1       -0.1000  -50.8970   12.9520 C.3   564  VAL564      0.0020
     81  CG2       -2.5130  -51.6160   12.6920 C.3   564  VAL564      0.0020
     82  N          1.3620  -51.4390   10.1760 N.am  565  ALA565     -0.1966
     83  CA         2.7360  -51.5790    9.7110 C.3   565  ALA565      0.1713
     84  C          3.6830  -50.6930   10.5060 C.2   565  ALA565      0.2458
     85  O          3.2520  -49.7130   11.1260 O.2   565  ALA565     -0.2730
     86  CB         2.8340  -51.2140    8.2210 C.3   565  ALA565      0.0333
     87  N          4.9870  -50.9820   10.4820 N.am  566  PRO566     -0.2716
     88  CA         5.9580  -50.0310   11.0470 C.3   566  PRO566      0.1536
     89  C          5.8130  -48.6690   10.3750 C.2   566  PRO566      0.2598
     90  O          5.3030  -48.5430    9.2510 O.2   566  PRO566     -0.2715
     91  CB         7.3270  -50.6550   10.7270 C.3   566  PRO566      0.0310
     92  CG         7.0420  -52.0380   10.2560 C.3   566  PRO566      0.0237
     93  CD         5.6330  -52.0900    9.7650 C.3   566  PRO566      0.0939
     94  N          6.2710  -47.6380   11.0870 N.am  567  LYS567     -0.1978
     95  CA         6.0300  -46.2620   10.6650 C.3   567  LYS567      0.1596
     96  C          6.4400  -46.0280    9.2040 C.2   567  LYS567      0.2287
     97  O          5.6680  -45.4770    8.4140 O.2   567  LYS567     -0.2864
     98  CB         6.7720  -45.3160   11.6050 C.3   567  LYS567      0.0298
     99  CG         6.6380  -43.8330   11.2670 C.3   567  LYS567      0.0038
    100  CD         5.2720  -43.3030   11.6700 C.3   567  LYS567      0.0206
    101  CE         5.2360  -41.7770   11.5520 C.3   567  LYS567      0.1093
    102  NZ         4.1470  -41.2070   12.4050 N.3   567  LYS567     -0.1314
    103  N          4.2450  -47.7250    6.6580 N.3   570  HIS570     -0.1241
    104  CA         2.9070  -47.1350    6.6510 C.3   570  HIS570      0.1621
    105  C          2.8700  -45.8640    5.8030 C.2   570  HIS570      0.2264
    106  O          1.9230  -45.6470    5.0380 O.2   570  HIS570     -0.2867
    107  CB         2.4640  -46.8790    8.0980 C.3   570  HIS570      0.0745
    108  CG         1.5620  -45.7000    8.2660 C.ar  570  HIS570      0.0817
    109  ND1        0.2350  -45.7150    7.8830 N.ar  570  HIS570     -0.2268
    110  CD2        1.7960  -44.4650    8.7820 C.ar  570  HIS570      0.1154
    111  CE1       -0.3090  -44.5390    8.1540 C.ar  570  HIS570      0.1986
    112  NE2        0.6150  -43.7650    8.7010 N.ar  570  HIS570     -0.2212
    113  N          3.6960  -47.0180    1.9030 N.3   573  ARG573     -0.1245
    114  CA         2.6320  -47.6900    1.1500 C.3   573  ARG573      0.1563
    115  C          1.4310  -46.7840    0.8550 C.2   573  ARG573      0.2260
    116  O          0.6060  -47.1440    0.0030 O.2   573  ARG573     -0.2867
    117  CB         2.1720  -48.9670    1.8780 C.3   573  ARG573      0.0307
    118  CG         1.4200  -48.7420    3.2090 C.3   573  ARG573      0.0489
    119  CD         1.1200  -50.0670    3.8820 C.3   573  ARG573      0.2205
    120  NE         0.4090  -49.9000    5.1380 N.pl3 573  ARG573     -0.0865
    121  CZ         0.0840  -50.9090    5.9460 C.cat 573  ARG573      0.5346
    122  NH1        0.3820  -52.1530    5.5880 N.pl3 573  ARG573      0.1354
    123  NH2       -0.5370  -50.6850    7.1050 N.pl3 573  ARG573      0.1354
    124  N         -2.0030  -37.0460   12.4150 N.3   590  THR590     -0.1203
    125  CA        -0.7460  -37.5830   11.8920 C.3   590  THR590      0.1994
    126  C         -0.9500  -38.2590   10.5380 C.2   590  THR590      0.2618
    127  O         -0.2060  -38.0080    9.5840 O.2   590  THR590     -0.2717
    128  CB        -0.1310  -38.5600   12.8930 C.3   590  THR590      0.1784
    129  OG1        0.3450  -37.8180   14.0160 O.3   590  THR590     -0.2211
    130  CG2        1.0560  -39.3190   12.2550 C.3   590  THR590      0.0376
    131  N         -1.9900  -39.0880   10.4170 N.am  591  THR591     -0.1952
    132  CA        -2.1780  -39.8520    9.1830 C.3   591  THR591      0.1897
    133  C         -2.5340  -38.9610    7.9860 C.2   591  THR591      0.2313
    134  O         -2.2800  -39.3470    6.8400 O.2   591  THR591     -0.2863
    135  CB        -3.2490  -40.9190    9.3790 C.3   591  THR591      0.1794
    136  OG1       -4.4960  -40.2630    9.6350 O.3   591  THR591     -0.2208
    137  CG2       -2.8790  -41.8700   10.5640 C.3   591  THR591      0.0378
    138  N          0.7580  -37.9780    6.8290 N.3   594  ASP594     -0.1239
    139  CA         1.4350  -39.1290    6.2260 C.3   594  ASP594      0.1674
    140  C          1.0070  -39.3340    4.7800 C.2   594  ASP594      0.2266
    141  O          1.8330  -39.6170    3.9070 O.2   594  ASP594     -0.2867
    142  CB         1.1260  -40.3940    7.0120 C.3   594  ASP594      0.1410
    143  CG         1.7010  -40.3690    8.4190 C.2   594  ASP594      0.3668
    144  OD1        2.6740  -39.6240    8.6950 O.co2 594  ASP594     -0.2456
    145  OD2        1.1770  -41.1320    9.2330 O.co2 594  ASP594     -0.2456
@<TRIPOS>BOND
     1   116   115    2
     2   115   114    1
     3   114   117    1
     4   114   113    1
     5   117   118    1
     6   118   119    1
     7    46    45   ar
     8    46    44   ar
     9    45    43   ar
    10   119   120    1
    11   141   140    2
    12    44    42   ar
    13   140   139    1
    14    43    41   ar
    15   106   105    2
    16   120   121    2
    17    42    41   ar
    18   122   121    1
    19    41    40    1
    20   105   104    1
    21   121   123    1
    22   139   138    1
    23   139   142    1
    24   104   103    1
    25   104   107    1
    26    36    37    1
    27   134   133    2
    28    63    61    1
    29   142   143    1
    30    40    37    1
    31    37    38    1
    32    56    57    1
    33   109   111   ar
    34   109   108   ar
    35   133   132    1
    36   107   108    1
    37    61    62    1
    38    61    60    1
    39   111   112   ar
    40    86    83    1
    41   108   110   ar
    42    97    96    2
    43   143   144   ar
    44   143   145   ar
    45    57    60    1
    46    57    58    1
    47   112   110   ar
    48    38    39    2
    49   132   135    1
    50   132   131    1
    51    96    95    1
    52    90    89    2
    53   135   136    1
    54   135   137    1
    55   127   126    2
    56    58    59    2
    57    83    82    1
    58    83    84    1
    59    93    92    1
    60    93    87    1
    61    82    77   am
    62    92    91    1
    63    89    88    1
    64    89    94   am
    65   131   126   am
    66    87    84   am
    67    87    88    1
    68    75    76    1
    69    84    85    2
    70   126   125    1
    71    77    78    2
    72    77    76    1
    73    95    94    1
    74    95    98    1
    75    91    88    1
    76    76    79    1
    77    99    98    1
    78    99   100    1
    79   101   100    1
    80   101   102    1
    81   125   124    1
    82   125   128    1
    83   130   128    1
    84    79    81    1
    85    79    80    1
    86    29    28    2
    87    64    65    1
    88   128   129    1
    89    71    73   ar
    90    71    69   ar
    91    47    48    1
    92    68    69    1
    93    68    65    1
    94    50    49    2
    95    73    74   ar
    96    49    48    1
    97    69    70   ar
    98    65    66    1
    99    28    27    1
   100    48    51    1
   101    30    27    1
   102    30    31    1
   103    27    26    1
   104    31    32   ar
   105    31    33   ar
   106    32    34   ar
   107    74    72   ar
   108    66    67    2
   109    70    72   ar
   110    51    52    1
   111    34    35   ar
   112    33    35   ar
   113    52    53    1
   114    22    21    2
   115    23    20    1
   116    23    24    1
   117    20    21    1
   118    20    19    1
   119    53    55   am
   120    53    54    2
   121     7     6    2
   122     8     6   am
   123    24    25    1
   124    19    25    1
   125    19    11   am
   126     6     5    1
   127    12    11    2
   128    11    10    1
   129     5     2    1
   130     9    10    1
   131     9     3   am
   132     2     3    1
   133     2     1    1
   134    10    13    1
   135     3     4    2
   136    15    17   ar
   137    15    14   ar
   138    13    14    1
   139    17    18   ar
   140    14    16   ar
   141    18    16   ar
