@<TRIPOS>MOLECULE
tmp/6ma3A00.pdb
 187 184 0 0 0
SMALL
GASTEIGER

@<TRIPOS>ATOM
      1  N          9.8260  -42.4150   20.6280 N.3   245  ASN245     -0.1225
      2  CA         9.1360  -43.0250   19.4900 C.3   245  ASN245      0.1785
      3  C          7.6330  -42.8830   19.7000 C.2   245  ASN245      0.2597
      4  O          6.9420  -43.7920   20.1660 O.2   245  ASN245     -0.2718
      5  CB         9.5340  -44.4830   19.3070 C.3   245  ASN245      0.1169
      6  CG         8.9780  -45.0680   18.0110 C.2   245  ASN245      0.2627
      7  OD1        8.3940  -44.3500   17.1950 O.2   245  ASN245     -0.2716
      8  ND2        9.1610  -46.3700   17.8160 N.am  245  ASN245     -0.0877
      9  N          7.1200  -41.7130   19.3330 N.am  246  HIS246     -0.1962
     10  CA         5.7220  -41.3610   19.5250 C.3   246  HIS246      0.1772
     11  C          5.3510  -40.3560   18.4490 C.2   246  HIS246      0.2462
     12  O          6.1830  -39.5190   18.0820 O.2   246  HIS246     -0.2730
     13  CB         5.4780  -40.7580   20.9200 C.3   246  HIS246      0.0785
     14  CG         4.0380  -40.4670   21.2150 C.ar  246  HIS246      0.0821
     15  ND1        3.3930  -39.3400   20.7550 N.ar  246  HIS246     -0.2267
     16  CD2        3.1200  -41.1570   21.9350 C.ar  246  HIS246      0.1154
     17  CE1        2.1380  -39.3510   21.1710 C.ar  246  HIS246      0.1986
     18  NE2        1.9470  -40.4440   21.8880 N.ar  246  HIS246     -0.2212
     19  N          4.1140  -40.4020   17.9350 N.am  247  PRO247     -0.2727
     20  CA         3.7280  -39.4810   16.8470 C.3   247  PRO247      0.1402
     21  C          4.1270  -38.0350   17.0840 C.2   247  PRO247      0.2269
     22  O          4.5250  -37.3380   16.1400 O.2   247  PRO247     -0.2865
     23  CB         2.2020  -39.6260   16.7940 C.3   247  PRO247      0.0296
     24  CG         1.9100  -40.9530   17.3920 C.3   247  PRO247      0.0237
     25  CD         3.0160  -41.2980   18.3360 C.3   247  PRO247      0.0939
     26  N          7.4510  -37.4830   15.9350 N.3   250  HIS250     -0.1241
     27  CA         7.4580  -37.5870   14.4800 C.3   250  HIS250      0.1621
     28  C          6.9550  -36.3120   13.8200 C.2   250  HIS250      0.2264
     29  O          7.2220  -36.0900   12.6310 O.2   250  HIS250     -0.2867
     30  CB         6.6040  -38.7720   14.0240 C.3   250  HIS250      0.0745
     31  CG         6.9380  -40.0620   14.7090 C.ar  250  HIS250      0.0817
     32  ND1        6.1100  -41.1620   14.6610 N.ar  250  HIS250     -0.2268
     33  CD2        8.0080  -40.4280   15.4550 C.ar  250  HIS250      0.1154
     34  CE1        6.6540  -42.1490   15.3500 C.ar  250  HIS250      0.1986
     35  NE2        7.8080  -41.7310   15.8400 N.ar  250  HIS250     -0.2212
     36  N         -0.7240  -27.4440   12.4340 N.3   382  PHE382     -0.1241
     37  CA        -0.1260  -28.7580   12.2910 C.3   382  PHE382      0.1605
     38  C          1.1970  -28.6710   11.5360 C.2   382  PHE382      0.2264
     39  O          1.4340  -27.7530   10.7470 O.2   382  PHE382     -0.2867
     40  CB        -1.0770  -29.7170   11.5810 C.3   382  PHE382      0.0534
     41  CG        -1.1790  -31.0490   12.2550 C.ar  382  PHE382     -0.0203
     42  CD1       -2.0250  -31.2250   13.3390 C.ar  382  PHE382     -0.0042
     43  CD2       -0.4110  -32.1210   11.8260 C.ar  382  PHE382     -0.0042
     44  CE1       -2.1100  -32.4520   13.9820 C.ar  382  PHE382     -0.0003
     45  CE2       -0.4950  -33.3500   12.4600 C.ar  382  PHE382     -0.0003
     46  CZ        -1.3450  -33.5150   13.5380 C.ar  382  PHE382     -0.0000
     47  N         -6.3880  -44.9710    6.8520 N.3   506  PHE506     -0.1241
     48  CA        -5.5300  -45.7060    7.7730 C.3   506  PHE506      0.1605
     49  C         -5.7020  -45.2360    9.2150 C.2   506  PHE506      0.2264
     50  O         -4.7630  -45.3030   10.0170 O.2   506  PHE506     -0.2867
     51  CB        -4.0730  -45.5840    7.3330 C.3   506  PHE506      0.0534
     52  CG        -3.7920  -46.2070    5.9900 C.ar  506  PHE506     -0.0203
     53  CD1       -4.2110  -47.4990    5.7040 C.ar  506  PHE506     -0.0042
     54  CD2       -3.1190  -45.4920    5.0070 C.ar  506  PHE506     -0.0042
     55  CE1       -3.9540  -48.0690    4.4600 C.ar  506  PHE506     -0.0003
     56  CE2       -2.8600  -46.0550    3.7680 C.ar  506  PHE506     -0.0003
     57  CZ        -3.2780  -47.3460    3.4960 C.ar  506  PHE506     -0.0000
     58  N         -7.5280  -45.2030   13.1150 N.3   508  GLN508     -0.1245
     59  CA        -8.1460  -46.1130   14.0670 C.3   508  GLN508      0.1566
     60  C         -9.6140  -46.2910   13.7140 C.2   508  GLN508      0.2260
     61  O        -10.2990  -45.3290   13.3570 O.2   508  GLN508     -0.2867
     62  CB        -8.0160  -45.5700   15.4950 C.3   508  GLN508      0.0367
     63  CG        -6.5910  -45.2060   15.9190 C.3   508  GLN508      0.0905
     64  CD        -6.2030  -43.7810   15.5500 C.2   508  GLN508      0.2608
     65  OE1       -6.5720  -43.2770   14.4890 O.2   508  GLN508     -0.2717
     66  NE2       -5.4550  -43.1260   16.4320 N.am  508  GLN508     -0.0878
     67  N        -12.1360  -46.6760   15.5590 N.3   510  TYR510     -0.1227
     68  CA       -13.1080  -45.9530   16.3710 C.3   510  TYR510      0.1736
     69  C        -13.4310  -44.5750   15.8080 C.2   510  TYR510      0.2595
     70  O        -14.3950  -43.9500   16.2650 O.2   510  TYR510     -0.2718
     71  CB       -12.6330  -45.8230   17.8250 C.3   510  TYR510      0.0548
     72  CG       -11.3640  -45.0210   18.0330 C.ar  510  TYR510     -0.0200
     73  CD1      -11.3550  -43.6370   17.8920 C.ar  510  TYR510     -0.0009
     74  CD2      -10.1830  -45.6460   18.4110 C.ar  510  TYR510     -0.0009
     75  CE1      -10.1940  -42.9020   18.0970 C.ar  510  TYR510      0.0417
     76  CE2       -9.0260  -44.9200   18.6180 C.ar  510  TYR510      0.0417
     77  CZ        -9.0370  -43.5500   18.4590 C.ar  510  TYR510      0.1957
     78  OH        -7.8820  -42.8290   18.6670 O.3   510  TYR510     -0.2866
     79  N        -12.6530  -44.0830   14.8460 N.am  511  LYS511     -0.1980
     80  CA       -12.9870  -42.8310   14.1820 C.3   511  LYS511      0.1596
     81  C        -14.0360  -43.0060   13.0920 C.2   511  LYS511      0.2287
     82  O        -14.4980  -42.0030   12.5360 O.2   511  LYS511     -0.2864
     83  CB       -11.7230  -42.1850   13.6110 C.3   511  LYS511      0.0298
     84  CG       -10.7420  -41.7530   14.6930 C.3   511  LYS511      0.0038
     85  CD        -9.5600  -41.0040   14.1120 C.3   511  LYS511      0.0206
     86  CE        -8.6980  -40.4200   15.2230 C.3   511  LYS511      0.1093
     87  NZ        -7.5190  -39.6850   14.6860 N.3   511  LYS511     -0.1314
     88  N         -7.5400  -50.2190    7.8890 N.3   535  LEU535     -0.1245
     89  CA        -6.5250  -50.6910    8.8240 C.3   535  LEU535      0.1561
     90  C         -7.1350  -51.6060    9.8820 C.2   535  LEU535      0.2260
     91  O         -8.2090  -51.3180   10.4210 O.2   535  LEU535     -0.2867
     92  CB        -5.8400  -49.5050    9.5080 C.3   535  LEU535      0.0270
     93  CG        -4.6070  -49.7860   10.3620 C.3   535  LEU535      0.0019
     94  CD1       -3.4340  -50.1570    9.4730 C.3   535  LEU535      0.0001
     95  CD2       -4.2690  -48.5710   11.2300 C.3   535  LEU535      0.0001
     96  N         -7.2330  -52.1090   13.1120 N.3   537  PHE537     -0.1241
     97  CA        -6.9420  -51.4850   14.3960 C.3   537  PHE537      0.1605
     98  C         -8.2300  -51.2690   15.1790 C.2   537  PHE537      0.2264
     99  O         -8.7740  -50.1640   15.1970 O.2   537  PHE537     -0.2867
    100  CB        -6.1990  -50.1590   14.2020 C.3   537  PHE537      0.0534
    101  CG        -5.5240  -49.6530   15.4520 C.ar  537  PHE537     -0.0203
    102  CD1       -4.2870  -50.1490   15.8360 C.ar  537  PHE537     -0.0042
    103  CD2       -6.1280  -48.6890   16.2420 C.ar  537  PHE537     -0.0042
    104  CE1       -3.6660  -49.6940   16.9840 C.ar  537  PHE537     -0.0003
    105  CE2       -5.5110  -48.2240   17.3910 C.ar  537  PHE537     -0.0003
    106  CZ        -4.2770  -48.7290   17.7650 C.ar  537  PHE537     -0.0000
    107  N         -1.4790  -53.1640   10.8320 N.3   564  VAL564     -0.1231
    108  CA        -0.6090  -52.0580   11.2130 C.3   564  VAL564      0.1692
    109  C          0.8100  -52.3660   10.7670 C.2   564  VAL564      0.2592
    110  O          1.3310  -53.4640   11.0070 O.2   564  VAL564     -0.2718
    111  CB        -0.6710  -51.8240   12.7320 C.3   564  VAL564      0.0266
    112  CG1        0.4120  -50.8380   13.1620 C.3   564  VAL564      0.0020
    113  CG2       -2.0460  -51.3220   13.1460 C.3   564  VAL564      0.0020
    114  N          1.4470  -51.3970   10.1250 N.am  565  ALA565     -0.1966
    115  CA         2.8110  -51.5390    9.6500 C.3   565  ALA565      0.1713
    116  C          3.7480  -50.6180   10.4190 C.2   565  ALA565      0.2458
    117  O          3.3040  -49.6690   11.0740 O.2   565  ALA565     -0.2730
    118  CB         2.8940  -51.2150    8.1520 C.3   565  ALA565      0.0333
    119  N          5.0550  -50.8680   10.3620 N.am  566  PRO566     -0.2716
    120  CA         6.0070  -49.9090   10.9300 C.3   566  PRO566      0.1536
    121  C          5.8380  -48.5480   10.2740 C.2   566  PRO566      0.2598
    122  O          5.3400  -48.4230    9.1510 O.2   566  PRO566     -0.2715
    123  CB         7.3790  -50.5190   10.6090 C.3   566  PRO566      0.0310
    124  CG         7.1040  -51.9600   10.2980 C.3   566  PRO566      0.0237
    125  CD         5.7240  -52.0140    9.7240 C.3   566  PRO566      0.0939
    126  N          6.2760  -47.5180   10.9980 N.am  567  LYS567     -0.1978
    127  CA         6.0140  -46.1390   10.5950 C.3   567  LYS567      0.1596
    128  C          6.4170  -45.8790    9.1440 C.2   567  LYS567      0.2287
    129  O          5.6500  -45.2970    8.3700 O.2   567  LYS567     -0.2864
    130  CB         6.7480  -45.1880   11.5410 C.3   567  LYS567      0.0298
    131  CG         6.6170  -43.7180   11.1910 C.3   567  LYS567      0.0038
    132  CD         5.2840  -43.1480   11.6310 C.3   567  LYS567      0.0206
    133  CE         5.3010  -41.6270   11.5520 C.3   567  LYS567      0.1093
    134  NZ         4.1330  -41.0320   12.2510 N.3   567  LYS567     -0.1314
    135  N          4.2080  -47.6990    6.6220 N.3   570  HIS570     -0.1241
    136  CA         2.8740  -47.1090    6.6340 C.3   570  HIS570      0.1621
    137  C          2.8160  -45.8570    5.7650 C.2   570  HIS570      0.2264
    138  O          1.8670  -45.6680    4.9940 O.2   570  HIS570     -0.2867
    139  CB         2.4740  -46.7980    8.0800 C.3   570  HIS570      0.0745
    140  CG         1.5240  -45.6510    8.2180 C.ar  570  HIS570      0.0817
    141  ND1        0.2060  -45.7240    7.8230 N.ar  570  HIS570     -0.2268
    142  CD2        1.7000  -44.4030    8.7130 C.ar  570  HIS570      0.1154
    143  CE1       -0.3870  -44.5680    8.0610 C.ar  570  HIS570      0.1986
    144  NE2        0.4970  -43.7490    8.6040 N.ar  570  HIS570     -0.2212
    145  N          3.5670  -47.0180    1.8830 N.3   573  ARG573     -0.1245
    146  CA         2.5040  -47.7170    1.1680 C.3   573  ARG573      0.1563
    147  C          1.3120  -46.8200    0.8470 C.2   573  ARG573      0.2260
    148  O          0.4800  -47.2020    0.0120 O.2   573  ARG573     -0.2867
    149  CB         2.0440  -48.9490    1.9560 C.3   573  ARG573      0.0307
    150  CG         1.3380  -48.6640    3.2730 C.3   573  ARG573      0.0489
    151  CD         1.0000  -49.9700    3.9910 C.3   573  ARG573      0.2205
    152  NE         0.2500  -49.7510    5.2240 N.pl3 573  ARG573     -0.0865
    153  CZ        -0.1170  -50.7180    6.0600 C.cat 573  ARG573      0.5346
    154  NH1        0.1930  -51.9840    5.8000 N.pl3 573  ARG573      0.1354
    155  NH2       -0.7900  -50.4200    7.1630 N.pl3 573  ARG573      0.1354
    156  N         -5.0210  -37.0590   11.8420 N.3   589  HIS589     -0.1226
    157  CA        -4.1420  -35.9460   12.1840 C.3   589  HIS589      0.1752
    158  C         -2.7250  -36.2420   11.7240 C.2   589  HIS589      0.2597
    159  O         -2.2810  -35.6890   10.7130 O.2   589  HIS589     -0.2718
    160  CB        -4.2380  -35.6510   13.6810 C.3   589  HIS589      0.0759
    161  CG        -5.6250  -35.2950   14.1240 C.ar  589  HIS589      0.0818
    162  ND1       -6.0190  -35.3050   15.4440 N.ar  589  HIS589     -0.2268
    163  CD2       -6.7190  -34.9320   13.4100 C.ar  589  HIS589      0.1154
    164  CE1       -7.2920  -34.9580   15.5250 C.ar  589  HIS589      0.1986
    165  NE2       -7.7400  -34.7250   14.3050 N.ar  589  HIS589     -0.2212
    166  N         -2.0020  -37.1400   12.4010 N.am  590  THR590     -0.1939
    167  CA        -0.7360  -37.6100   11.8480 C.3   590  THR590      0.2028
    168  C         -0.9460  -38.2930   10.4980 C.2   590  THR590      0.2642
    169  O         -0.1920  -38.0490    9.5490 O.2   590  THR590     -0.2714
    170  CB        -0.0460  -38.5600   12.8240 C.3   590  THR590      0.1808
    171  OG1        0.3290  -37.8420   14.0030 O.3   590  THR590     -0.2208
    172  CG2        1.2000  -39.1470   12.1910 C.3   590  THR590      0.0379
    173  N         -1.9790  -39.1370   10.3900 N.am  591  THR591     -0.1950
    174  CA        -2.2070  -39.9040    9.1650 C.3   591  THR591      0.1897
    175  C         -2.5570  -39.0080    7.9820 C.2   591  THR591      0.2313
    176  O         -2.3120  -39.3870    6.8300 O.2   591  THR591     -0.2863
    177  CB        -3.3240  -40.9260    9.3790 C.3   591  THR591      0.1794
    178  OG1       -4.5080  -40.2420    9.8050 O.3   591  THR591     -0.2208
    179  CG2       -2.9260  -41.9610   10.4430 C.3   591  THR591      0.0378
    180  N          0.7540  -37.9970    6.7850 N.3   594  ASP594     -0.1239
    181  CA         1.4200  -39.1320    6.1460 C.3   594  ASP594      0.1674
    182  C          0.9340  -39.3300    4.7170 C.2   594  ASP594      0.2266
    183  O          1.7350  -39.5710    3.8060 O.2   594  ASP594     -0.2867
    184  CB         1.1840  -40.4110    6.9490 C.3   594  ASP594      0.1410
    185  CG         1.7180  -40.3240    8.3630 C.2   594  ASP594      0.3668
    186  OD1        2.6500  -39.5290    8.6130 O.co2 594  ASP594     -0.2456
    187  OD2        1.2130  -41.0710    9.2230 O.co2 594  ASP594     -0.2456
@<TRIPOS>BOND
     1   148   147    2
     2   147   146    1
     3   146   145    1
     4   146   149    1
     5   149   150    1
     6   150   151    1
     7    57    56   ar
     8    57    55   ar
     9    56    54   ar
    10   183   182    2
    11   151   152    1
    12    55    53   ar
    13   182   181    1
    14   138   137    2
    15    54    52   ar
    16   152   153    2
    17    53    52   ar
    18   137   136    1
    19   154   153    1
    20    52    51    1
    21   153   155    1
    22   181   180    1
    23   181   184    1
    24   135   136    1
    25   136   139    1
    26   176   175    2
    27    47    48    1
    28   184   185    1
    29    51    48    1
    30    48    49    1
    31   141   143   ar
    32   141   140   ar
    33    88    89    1
    34   175   174    1
    35   143   144   ar
    36   139   140    1
    37   118   115    1
    38   140   142   ar
    39   185   186   ar
    40   185   187   ar
    41   129   128    2
    42   144   142   ar
    43    89    92    1
    44    89    90    1
    45   128   127    1
    46   122   121    2
    47   174   177    1
    48   174   173    1
    49    49    50    2
    50   177   178    1
    51   177   179    1
    52    94    93    1
    53    92    93    1
    54   169   168    2
    55   115   114    1
    56   115   116    1
    57   125   124    1
    58   125   119    1
    59    90    91    2
    60   114   109   am
    61   121   120    1
    62   121   126   am
    63   124   123    1
    64   119   116   am
    65   119   120    1
    66    93    95    1
    67   173   168   am
    68   116   117    2
    69   168   167    1
    70   127   126    1
    71   127   130    1
    72   123   120    1
    73   159   158    2
    74    39    38    2
    75   109   110    2
    76   109   108    1
    77   107   108    1
    78   131   130    1
    79   131   132    1
    80   108   111    1
    81    38    37    1
    82   133   132    1
    83   133   134    1
    84    40    41    1
    85    40    37    1
    86   158   157    1
    87   158   166   am
    88    43    41   ar
    89    43    45   ar
    90   156   157    1
    91   167   166    1
    92   167   170    1
    93   157   160    1
    94   172   170    1
    95    41    42   ar
    96    37    36    1
    97    45    46   ar
    98    82    81    2
    99    29    28    2
   100   111   113    1
   101   111   112    1
   102   170   171    1
   103    81    80    1
   104    96    97    1
   105    58    59    1
   106    42    44   ar
   107    61    60    2
   108   163   161   ar
   109   163   165   ar
   110    46    44   ar
   111    83    80    1
   112    83    84    1
   113   160   161    1
   114    60    59    1
   115    28    27    1
   116    30    27    1
   117    30    31    1
   118    59    62    1
   119    85    84    1
   120    85    86    1
   121   161   162   ar
   122    80    79    1
   123   100    97    1
   124   100   101    1
   125   165   164   ar
   126    97    98    1
   127    27    26    1
   128    65    64    2
   129    32    31   ar
   130    32    34   ar
   131    87    86    1
   132    31    33   ar
   133    79    69   am
   134    98    99    2
   135    34    35   ar
   136   162   164   ar
   137   101   102   ar
   138   101   103   ar
   139    33    35   ar
   140    62    63    1
   141    64    63    1
   142    64    66   am
   143    67    68    1
   144    69    70    2
   145    69    68    1
   146   102   104   ar
   147    22    21    2
   148   103   105   ar
   149    68    71    1
   150    23    20    1
   151    23    24    1
   152    20    21    1
   153    20    19    1
   154   104   106   ar
   155     7     6    2
   156   105   106   ar
   157    24    25    1
   158     8     6   am
   159    71    72    1
   160    73    72   ar
   161    73    75   ar
   162    19    25    1
   163    19    11   am
   164     6     5    1
   165    72    74   ar
   166    12    11    2
   167    75    77   ar
   168    74    76   ar
   169    11    10    1
   170    77    76   ar
   171    77    78    1
   172     5     2    1
   173     9    10    1
   174     9     3   am
   175     2     3    1
   176     2     1    1
   177    10    13    1
   178     3     4    2
   179    15    17   ar
   180    15    14   ar
   181    13    14    1
   182    17    18   ar
   183    14    16   ar
   184    18    16   ar
