@<TRIPOS>MOLECULE
tmp/6ma4A00.pdb
 195 193 0 0 0
SMALL
GASTEIGER

@<TRIPOS>ATOM
      1  N          9.7500  -42.6590   20.7290 N.3   246  ASN246     -0.1225
      2  CA         9.0560  -43.2570   19.5870 C.3   246  ASN246      0.1785
      3  C          7.5500  -43.1460   19.8170 C.2   246  ASN246      0.2597
      4  O          6.8750  -44.0860   20.2420 O.2   246  ASN246     -0.2718
      5  CB         9.4840  -44.7030   19.3770 C.3   246  ASN246      0.1169
      6  CG         8.9240  -45.2870   18.0840 C.2   246  ASN246      0.2627
      7  OD1        8.2510  -44.5910   17.3130 O.2   246  ASN246     -0.2716
      8  ND2        9.2030  -46.5630   17.8410 N.am  246  ASN246     -0.0877
      9  N          7.0180  -41.9650   19.5150 N.am  247  HIS247     -0.1962
     10  CA         5.6080  -41.6420   19.6780 C.3   247  HIS247      0.1772
     11  C          5.2200  -40.6780   18.5700 C.2   247  HIS247      0.2462
     12  O          6.0550  -39.8790   18.1310 O.2   247  HIS247     -0.2730
     13  CB         5.3340  -41.0140   21.0610 C.3   247  HIS247      0.0785
     14  CG         3.8840  -40.7470   21.3380 C.ar  247  HIS247      0.0821
     15  ND1        3.2280  -39.6280   20.8710 N.ar  247  HIS247     -0.2267
     16  CD2        2.9670  -41.4490   22.0470 C.ar  247  HIS247      0.1154
     17  CE1        1.9700  -39.6530   21.2780 C.ar  247  HIS247      0.1986
     18  NE2        1.7840  -40.7520   21.9870 N.ar  247  HIS247     -0.2212
     19  N          3.9750  -40.7250   18.0930 N.am  248  PRO248     -0.2727
     20  CA         3.5840  -39.8430   16.9840 C.3   248  PRO248      0.1402
     21  C          3.9180  -38.3800   17.2020 C.2   248  PRO248      0.2269
     22  O          4.2690  -37.6850   16.2400 O.2   248  PRO248     -0.2865
     23  CB         2.0700  -40.0630   16.8900 C.3   248  PRO248      0.0296
     24  CG         1.8640  -41.4320   17.3940 C.3   248  PRO248      0.0237
     25  CD         2.9000  -41.6620   18.4600 C.3   248  PRO248      0.0939
     26  N          7.2490  -37.7340   16.0280 N.3   251  HIS251     -0.1241
     27  CA         7.2240  -37.8190   14.5730 C.3   251  HIS251      0.1621
     28  C          6.7150  -36.5340   13.9370 C.2   251  HIS251      0.2264
     29  O          6.9360  -36.3130   12.7400 O.2   251  HIS251     -0.2867
     30  CB         6.3530  -38.9970   14.1400 C.3   251  HIS251      0.0745
     31  CG         6.7440  -40.2980   14.7700 C.ar  251  HIS251      0.0817
     32  ND1        5.9350  -41.4110   14.7350 N.ar  251  HIS251     -0.2268
     33  CD2        7.8630  -40.6650   15.4390 C.ar  251  HIS251      0.1154
     34  CE1        6.5350  -42.4080   15.3610 C.ar  251  HIS251      0.1986
     35  NE2        7.7050  -41.9810   15.8020 N.ar  251  HIS251     -0.2212
     36  N         -0.9480  -27.6280   12.5450 N.3   383  PHE383     -0.1241
     37  CA        -0.3780  -28.9590   12.4230 C.3   383  PHE383      0.1605
     38  C          0.9330  -28.9030   11.6470 C.2   383  PHE383      0.2264
     39  O          1.1820  -27.9890   10.8530 O.2   383  PHE383     -0.2867
     40  CB        -1.3600  -29.9220   11.7520 C.3   383  PHE383      0.0534
     41  CG        -1.3950  -31.2820   12.3960 C.ar  383  PHE383     -0.0203
     42  CD1       -2.1560  -31.5050   13.5380 C.ar  383  PHE383     -0.0042
     43  CD2       -0.6530  -32.3340   11.8780 C.ar  383  PHE383     -0.0042
     44  CE1       -2.1790  -32.7570   14.1460 C.ar  383  PHE383     -0.0003
     45  CE2       -0.6780  -33.5870   12.4820 C.ar  383  PHE383     -0.0003
     46  CZ        -1.4400  -33.7970   13.6150 C.ar  383  PHE383     -0.0000
     47  N         -6.5040  -45.1360    6.8080 N.3   507  PHE507     -0.1227
     48  CA        -5.6200  -45.8820    7.6970 C.3   507  PHE507      0.1736
     49  C         -5.7890  -45.4770    9.1640 C.2   507  PHE507      0.2595
     50  O         -4.8590  -45.6250    9.9680 O.2   507  PHE507     -0.2718
     51  CB        -4.1660  -45.6980    7.2660 C.3   507  PHE507      0.0547
     52  CG        -3.8520  -46.2520    5.8960 C.ar  507  PHE507     -0.0202
     53  CD1       -4.3170  -47.4990    5.5070 C.ar  507  PHE507     -0.0042
     54  CD2       -3.0840  -45.5210    5.0050 C.ar  507  PHE507     -0.0042
     55  CE1       -4.0180  -48.0030    4.2520 C.ar  507  PHE507     -0.0003
     56  CE2       -2.7880  -46.0180    3.7500 C.ar  507  PHE507     -0.0003
     57  CZ        -3.2540  -47.2540    3.3710 C.ar  507  PHE507     -0.0000
     58  N         -6.9630  -44.9580    9.5260 N.am  508  ASN508     -0.1960
     59  CA        -7.2220  -44.5270   10.8930 C.3   508  ASN508      0.1819
     60  C         -7.6670  -45.6980   11.7600 C.2   508  ASN508      0.2621
     61  O         -8.1100  -46.7350   11.2630 O.2   508  ASN508     -0.2715
     62  CB        -8.3040  -43.4490   10.9310 C.3   508  ASN508      0.1195
     63  CG        -7.8700  -42.1630   10.2630 C.2   508  ASN508      0.2630
     64  OD1       -6.6830  -41.9280   10.0660 O.2   508  ASN508     -0.2716
     65  ND2       -8.8330  -41.3150    9.9240 N.am  508  ASN508     -0.0877
     66  N         -7.5670  -45.5150   13.0790 N.am  509  GLN509     -0.1977
     67  CA        -8.1890  -46.4620   13.9950 C.3   509  GLN509      0.1601
     68  C         -9.6720  -46.5860   13.6690 C.2   509  GLN509      0.2287
     69  O        -10.3360  -45.5980   13.3520 O.2   509  GLN509     -0.2864
     70  CB        -8.0140  -46.0120   15.4470 C.3   509  GLN509      0.0394
     71  CG        -6.6060  -45.5690   15.8300 C.3   509  GLN509      0.0908
     72  CD        -6.3640  -44.0940   15.5530 C.2   509  GLN509      0.2608
     73  OE1       -6.5530  -43.6200   14.4260 O.2   509  GLN509     -0.2717
     74  NE2       -5.9460  -43.3570   16.5840 N.am  509  GLN509     -0.0878
     75  N        -12.2340  -46.8970   15.4520 N.3   511  TYR511     -0.1227
     76  CA       -13.1990  -46.1990   16.2970 C.3   511  TYR511      0.1736
     77  C        -13.5660  -44.8240   15.7490 C.2   511  TYR511      0.2595
     78  O        -14.5700  -44.2480   16.1840 O.2   511  TYR511     -0.2718
     79  CB       -12.6840  -46.0670   17.7370 C.3   511  TYR511      0.0548
     80  CG       -11.4930  -45.1460   17.9290 C.ar  511  TYR511     -0.0200
     81  CD1      -11.6320  -43.7650   17.8530 C.ar  511  TYR511     -0.0009
     82  CD2      -10.2370  -45.6590   18.2290 C.ar  511  TYR511     -0.0009
     83  CE1      -10.5480  -42.9220   18.0360 C.ar  511  TYR511      0.0417
     84  CE2       -9.1490  -44.8230   18.4110 C.ar  511  TYR511      0.0417
     85  CZ        -9.3130  -43.4560   18.3120 C.ar  511  TYR511      0.1957
     86  OH        -8.2360  -42.6240   18.4980 O.3   511  TYR511     -0.2866
     87  N        -12.7790  -44.2840   14.8160 N.am  512  LYS512     -0.1980
     88  CA       -13.1210  -43.0260   14.1630 C.3   512  LYS512      0.1596
     89  C        -14.1700  -43.1970   13.0650 C.2   512  LYS512      0.2287
     90  O        -14.5830  -42.2000   12.4600 O.2   512  LYS512     -0.2864
     91  CB       -11.8550  -42.3750   13.5930 C.3   512  LYS512      0.0298
     92  CG       -10.8220  -42.0060   14.6560 C.3   512  LYS512      0.0038
     93  CD        -9.6830  -41.1980   14.0530 C.3   512  LYS512      0.0206
     94  CE        -8.7620  -40.6400   15.1310 C.3   512  LYS512      0.1093
     95  NZ        -7.6720  -39.7960   14.5450 N.3   512  LYS512     -0.1314
     96  N         -7.5650  -50.6150    7.7610 N.3   536  LEU536     -0.1245
     97  CA        -6.5850  -51.2490    8.6410 C.3   536  LEU536      0.1561
     98  C         -7.2440  -52.0700    9.7410 C.2   536  LEU536      0.2260
     99  O         -8.2810  -51.6780   10.2900 O.2   536  LEU536     -0.2867
    100  CB        -5.6680  -50.2120    9.2760 C.3   536  LEU536      0.0270
    101  CG        -4.7320  -49.6400    8.2200 C.3   536  LEU536      0.0019
    102  CD1       -3.8700  -48.5760    8.8280 C.3   536  LEU536      0.0001
    103  CD2       -3.8860  -50.7380    7.5750 C.3   536  LEU536      0.0001
    104  N         -7.3150  -52.4160   12.9200 N.3   538  PHE538     -0.1241
    105  CA        -6.9990  -51.7800   14.1930 C.3   538  PHE538      0.1605
    106  C         -8.2720  -51.5470   15.0030 C.2   538  PHE538      0.2264
    107  O         -8.8060  -50.4360   15.0250 O.2   538  PHE538     -0.2867
    108  CB        -6.2410  -50.4640   13.9750 C.3   538  PHE538      0.0534
    109  CG        -5.6140  -49.9180   15.2350 C.ar  538  PHE538     -0.0203
    110  CD1       -4.4410  -50.4560   15.7330 C.ar  538  PHE538     -0.0042
    111  CD2       -6.2110  -48.8800   15.9270 C.ar  538  PHE538     -0.0042
    112  CE1       -3.8680  -49.9670   16.8930 C.ar  538  PHE538     -0.0003
    113  CE2       -5.6460  -48.3840   17.0860 C.ar  538  PHE538     -0.0003
    114  CZ        -4.4710  -48.9290   17.5730 C.ar  538  PHE538     -0.0000
    115  N         -1.6420  -53.4500   10.7180 N.3   565  VAL565     -0.1231
    116  CA        -0.8400  -52.2930   11.0900 C.3   565  VAL565      0.1692
    117  C          0.6120  -52.5450   10.7090 C.2   565  VAL565      0.2592
    118  O          1.1550  -53.6360   10.9350 O.2   565  VAL565     -0.2718
    119  CB        -0.9800  -52.0080   12.5960 C.3   565  VAL565      0.0266
    120  CG1        0.1180  -51.0700   13.0580 C.3   565  VAL565      0.0020
    121  CG2       -2.3460  -51.4190   12.8930 C.3   565  VAL565      0.0020
    122  N          1.2580  -51.5270   10.1490 N.am  566  ALA566     -0.1966
    123  CA         2.6280  -51.6380    9.6780 C.3   566  ALA566      0.1713
    124  C          3.5620  -50.7400   10.4780 C.2   566  ALA566      0.2458
    125  O          3.1150  -49.8160   11.1700 O.2   566  ALA566     -0.2730
    126  CB         2.7130  -51.2690    8.1890 C.3   566  ALA566      0.0333
    127  N          4.8720  -50.9830   10.4100 N.am  567  PRO567     -0.2716
    128  CA         5.8220  -50.0400   11.0060 C.3   567  PRO567      0.1536
    129  C          5.7040  -48.6890   10.3220 C.2   567  PRO567      0.2598
    130  O          5.2370  -48.5760    9.1860 O.2   567  PRO567     -0.2715
    131  CB         7.1960  -50.6790   10.7470 C.3   567  PRO567      0.0310
    132  CG         6.9190  -52.0380   10.1700 C.3   567  PRO567      0.0237
    133  CD         5.5450  -52.0100    9.5990 C.3   567  PRO567      0.0939
    134  N          6.1620  -47.6550   11.0280 N.am  568  LYS568     -0.1978
    135  CA         5.9060  -46.2810   10.6110 C.3   568  LYS568      0.1596
    136  C          6.2960  -46.0380    9.1530 C.2   568  LYS568      0.2287
    137  O          5.5160  -45.4810    8.3740 O.2   568  LYS568     -0.2864
    138  CB         6.6520  -45.3250   11.5390 C.3   568  LYS568      0.0298
    139  CG         6.4910  -43.8590   11.1830 C.3   568  LYS568      0.0038
    140  CD         5.1030  -43.3530   11.4860 C.3   568  LYS568      0.0206
    141  CE         5.0310  -41.8440   11.2900 C.3   568  LYS568      0.1093
    142  NZ         3.8440  -41.2530   11.9650 N.3   568  LYS568     -0.1314
    143  N          4.0900  -47.8170    6.6840 N.3   571  HIS571     -0.1241
    144  CA         2.7610  -47.2130    6.7180 C.3   571  HIS571      0.1621
    145  C          2.6930  -45.9730    5.8290 C.2   571  HIS571      0.2264
    146  O          1.7450  -45.7990    5.0530 O.2   571  HIS571     -0.2867
    147  CB         2.3870  -46.8730    8.1590 C.3   571  HIS571      0.0745
    148  CG         1.4060  -45.7530    8.2740 C.ar  571  HIS571      0.0817
    149  ND1        0.0610  -45.9190    8.0360 N.ar  571  HIS571     -0.2268
    150  CD2        1.5760  -44.4450    8.5810 C.ar  571  HIS571      0.1154
    151  CE1       -0.5590  -44.7640    8.2030 C.ar  571  HIS571      0.1986
    152  NE2        0.3390  -43.8520    8.5300 N.ar  571  HIS571     -0.2212
    153  N          3.4550  -47.1070    1.9280 N.3   574  ARG574     -0.1245
    154  CA         2.4240  -47.8120    1.1740 C.3   574  ARG574      0.1563
    155  C          1.2240  -46.9270    0.8380 C.2   574  ARG574      0.2260
    156  O          0.4090  -47.3180   -0.0070 O.2   574  ARG574     -0.2867
    157  CB         1.9700  -49.0760    1.9180 C.3   574  ARG574      0.0307
    158  CG         1.2690  -48.8340    3.2420 C.3   574  ARG574      0.0489
    159  CD         0.9350  -50.1580    3.9230 C.3   574  ARG574      0.2205
    160  NE         0.1610  -49.9580    5.1450 N.pl3 574  ARG574     -0.0865
    161  CZ        -0.1800  -50.9400    5.9770 C.cat 574  ARG574      0.5346
    162  NH1        0.1870  -52.1890    5.7070 N.pl3 574  ARG574      0.1354
    163  NH2       -0.8780  -50.6800    7.0810 N.pl3 574  ARG574      0.1354
    164  N         -5.2490  -37.1910   11.7180 N.3   590  HIS590     -0.1226
    165  CA        -4.4200  -36.0450   12.0630 C.3   590  HIS590      0.1752
    166  C         -2.9950  -36.3120   11.6010 C.2   590  HIS590      0.2597
    167  O         -2.5820  -35.8050   10.5490 O.2   590  HIS590     -0.2718
    168  CB        -4.5100  -35.7620   13.5640 C.3   590  HIS590      0.0759
    169  CG        -5.8970  -35.4260   14.0190 C.ar  590  HIS590      0.0818
    170  ND1       -6.2570  -35.3690   15.3490 N.ar  590  HIS590     -0.2268
    171  CD2       -7.0170  -35.1360   13.3140 C.ar  590  HIS590      0.1154
    172  CE1       -7.5370  -35.0540   15.4420 C.ar  590  HIS590      0.1986
    173  NE2       -8.0220  -34.9050   14.2220 N.ar  590  HIS590     -0.2212
    174  N         -2.2490  -37.1340   12.3470 N.am  591  THR591     -0.1939
    175  CA        -0.9740  -37.6280   11.8250 C.3   591  THR591      0.2028
    176  C         -1.1660  -38.3460   10.4930 C.2   591  THR591      0.2642
    177  O         -0.3810  -38.1560    9.5570 O.2   591  THR591     -0.2714
    178  CB        -0.3040  -38.5680   12.8330 C.3   591  THR591      0.1808
    179  OG1        0.1320  -37.8190   13.9690 O.3   591  THR591     -0.2208
    180  CG2        0.8990  -39.2530   12.2040 C.3   591  THR591      0.0379
    181  N         -2.2060  -39.1810   10.3920 N.am  592  THR592     -0.1950
    182  CA        -2.4180  -39.9640    9.1760 C.3   592  THR592      0.1897
    183  C         -2.7850  -39.0820    7.9910 C.2   592  THR592      0.2313
    184  O         -2.5700  -39.4770    6.8400 O.2   592  THR592     -0.2863
    185  CB        -3.5040  -41.0200    9.4030 C.3   592  THR592      0.1794
    186  OG1       -4.6990  -40.3790    9.8710 O.3   592  THR592     -0.2208
    187  CG2       -3.0490  -42.0500   10.4530 C.3   592  THR592      0.0378
    188  N          0.4900  -38.1000    6.7590 N.3   595  ASP595     -0.1239
    189  CA         1.1470  -39.2520    6.1420 C.3   595  ASP595      0.1674
    190  C          0.7060  -39.4430    4.6920 C.2   595  ASP595      0.2266
    191  O          1.5380  -39.6870    3.8120 O.2   595  ASP595     -0.2867
    192  CB         0.8610  -40.5230    6.9440 C.3   595  ASP595      0.1410
    193  CG         1.4700  -40.4990    8.3310 C.2   595  ASP595      0.3668
    194  OD1        2.4490  -39.7490    8.5670 O.co2 595  ASP595     -0.2456
    195  OD2        0.9680  -41.2560    9.1870 O.co2 595  ASP595     -0.2456
@<TRIPOS>BOND
     1   156   155    2
     2   155   154    1
     3   154   157    1
     4   154   153    1
     5   157   158    1
     6   158   159    1
     7    57    56   ar
     8    57    55   ar
     9    56    54   ar
    10   191   190    2
    11   159   160    1
    12    55    53   ar
    13   190   189    1
    14    54    52   ar
    15   146   145    2
    16   160   161    2
    17    53    52   ar
    18   162   161    1
    19   145   144    1
    20    52    51    1
    21   161   163    1
    22   189   188    1
    23   189   192    1
    24   143   144    1
    25   144   147    1
    26    47    48    1
    27   184   183    2
    28   192   193    1
    29    51    48    1
    30   103   101    1
    31    48    49    1
    32    96    97    1
    33   183   182    1
    34   149   151   ar
    35   149   148   ar
    36   147   148    1
    37   126   123    1
    38   151   152   ar
    39   101   102    1
    40   101   100    1
    41   148   150   ar
    42   193   194   ar
    43   193   195   ar
    44   137   136    2
    45   152   150   ar
    46    97   100    1
    47    97    98    1
    48   136   135    1
    49    49    58   am
    50    49    50    2
    51   182   185    1
    52   182   181    1
    53   130   129    2
    54   185   186    1
    55   185   187    1
    56    58    59    1
    57   177   176    2
    58   133   132    1
    59   133   127    1
    60   123   122    1
    61   123   124    1
    62    98    99    2
    63    65    63   am
    64    64    63    2
    65   122   117   am
    66   132   131    1
    67    63    62    1
    68   129   128    1
    69   129   134   am
    70   181   176   am
    71   127   124   am
    72   127   128    1
    73   124   125    2
    74   176   175    1
    75   167   166    2
    76   135   134    1
    77   135   138    1
    78   117   118    2
    79   117   116    1
    80   115   116    1
    81   131   128    1
    82    39    38    2
    83    59    62    1
    84    59    60    1
    85   116   119    1
    86   139   140    1
    87   139   138    1
    88    61    60    2
    89   141   140    1
    90   141   142    1
    91   166   165    1
    92   166   174   am
    93    38    37    1
    94   164   165    1
    95    40    41    1
    96    40    37    1
    97    60    66   am
    98   175   174    1
    99   175   178    1
   100    43    41   ar
   101    43    45   ar
   102   165   168    1
   103   180   178    1
   104    41    42   ar
   105    37    36    1
   106    90    89    2
   107    45    46   ar
   108   119   121    1
   109   119   120    1
   110    29    28    2
   111   178   179    1
   112   104   105    1
   113    89    88    1
   114    66    67    1
   115   171   169   ar
   116   171   173   ar
   117    69    68    2
   118    42    44   ar
   119   168   169    1
   120    91    88    1
   121    91    92    1
   122    46    44   ar
   123    68    67    1
   124    28    27    1
   125   108   105    1
   126   108   109    1
   127    67    70    1
   128   169   170   ar
   129    93    92    1
   130    93    94    1
   131    30    27    1
   132    30    31    1
   133    88    87    1
   134   105   106    1
   135   173   172   ar
   136    73    72    2
   137    95    94    1
   138    27    26    1
   139    32    31   ar
   140    32    34   ar
   141    31    33   ar
   142    87    77   am
   143   106   107    2
   144   109   110   ar
   145   109   111   ar
   146   170   172   ar
   147    34    35   ar
   148    33    35   ar
   149    70    71    1
   150    75    76    1
   151    72    71    1
   152    72    74   am
   153   110   112   ar
   154    77    78    2
   155    77    76    1
   156   111   113   ar
   157    22    21    2
   158    76    79    1
   159    23    20    1
   160    23    24    1
   161   112   114   ar
   162    20    21    1
   163    20    19    1
   164   113   114   ar
   165     7     6    2
   166    24    25    1
   167    79    80    1
   168     8     6   am
   169    81    80   ar
   170    81    83   ar
   171    80    82   ar
   172    83    85   ar
   173     6     5    1
   174    19    25    1
   175    19    11   am
   176    12    11    2
   177    82    84   ar
   178    85    84   ar
   179    85    86    1
   180    11    10    1
   181     5     2    1
   182     9    10    1
   183     9     3   am
   184     2     3    1
   185     2     1    1
   186    10    13    1
   187     3     4    2
   188    15    17   ar
   189    15    14   ar
   190    13    14    1
   191    17    18   ar
   192    14    16   ar
   193    18    16   ar
