@<TRIPOS>MOLECULE
tmp/6ma6A01.pdb
 117 110 0 0 0
SMALL
GASTEIGER

@<TRIPOS>ATOM
      1  N        -16.3780   -9.6220   -7.4360 N.3    80  ARG80      -0.1245
      2  CA       -17.3950   -9.8010   -8.4580 C.3    80  ARG80       0.1563
      3  C        -18.5560   -8.8610   -8.1550 C.2    80  ARG80       0.2260
      4  O        -18.5730   -8.1680   -7.1300 O.2    80  ARG80      -0.2867
      5  CB       -17.8560  -11.2550   -8.5090 C.3    80  ARG80       0.0307
      6  CG       -16.7440  -12.2690   -8.7240 C.3    80  ARG80       0.0489
      7  CD       -17.2710  -13.6980   -8.9120 C.3    80  ARG80       0.2205
      8  NE       -16.1750  -14.5670   -9.3260 N.pl3  80  ARG80      -0.0865
      9  CZ       -15.4830  -15.3070   -8.4710 C.cat  80  ARG80       0.5346
     10  NH1      -15.8270  -15.2860   -7.1870 N.pl3  80  ARG80       0.1354
     11  NH2      -14.4640  -16.0570   -8.8850 N.pl3  80  ARG80       0.1354
     12  N        -16.5130  -17.1750   -2.7890 N.3    94  SER94      -0.1217
     13  CA       -16.9320  -16.6210   -4.0830 C.3    94  SER94       0.1889
     14  C        -17.6660  -15.2910   -3.9360 C.2    94  SER94       0.2288
     15  O        -17.6410  -14.4800   -4.8670 O.2    94  SER94      -0.2866
     16  CB       -17.8500  -17.6020   -4.8220 C.3    94  SER94       0.2089
     17  OG       -18.9490  -17.9420   -3.9890 O.3    94  SER94      -0.2183
     18  N        -28.2630  -23.9480   -9.1810 N.3   187  ARG187     -0.1231
     19  CA       -27.6020  -22.7400   -9.6500 C.3   187  ARG187      0.1694
     20  C        -28.6280  -21.6330   -9.8650 C.2   187  ARG187      0.2592
     21  O        -29.7890  -21.8990  -10.1750 O.2   187  ARG187     -0.2718
     22  CB       -26.8420  -23.0130  -10.9490 C.3   187  ARG187      0.0321
     23  CG       -25.5780  -23.8370  -10.7660 C.3   187  ARG187      0.0489
     24  CD       -24.4880  -23.0300  -10.0790 C.3   187  ARG187      0.2205
     25  NE       -24.2030  -21.7840  -10.7850 N.pl3 187  ARG187     -0.0865
     26  CZ       -23.7160  -21.7190  -12.0190 C.cat 187  ARG187      0.5346
     27  NH1      -23.4560  -22.8330  -12.6910 N.pl3 187  ARG187      0.1354
     28  NH2      -23.4870  -20.5410  -12.5830 N.pl3 187  ARG187      0.1354
     29  N        -28.1890  -20.3920   -9.6950 N.am  188  PHE188     -0.1976
     30  CA       -29.0580  -19.2340   -9.8610 C.3   188  PHE188      0.1639
     31  C        -29.2370  -18.8460  -11.3280 C.2   188  PHE188      0.2290
     32  O        -28.2540  -18.6890  -12.0680 O.2   188  PHE188     -0.2864
     33  CB       -28.4680  -18.0410   -9.1170 C.3   188  PHE188      0.0560
     34  CG       -28.3280  -18.2590   -7.6560 C.ar  188  PHE188     -0.0200
     35  CD1      -27.1580  -17.8920   -7.0050 C.ar  188  PHE188     -0.0042
     36  CD2      -29.3540  -18.8220   -6.9320 C.ar  188  PHE188     -0.0042
     37  CE1      -27.0150  -18.0790   -5.6360 C.ar  188  PHE188     -0.0003
     38  CE2      -29.2400  -19.0180   -5.5900 C.ar  188  PHE188     -0.0003
     39  CZ       -28.0640  -18.6400   -4.9180 C.ar  188  PHE188     -0.0000
     40  N        -20.8910  -23.3910   -0.1300 N.3   270  ILE270     -0.1245
     41  CA       -20.5820  -22.8690   -1.4660 C.3   270  ILE270      0.1561
     42  C        -19.9220  -23.9460   -2.3180 C.2   270  ILE270      0.2260
     43  O        -20.1570  -24.0050   -3.5320 O.2   270  ILE270     -0.2867
     44  CB       -19.7270  -21.5760   -1.3600 C.3   270  ILE270      0.0252
     45  CG1      -19.9270  -20.6410   -2.5650 C.3   270  ILE270      0.0019
     46  CG2      -18.2300  -21.8530   -1.1440 C.3   270  ILE270      0.0019
     47  CD1      -21.3540  -20.0500   -2.7090 C.3   270  ILE270      0.0001
     48  N        -22.6610  -25.9970   -3.5770 N.3   273  PHE273     -0.1227
     49  CA       -23.3760  -25.1840   -4.5530 C.3   273  PHE273      0.1736
     50  C        -22.6280  -25.1230   -5.8760 C.2   273  PHE273      0.2595
     51  O        -23.2300  -25.2940   -6.9470 O.2   273  PHE273     -0.2718
     52  CB       -23.5770  -23.7800   -3.9720 C.3   273  PHE273      0.0547
     53  CG       -24.2670  -22.8120   -4.9040 C.ar  273  PHE273     -0.0202
     54  CD1      -25.6490  -22.8460   -5.0660 C.ar  273  PHE273     -0.0042
     55  CD2      -23.5410  -21.8240   -5.5600 C.ar  273  PHE273     -0.0042
     56  CE1      -26.2810  -21.9310   -5.9100 C.ar  273  PHE273     -0.0003
     57  CE2      -24.1630  -20.9120   -6.3890 C.ar  273  PHE273     -0.0003
     58  CZ       -25.5290  -20.9620   -6.5730 C.ar  273  PHE273     -0.0000
     59  N        -21.3080  -24.8790   -5.8220 N.am  274  ALA274     -0.1980
     60  CA       -20.5020  -24.8460   -7.0460 C.3   274  ALA274      0.1597
     61  C        -20.4610  -26.2080   -7.7380 C.2   274  ALA274      0.2287
     62  O        -20.6000  -26.2920   -8.9620 O.2   274  ALA274     -0.2864
     63  CB       -19.0810  -24.3740   -6.7250 C.3   274  ALA274      0.0319
     64  N        -23.2870  -28.0580  -11.5770 N.3   278  THR278     -0.1218
     65  CA       -22.3150  -27.8440  -12.6480 C.3   278  THR278      0.1862
     66  C        -21.6780  -29.1530  -13.0790 C.2   278  THR278      0.2287
     67  O        -21.6100  -29.4540  -14.2830 O.2   278  THR278     -0.2866
     68  CB       -21.2290  -26.8530  -12.2290 C.3   278  THR278      0.1770
     69  OG1      -20.4880  -27.3860  -11.1260 O.3   278  THR278     -0.2211
     70  CG2      -21.8650  -25.5260  -11.8760 C.3   278  THR278      0.0375
     71  N        -19.8460  -23.2220  -18.5840 N.3   338  ILE338     -0.1231
     72  CA       -20.9800  -23.0380  -17.6690 C.3   338  ILE338      0.1692
     73  C        -21.0820  -21.6190  -17.1030 C.2   338  ILE338      0.2591
     74  O        -22.1380  -21.2190  -16.6020 O.2   338  ILE338     -0.2718
     75  CB       -20.9150  -24.0460  -16.5060 C.3   338  ILE338      0.0266
     76  CG1      -19.5310  -24.0230  -15.8700 C.3   338  ILE338      0.0019
     77  CG2      -21.3100  -25.4460  -16.9470 C.3   338  ILE338      0.0020
     78  CD1      -19.3460  -22.9380  -14.7520 C.3   338  ILE338      0.0001
     79  N        -19.9950  -20.8440  -17.1600 N.am  339  ALA339     -0.1980
     80  CA       -20.0280  -19.5170  -16.5460 C.3   339  ALA339      0.1597
     81  C        -20.6430  -18.4430  -17.4480 C.2   339  ALA339      0.2287
     82  O        -21.2970  -17.5280  -16.9420 O.2   339  ALA339     -0.2864
     83  CB       -18.6190  -19.0990  -16.1320 C.3   339  ALA339      0.0319
     84  N        -19.9860  -15.5780  -18.5640 N.3   341  ARG341     -0.1231
     85  CA       -19.2820  -14.3190  -18.3730 C.3   341  ARG341      0.1694
     86  C        -18.3820  -14.4210  -17.1560 C.2   341  ARG341      0.2592
     87  O        -18.6910  -15.1240  -16.1910 O.2   341  ARG341     -0.2718
     88  CB       -20.2870  -13.1480  -18.1470 C.3   341  ARG341      0.0321
     89  CG       -21.2710  -12.9260  -19.3130 C.3   341  ARG341      0.0489
     90  CD       -22.3730  -11.9380  -18.9130 C.3   341  ARG341      0.2205
     91  NE       -23.0020  -11.2950  -20.0640 N.pl3 341  ARG341     -0.0865
     92  CZ       -23.9100  -10.3200  -19.9660 C.cat 341  ARG341      0.5346
     93  NH1      -24.2880   -9.8960  -18.7670 N.pl3 341  ARG341      0.1354
     94  NH2      -24.4550   -9.7770  -21.0490 N.pl3 341  ARG341      0.1354
     95  N        -17.2790  -13.7010  -17.2090 N.am  342  LEU342     -0.1966
     96  CA       -16.4770  -13.3910  -16.0370 C.3   342  LEU342      0.1728
     97  C        -16.5880  -11.8900  -15.7840 C.2   342  LEU342      0.2616
     98  O        -16.6800  -11.0910  -16.7240 O.2   342  LEU342     -0.2715
     99  CB       -15.0150  -13.8210  -16.2370 C.3   342  LEU342      0.0311
    100  CG       -14.8360  -15.2900  -16.6720 C.3   342  LEU342      0.0022
    101  CD1      -13.4470  -15.5730  -17.1410 C.3   342  LEU342      0.0001
    102  CD2      -15.2670  -16.3160  -15.5610 C.3   342  LEU342      0.0001
    103  N        -16.6210  -11.5030  -14.5170 N.am  343  GLU343     -0.1977
    104  CA       -16.8550  -10.1180  -14.1680 C.3   343  GLU343      0.1602
    105  C        -16.0070   -9.7610  -12.9670 C.2   343  GLU343      0.2287
    106  O        -15.7060  -10.6180  -12.1350 O.2   343  GLU343     -0.2864
    107  CB       -18.3310   -9.8500  -13.8340 C.3   343  GLU343      0.0415
    108  CG       -19.3330  -10.2880  -14.8870 C.3   343  GLU343      0.1163
    109  CD       -20.7650   -9.9930  -14.4550 C.2   343  GLU343      0.3649
    110  OE1      -20.9880   -9.6990  -13.2580 O.co2 343  GLU343     -0.2457
    111  OE2      -21.6660  -10.0650  -15.3150 O.co2 343  GLU343     -0.2457
    112  N        -11.3500  -20.2350  -10.5600 N.3   411  CYS411     -0.1235
    113  CA       -11.9930  -21.3510   -9.8700 C.3   411  CYS411      0.1677
    114  C        -11.0320  -22.1040   -8.9660 C.2   411  CYS411      0.2270
    115  O        -10.0690  -22.7020   -9.4370 O.2   411  CYS411     -0.2867
    116  CB       -12.5540  -22.3480  -10.8750 C.3   411  CYS411      0.0956
    117  SG       -13.4180  -23.8010  -10.0670 S.3   411  CYS411     -0.0801
@<TRIPOS>BOND
     1    94    92    1
     2    91    92    2
     3    91    90    1
     4    92    93    1
     5    89    90    1
     6    89    88    1
     7    71    72    1
     8    84    85    1
     9    85    88    1
    10    85    86    1
    11    72    73    1
    12    72    75    1
    13    81    82    2
    14    81    80    1
    15    95    86   am
    16    95    96    1
    17    79    73   am
    18    79    80    1
    19    86    87    2
    20   101   100    1
    21    73    74    2
    22    77    75    1
    23    98    97    2
    24   100    99    1
    25   100   102    1
    26    80    83    1
    27    75    76    1
    28    99    96    1
    29    96    97    1
    30    76    78    1
    31    97   103   am
    32   111   109   ar
    33   108   109    1
    34   108   107    1
    35   103   104    1
    36   109   110   ar
    37    67    66    2
    38   104   107    1
    39   104   105    1
    40    66    65    1
    41   105   106    2
    42    27    26    1
    43    65    68    1
    44    65    64    1
    45    28    26    1
    46    68    70    1
    47    68    69    1
    48    32    31    2
    49    26    25    2
    50    31    30    1
    51    22    23    1
    52    22    19    1
    53   116   117    1
    54   116   113    1
    55    25    24    1
    56    23    24    1
    57   112   113    1
    58    21    20    2
    59   113   114    1
    60    20    29   am
    61    20    19    1
    62    30    29    1
    63    30    33    1
    64    19    18    1
    65   115   114    2
    66     8     7    1
    67     8     9    2
    68    33    34    1
    69    62    61    2
    70     7     6    1
    71    11     9    1
    72     6     5    1
    73     5     2    1
    74     9    10    1
    75     2     3    1
    76     2     1    1
    77     3     4    2
    78    61    60    1
    79    34    35   ar
    80    34    36   ar
    81    60    63    1
    82    60    59    1
    83    35    37   ar
    84    51    50    2
    85    36    38   ar
    86    58    57   ar
    87    58    56   ar
    88    57    55   ar
    89    56    54   ar
    90    50    59   am
    91    50    49    1
    92    37    39   ar
    93    38    39   ar
    94    55    53   ar
    95    54    53   ar
    96    53    52    1
    97    15    14    2
    98    16    13    1
    99    16    17    1
   100    49    52    1
   101    49    48    1
   102    13    14    1
   103    13    12    1
   104    43    42    2
   105    47    45    1
   106    45    44    1
   107    42    41    1
   108    41    44    1
   109    41    40    1
   110    44    46    1
