@<TRIPOS>MOLECULE
tmp/6ma7A01.pdb
 119 113 0 0 0
SMALL
GASTEIGER

@<TRIPOS>ATOM
      1  N        -16.2640   -9.2220   -7.1160 N.3    80  ARG80      -0.1245
      2  CA       -17.3270   -9.3080   -8.1030 C.3    80  ARG80       0.1563
      3  C        -18.4820   -8.3830   -7.7190 C.2    80  ARG80       0.2260
      4  O        -18.4630   -7.7000   -6.6920 O.2    80  ARG80      -0.2867
      5  CB       -17.8310  -10.7490   -8.2460 C.3    80  ARG80       0.0307
      6  CG       -16.6920  -11.7290   -8.4910 C.3    80  ARG80       0.0489
      7  CD       -17.1690  -12.9840   -9.1820 C.3    80  ARG80       0.2205
      8  NE       -16.0930  -13.9530   -9.4330 N.pl3  80  ARG80      -0.0865
      9  CZ       -15.5080  -14.6760   -8.4810 C.cat  80  ARG80       0.5346
     10  NH1      -15.8910  -14.5070   -7.2160 N.pl3  80  ARG80       0.1354
     11  NH2      -14.5400  -15.5520   -8.7890 N.pl3  80  ARG80       0.1354
     12  N        -16.6470  -17.2630   -2.3380 N.3    94  SER94      -0.1217
     13  CA       -17.0750  -16.7860   -3.6430 C.3    94  SER94       0.1889
     14  C        -17.8990  -15.5000   -3.5470 C.2    94  SER94       0.2288
     15  O        -18.1570  -14.8660   -4.5760 O.2    94  SER94      -0.2866
     16  CB       -17.8830  -17.8710   -4.3750 C.3    94  SER94       0.2089
     17  OG       -19.0350  -18.2260   -3.6330 O.3    94  SER94      -0.2183
     18  N        -27.9400  -24.2880   -9.4950 N.3   187  ARG187     -0.1231
     19  CA       -27.4840  -23.0300  -10.0590 C.3   187  ARG187      0.1694
     20  C        -28.6070  -22.0050  -10.0110 C.2   187  ARG187      0.2592
     21  O        -29.7770  -22.3540  -10.1730 O.2   187  ARG187     -0.2718
     22  CB       -27.0630  -23.2230  -11.5020 C.3   187  ARG187      0.0321
     23  CG       -25.7830  -23.9480  -11.7110 C.3   187  ARG187      0.0489
     24  CD       -25.4710  -23.9500  -13.1930 C.3   187  ARG187      0.2205
     25  NE       -26.3020  -24.9040  -13.9300 N.pl3 187  ARG187     -0.0865
     26  CZ       -26.2890  -25.0400  -15.2540 C.cat 187  ARG187      0.5346
     27  NH1      -25.4970  -24.2790  -15.9960 N.pl3 187  ARG187      0.1354
     28  NH2      -27.0840  -25.9180  -15.8370 N.pl3 187  ARG187      0.1354
     29  N        -28.2410  -20.7400   -9.7970 N.am  188  PHE188     -0.1976
     30  CA       -29.2070  -19.6550   -9.8630 C.3   188  PHE188      0.1639
     31  C        -29.5330  -19.2610  -11.3070 C.2   188  PHE188      0.2290
     32  O        -28.6440  -19.1400  -12.1600 O.2   188  PHE188     -0.2864
     33  CB       -28.6730  -18.4240   -9.1420 C.3   188  PHE188      0.0560
     34  CG       -28.4870  -18.6050   -7.6830 C.ar  188  PHE188     -0.0200
     35  CD1      -27.2170  -18.5220   -7.1360 C.ar  188  PHE188     -0.0042
     36  CD2      -29.5670  -18.8520   -6.8540 C.ar  188  PHE188     -0.0042
     37  CE1      -27.0170  -18.6640   -5.7850 C.ar  188  PHE188     -0.0003
     38  CE2      -29.3710  -19.0000   -5.4870 C.ar  188  PHE188     -0.0003
     39  CZ       -28.0830  -18.9130   -4.9640 C.ar  188  PHE188     -0.0000
     40  N        -30.0660  -16.3280  -13.1410 N.3   190  PHE190     -0.1241
     41  CA       -29.8910  -14.8980  -12.9650 C.3   190  PHE190      0.1605
     42  C        -30.8010  -14.0810  -13.8670 C.2   190  PHE190      0.2264
     43  O        -30.8300  -12.8590  -13.7320 O.2   190  PHE190     -0.2867
     44  CB       -28.4270  -14.5320  -13.1980 C.3   190  PHE190      0.0534
     45  CG       -27.4990  -15.0870  -12.1660 C.ar  190  PHE190     -0.0203
     46  CD1      -27.5850  -14.6590  -10.8420 C.ar  190  PHE190     -0.0042
     47  CD2      -26.5210  -16.0130  -12.5080 C.ar  190  PHE190     -0.0042
     48  CE1      -26.7270  -15.1700   -9.8770 C.ar  190  PHE190     -0.0003
     49  CE2      -25.6620  -16.5160  -11.5540 C.ar  190  PHE190     -0.0003
     50  CZ       -25.7640  -16.0910  -10.2350 C.ar  190  PHE190     -0.0000
     51  N        -22.8280  -26.0470   -3.4920 N.3   270  PHE270     -0.1227
     52  CA       -23.5510  -25.2550   -4.4690 C.3   270  PHE270      0.1736
     53  C        -22.7540  -25.0960   -5.7390 C.2   270  PHE270      0.2595
     54  O        -23.3260  -25.1190   -6.8340 O.2   270  PHE270     -0.2718
     55  CB       -23.8900  -23.8780   -3.8660 C.3   270  PHE270      0.0547
     56  CG       -24.1210  -22.7940   -4.8940 C.ar  270  PHE270     -0.0202
     57  CD1      -25.3240  -22.7030   -5.5760 C.ar  270  PHE270     -0.0042
     58  CD2      -23.1360  -21.8660   -5.1730 C.ar  270  PHE270     -0.0042
     59  CE1      -25.5360  -21.6920   -6.5140 C.ar  270  PHE270     -0.0003
     60  CE2      -23.3430  -20.8380   -6.1010 C.ar  270  PHE270     -0.0003
     61  CZ       -24.5430  -20.7660   -6.7770 C.ar  270  PHE270     -0.0000
     62  N        -21.4280  -24.9450   -5.6090 N.am  271  ALA271     -0.1980
     63  CA       -20.5830  -24.7590   -6.7860 C.3   271  ALA271      0.1597
     64  C        -20.4110  -26.0580   -7.5690 C.2   271  ALA271      0.2287
     65  O        -20.3430  -26.0400   -8.8020 O.2   271  ALA271     -0.2864
     66  CB       -19.2120  -24.2060   -6.3850 C.3   271  ALA271      0.0319
     67  N        -23.2920  -27.9790  -11.5650 N.3   275  THR275     -0.1218
     68  CA       -22.3000  -27.6820  -12.5890 C.3   275  THR275      0.1862
     69  C        -21.6920  -28.9660  -13.1560 C.2   275  THR275      0.2287
     70  O        -21.6510  -29.1620  -14.3740 O.2   275  THR275     -0.2866
     71  CB       -21.2140  -26.7780  -11.9930 C.3   275  THR275      0.1770
     72  OG1      -20.6820  -27.4130  -10.8370 O.3   275  THR275     -0.2211
     73  CG2      -21.8550  -25.4150  -11.5720 C.3   275  THR275      0.0375
     74  N        -20.0510  -22.9430  -18.7970 N.3   335  ILE335     -0.1231
     75  CA       -21.3530  -22.8100  -18.1640 C.3   335  ILE335      0.1692
     76  C        -21.4550  -21.6160  -17.2230 C.2   335  ILE335      0.2592
     77  O        -22.5770  -21.2280  -16.8840 O.2   335  ILE335     -0.2718
     78  CB       -21.7460  -24.0920  -17.4150 C.3   335  ILE335      0.0266
     79  CG1      -20.5960  -24.6210  -16.5630 C.3   335  ILE335      0.0019
     80  CG2      -22.3340  -25.1540  -18.4070 C.3   335  ILE335      0.0020
     81  CD1      -21.0660  -25.5920  -15.4440 C.3   335  ILE335      0.0001
     82  N        -20.3380  -21.0070  -16.8000 N.am  336  ALA336     -0.1966
     83  CA       -20.4600  -19.7030  -16.1350 C.3   336  ALA336      0.1728
     84  C        -20.7510  -18.5670  -17.1050 C.2   336  ALA336      0.2616
     85  O        -21.2110  -17.5070  -16.6600 O.2   336  ALA336     -0.2715
     86  CB       -19.1920  -19.3470  -15.3530 C.3   336  ALA336      0.0334
     87  N        -20.4690  -18.7860  -18.3870 N.am  337  MET337     -0.1963
     88  CA       -20.7130  -17.8070  -19.4490 C.3   337  MET337      0.1736
     89  C        -19.8490  -16.5420  -19.3890 C.2   337  MET337      0.2616
     90  O        -19.1570  -16.2150  -20.3540 O.2   337  MET337     -0.2715
     91  CB       -22.2070  -17.4720  -19.5180 C.3   337  MET337      0.0427
     92  CG       -23.1090  -18.6850  -19.6760 C.3   337  MET337      0.0599
     93  SD       -24.8570  -18.2490  -19.7370 S.3   337  MET337     -0.1393
     94  CE       -25.2690  -18.2550  -17.9950 C.3   337  MET337      0.0692
     95  N        -19.9010  -15.8290  -18.2700 N.am  338  ARG338     -0.1977
     96  CA       -19.1650  -14.5850  -18.1160 C.3   338  ARG338      0.1597
     97  C        -18.2860  -14.5600  -16.8720 C.2   338  ARG338      0.2287
     98  O        -18.6270  -15.1450  -15.8480 O.2   338  ARG338     -0.2864
     99  CB       -20.2060  -13.4470  -17.9670 C.3   338  ARG338      0.0334
    100  CG       -21.0930  -13.1620  -19.1540 C.3   338  ARG338      0.0492
    101  CD       -22.1880  -12.1970  -18.7050 C.3   338  ARG338      0.2205
    102  NE       -22.8150  -11.4430  -19.7880 N.pl3 338  ARG338     -0.0865
    103  CZ       -23.6740  -10.4580  -19.5810 C.cat 338  ARG338      0.5346
    104  NH1      -24.0030  -10.1210  -18.3400 N.pl3 338  ARG338      0.1354
    105  NH2      -24.2050   -9.8050  -20.6020 N.pl3 338  ARG338      0.1354
    106  N        -11.5450  -20.2450  -10.5360 N.3   408  CYS408     -0.1235
    107  CA       -12.2700  -21.3010   -9.8280 C.3   408  CYS408      0.1677
    108  C        -11.3420  -22.0890   -8.9040 C.2   408  CYS408      0.2270
    109  O        -10.4420  -22.7800   -9.3730 O.2   408  CYS408     -0.2867
    110  CB       -12.9260  -22.2440  -10.8420 C.3   408  CYS408      0.0956
    111  SG       -13.7450  -23.6100  -10.0410 S.3   408  CYS408     -0.0801
    112  N        -29.2140  -19.4790  -17.3840 N.3   448  LEU448     -0.1245
    113  CA       -28.4460  -20.6860  -17.1430 C.3   448  LEU448      0.1561
    114  C        -27.9880  -21.2220  -18.4850 C.2   448  LEU448      0.2260
    115  O        -28.7580  -21.2180  -19.4500 O.2   448  LEU448     -0.2867
    116  CB       -29.2940  -21.7700  -16.4670 C.3   448  LEU448      0.0270
    117  CG       -29.5760  -21.6870  -14.9810 C.3   448  LEU448      0.0019
    118  CD1      -30.1580  -22.9980  -14.5350 C.3   448  LEU448      0.0001
    119  CD2      -28.2690  -21.4250  -14.2980 C.3   448  LEU448      0.0001
@<TRIPOS>BOND
     1   105   103    1
     2    90    89    2
     3   102   103    2
     4   102   101    1
     5    93    92    1
     6    93    94    1
     7    92    91    1
     8   103   104    1
     9    91    88    1
    10   115   114    2
    11    88    89    1
    12    88    87    1
    13    89    95   am
    14   100   101    1
    15   100    99    1
    16    74    75    1
    17   114   113    1
    18    80    78    1
    19    87    84   am
    20    95    96    1
    21    75    78    1
    22    75    76    1
    23    96    99    1
    24    96    97    1
    25    78    79    1
    26   112   113    1
    27    76    77    2
    28    76    82   am
    29   113   116    1
    30    84    85    2
    31    84    83    1
    32    97    98    2
    33    82    83    1
    34    79    81    1
    35   116   117    1
    36    83    86    1
    37    27    26    1
    38    28    26    1
    39    26    25    2
    40   117   118    1
    41   117   119    1
    42    70    69    2
    43    25    24    1
    44    42    43    2
    45    42    41    1
    46    44    41    1
    47    44    45    1
    48    24    23    1
    49    69    68    1
    50    40    41    1
    51    68    71    1
    52    68    67    1
    53    47    45   ar
    54    47    49   ar
    55    45    46   ar
    56    32    31    2
    57    71    73    1
    58    71    72    1
    59    23    22    1
    60    49    50   ar
    61    22    19    1
    62    31    30    1
    63   110   111    1
    64   110   107    1
    65    46    48   ar
    66   106   107    1
    67    50    48   ar
    68    21    20    2
    69    19    20    1
    70    19    18    1
    71    20    29   am
    72    30    29    1
    73    30    33    1
    74   107   108    1
    75     8     7    1
    76     8     9    2
    77   109   108    2
    78     7     6    1
    79    33    34    1
    80    65    64    2
    81    11     9    1
    82     6     5    1
    83     9    10    1
    84     5     2    1
    85     2     3    1
    86     2     1    1
    87     3     4    2
    88    34    35   ar
    89    34    36   ar
    90    64    63    1
    91    35    37   ar
    92    36    38   ar
    93    54    53    2
    94    63    66    1
    95    63    62    1
    96    61    59   ar
    97    61    60   ar
    98    59    57   ar
    99    60    58   ar
   100    37    39   ar
   101    53    62   am
   102    53    52    1
   103    57    56   ar
   104    38    39   ar
   105    58    56   ar
   106    56    55    1
   107    15    14    2
   108    52    55    1
   109    52    51    1
   110    16    13    1
   111    16    17    1
   112    13    14    1
   113    13    12    1
