@<TRIPOS>MOLECULE
tmp/6ma8A01.pdb
 102 95 0 0 0
SMALL
GASTEIGER

@<TRIPOS>ATOM
      1  N        -16.4490   -9.5220   -8.3370 N.3    80  ARG80      -0.1245
      2  CA       -17.5230   -9.7180   -9.2890 C.3    80  ARG80       0.1563
      3  C        -18.6750   -8.7940   -8.9380 C.2    80  ARG80       0.2260
      4  O        -18.6720   -8.0870   -7.9220 O.2    80  ARG80      -0.2867
      5  CB       -17.9840  -11.1830   -9.3100 C.3    80  ARG80       0.0307
      6  CG       -16.8940  -12.1490   -9.6860 C.3    80  ARG80       0.0489
      7  CD       -17.4060  -13.5430  -10.0520 C.3    80  ARG80       0.2205
      8  NE       -16.2590  -14.3920  -10.3780 N.pl3  80  ARG80      -0.0865
      9  CZ       -15.5860  -15.0910   -9.4740 C.cat  80  ARG80       0.5346
     10  NH1      -15.9760  -15.0630   -8.2060 N.pl3  80  ARG80       0.1354
     11  NH2      -14.5340  -15.8170   -9.8290 N.pl3  80  ARG80       0.1354
     12  N        -25.0940   -9.3320   -6.7450 N.3    83  PHE83      -0.1241
     13  CA       -26.1990   -9.8330   -7.5670 C.3    83  PHE83       0.1605
     14  C        -27.5560   -9.9930   -6.8920 C.2    83  PHE83       0.2264
     15  O        -28.5440  -10.2160   -7.6050 O.2    83  PHE83      -0.2867
     16  CB       -25.8310  -11.1780   -8.2100 C.3    83  PHE83       0.0534
     17  CG       -25.5310  -12.2780   -7.2320 C.ar   83  PHE83      -0.0203
     18  CD1      -26.5320  -13.1290   -6.7970 C.ar   83  PHE83      -0.0042
     19  CD2      -24.2320  -12.5010   -6.7990 C.ar   83  PHE83      -0.0042
     20  CE1      -26.2480  -14.1650   -5.9250 C.ar   83  PHE83      -0.0003
     21  CE2      -23.9430  -13.5350   -5.9280 C.ar   83  PHE83      -0.0003
     22  CZ       -24.9570  -14.3640   -5.4890 C.ar   83  PHE83      -0.0000
     23  N        -16.7250  -17.0660   -3.4240 N.3    94  SER94      -0.1202
     24  CA       -17.0430  -16.4760   -4.7200 C.3    94  SER94       0.2020
     25  C        -17.8150  -15.1720   -4.5980 C.2    94  SER94       0.2618
     26  O        -17.8960  -14.4320   -5.5840 O.2    94  SER94      -0.2717
     27  CB       -17.8300  -17.4650   -5.5730 C.3    94  SER94       0.2103
     28  OG       -19.0180  -17.7980   -4.9150 O.3    94  SER94      -0.2182
     29  N        -18.3430  -14.8710   -3.4140 N.am   95  ILE95      -0.1979
     30  CA       -19.1200  -13.6640   -3.1810 C.3    95  ILE95       0.1595
     31  C        -18.3530  -12.6250   -2.3640 C.2    95  ILE95       0.2287
     32  O        -18.6500  -11.4250   -2.4830 O.2    95  ILE95      -0.2864
     33  CB       -20.4620  -14.0210   -2.5030 C.3    95  ILE95       0.0276
     34  CG1      -21.2550  -14.9750   -3.4110 C.3    95  ILE95       0.0022
     35  CG2      -21.2990  -12.7880   -2.2210 C.3    95  ILE95       0.0022
     36  CD1      -22.2640  -15.8550   -2.6730 C.3    95  ILE95       0.0001
     37  N        -27.9830  -23.5650  -10.3320 N.3   187  ARG187     -0.1245
     38  CA       -27.4930  -22.2780  -10.7930 C.3   187  ARG187      0.1563
     39  C        -28.6440  -21.2730  -10.8660 C.2   187  ARG187      0.2260
     40  O        -29.7980  -21.6410  -11.0750 O.2   187  ARG187     -0.2867
     41  CB       -26.8210  -22.4270  -12.1580 C.3   187  ARG187      0.0307
     42  CG       -25.7130  -23.4730  -12.1850 C.3   187  ARG187      0.0489
     43  CD       -24.6580  -23.1910  -11.1420 C.3   187  ARG187      0.2205
     44  NE       -23.8140  -22.0530  -11.5050 N.pl3 187  ARG187     -0.0865
     45  CZ       -22.8810  -21.5310  -10.7180 C.cat 187  ARG187      0.5346
     46  NH1      -22.6660  -22.0320   -9.5120 N.pl3 187  ARG187      0.1354
     47  NH2      -22.1650  -20.5020  -11.1360 N.pl3 187  ARG187      0.1354
     48  N        -21.0970  -23.2540   -0.9960 N.3   267  ILE267     -0.1245
     49  CA       -20.7770  -22.6720   -2.3000 C.3   267  ILE267      0.1561
     50  C        -20.0650  -23.6890   -3.1830 C.2   267  ILE267      0.2260
     51  O        -20.2050  -23.6490   -4.4100 O.2   267  ILE267     -0.2867
     52  CB       -19.9490  -21.3710   -2.1620 C.3   267  ILE267      0.0252
     53  CG1      -20.1380  -20.4620   -3.3910 C.3   267  ILE267      0.0019
     54  CG2      -18.4560  -21.6690   -1.9900 C.3   267  ILE267      0.0019
     55  CD1      -21.5380  -19.8590   -3.5040 C.3   267  ILE267      0.0001
     56  N        -22.8360  -25.5760   -4.8120 N.3   270  PHE270     -0.1227
     57  CA       -23.4350  -24.7020   -5.8050 C.3   270  PHE270      0.1736
     58  C        -22.5360  -24.5680   -7.0220 C.2   270  PHE270      0.2595
     59  O        -23.0060  -24.6290   -8.1640 O.2   270  PHE270     -0.2718
     60  CB       -23.7150  -23.3460   -5.1280 C.3   270  PHE270      0.0547
     61  CG       -24.2270  -22.2780   -6.0400 C.ar  270  PHE270     -0.0202
     62  CD1      -25.5380  -22.2920   -6.4980 C.ar  270  PHE270     -0.0042
     63  CD2      -23.4100  -21.2030   -6.3810 C.ar  270  PHE270     -0.0042
     64  CE1      -26.0070  -21.2740   -7.3270 C.ar  270  PHE270     -0.0003
     65  CE2      -23.8730  -20.1790   -7.2050 C.ar  270  PHE270     -0.0003
     66  CZ       -25.1800  -20.2210   -7.6780 C.ar  270  PHE270     -0.0000
     67  N        -21.2260  -24.4400   -6.8000 N.am  271  ALA271     -0.1980
     68  CA       -20.3250  -24.1690   -7.9140 C.3   271  ALA271      0.1597
     69  C        -20.0760  -25.3990   -8.7600 C.2   271  ALA271      0.2287
     70  O        -19.8130  -25.2710   -9.9600 O.2   271  ALA271     -0.2864
     71  CB       -18.9830  -23.6510   -7.4060 C.3   271  ALA271      0.0319
     72  N        -22.8900  -27.4180  -12.7830 N.3   275  THR275     -0.1218
     73  CA       -21.8510  -27.1310  -13.7640 C.3   275  THR275      0.1862
     74  C        -21.2810  -28.4270  -14.3360 C.2   275  THR275      0.2287
     75  O        -21.2210  -28.6210  -15.5570 O.2   275  THR275     -0.2866
     76  CB       -20.7480  -26.3150  -13.0930 C.3   275  THR275      0.1770
     77  OG1      -20.3990  -26.9550  -11.8550 O.3   275  THR275     -0.2211
     78  CG2      -21.2450  -24.8620  -12.8080 C.3   275  THR275      0.0375
     79  N        -20.2790  -20.5670  -18.0420 N.3   336  ALA336     -0.1245
     80  CA       -20.3430  -19.2640  -17.3610 C.3   336  ALA336      0.1562
     81  C        -20.8060  -18.1410  -18.2920 C.2   336  ALA336      0.2260
     82  O        -21.3420  -17.1330  -17.8130 O.2   336  ALA336     -0.2867
     83  CB       -18.9820  -18.9000  -16.7700 C.3   336  ALA336      0.0290
     84  N        -20.1070  -15.4500  -19.4470 N.3   338  ARG338     -0.1231
     85  CA       -19.3730  -14.1970  -19.2710 C.3   338  ARG338      0.1694
     86  C        -18.4810  -14.2600  -18.0390 C.2   338  ARG338      0.2591
     87  O        -18.8060  -14.9330  -17.0640 O.2   338  ARG338     -0.2718
     88  CB       -20.3460  -13.0310  -19.0750 C.3   338  ARG338      0.0321
     89  CG       -21.3680  -12.8300  -20.1530 C.3   338  ARG338      0.0489
     90  CD       -22.4580  -11.8870  -19.6760 C.3   338  ARG338      0.2205
     91  NE       -23.1070  -11.2240  -20.7980 N.pl3 338  ARG338     -0.0865
     92  CZ       -23.9970  -10.2520  -20.6470 C.cat 338  ARG338      0.5346
     93  NH1      -24.3280   -9.8570  -19.4250 N.pl3 338  ARG338      0.1354
     94  NH2      -24.5400   -9.6730  -21.7030 N.pl3 338  ARG338      0.1354
     95  N        -17.3740  -13.5230  -18.0770 N.am  339  LEU339     -0.1980
     96  CA       -16.5860  -13.2180  -16.8900 C.3   339  LEU339      0.1596
     97  C        -16.7770  -11.7460  -16.5660 C.2   339  LEU339      0.2287
     98  O        -16.8780  -10.9230  -17.4740 O.2   339  LEU339     -0.2864
     99  CB       -15.0980  -13.5000  -17.1040 C.3   339  LEU339      0.0297
    100  CG       -14.7820  -14.8770  -17.7210 C.3   339  LEU339      0.0022
    101  CD1      -13.3230  -14.9240  -18.1990 C.3   339  LEU339      0.0001
    102  CD2      -15.0790  -15.9950  -16.7230 C.3   339  LEU339      0.0001
@<TRIPOS>BOND
     1    94    92    1
     2    91    92    2
     3    91    90    1
     4    92    93    1
     5    89    90    1
     6    89    88    1
     7    84    85    1
     8    85    88    1
     9    85    86    1
    10    81    82    2
    11    81    80    1
    12   101   100    1
    13    95    86   am
    14    95    96    1
    15    79    80    1
    16    86    87    2
    17   100    99    1
    18   100   102    1
    19    98    97    2
    20    80    83    1
    21    99    96    1
    22    96    97    1
    23    75    74    2
    24    74    73    1
    25    73    76    1
    26    73    72    1
    27    76    78    1
    28    76    77    1
    29    42    41    1
    30    42    43    1
    31    41    38    1
    32    44    43    1
    33    44    45    2
    34    47    45    1
    35    40    39    2
    36    39    38    1
    37    38    37    1
    38    45    46    1
    39     8     7    1
    40     8     9    2
    41     7     6    1
    42    70    69    2
    43    11     9    1
    44     6     5    1
    45     9    10    1
    46     5     2    1
    47     2     3    1
    48     2     1    1
    49     3     4    2
    50    69    68    1
    51    16    13    1
    52    16    17    1
    53    59    58    2
    54    68    71    1
    55    68    67    1
    56    66    64   ar
    57    66    65   ar
    58    15    14    2
    59    13    14    1
    60    13    12    1
    61    64    62   ar
    62    17    19   ar
    63    17    18   ar
    64    65    63   ar
    65    58    67   am
    66    58    57    1
    67    19    21   ar
    68    18    20   ar
    69    62    61   ar
    70    63    61   ar
    71    61    60    1
    72    21    22   ar
    73    20    22   ar
    74    57    60    1
    75    57    56    1
    76    26    25    2
    77    27    28    1
    78    27    24    1
    79    24    25    1
    80    24    23    1
    81    25    29   am
    82    51    50    2
    83    55    53    1
    84    29    30    1
    85    34    36    1
    86    34    33    1
    87    53    52    1
    88    50    49    1
    89    30    33    1
    90    30    31    1
    91    33    35    1
    92    32    31    2
    93    49    52    1
    94    49    48    1
    95    52    54    1
