@<TRIPOS>MOLECULE
tmp/6maeA00.pdb
 195 187 0 0 0
SMALL
GASTEIGER

@<TRIPOS>ATOM
      1  N         15.3090   -7.9480   23.7780 N.3    18  LEU18      -0.1231
      2  CA        15.2180   -6.9130   24.8200 C.3    18  LEU18       0.1693
      3  C         14.2280   -7.3290   25.9220 C.2    18  LEU18       0.2592
      4  O         14.5510   -7.2520   27.1060 O.2    18  LEU18      -0.2718
      5  CB        14.7480   -5.5710   24.2070 C.3    18  LEU18       0.0284
      6  CG        14.3040   -4.4580   25.2200 C.3    18  LEU18       0.0019
      7  CD1       15.4450   -4.0260   26.1420 C.3    18  LEU18       0.0001
      8  CD2       13.7590   -3.2540   24.4900 C.3    18  LEU18       0.0001
      9  N         13.0260   -7.7510   25.5240 N.am   19  HIS19      -0.1976
     10  CA        11.9990   -8.0850   26.5090 C.3    19  HIS19       0.1656
     11  C         12.1290   -9.4630   27.0930 C.2    19  HIS19       0.2291
     12  O         11.9240   -9.6080   28.2870 O.2    19  HIS19      -0.2864
     13  CB        10.6060   -7.8520   25.9480 C.3    19  HIS19       0.0771
     14  CG        10.3590   -6.3990   25.7080 C.ar   19  HIS19       0.0820
     15  ND1       10.4910   -5.4720   26.7280 N.ar   19  HIS19      -0.2267
     16  CD2       10.0480   -5.7510   24.5590 C.ar   19  HIS19       0.1154
     17  CE1       10.2570   -4.2910   26.1740 C.ar   19  HIS19       0.1986
     18  NE2        9.9790   -4.4070   24.8720 N.ar   19  HIS19      -0.2212
     19  N          5.2760   -1.5290   24.9560 N.3    62  MET62      -0.1245
     20  CA         6.7320   -1.3800   25.0010 C.3    62  MET62       0.1570
     21  C          7.4750   -2.0000   23.7800 C.2    62  MET62       0.2261
     22  O          8.6890   -2.1350   23.8340 O.2    62  MET62      -0.2867
     23  CB         7.3320   -1.8860   26.3490 C.3    62  MET62       0.0387
     24  CG         6.7910   -1.1480   27.5750 C.3    62  MET62       0.0595
     25  SD         6.9410    0.6460   27.4570 S.3    62  MET62      -0.1393
     26  CE         8.5990    0.8630   28.1120 C.3    62  MET62       0.0692
     27  N          9.2180   -7.0770   18.9820 N.3    75  THR75      -0.1218
     28  CA        10.1900   -5.9880   18.8200 C.3    75  THR75       0.1862
     29  C         10.7220   -5.9070   17.3650 C.2    75  THR75       0.2287
     30  O         11.9240   -5.9110   17.1260 O.2    75  THR75      -0.2866
     31  CB        11.2880   -6.1130   19.9070 C.3    75  THR75       0.1770
     32  OG1       10.6940   -6.5770   21.1320 O.3    75  THR75      -0.2211
     33  CG2       12.0350   -4.7910   20.1380 C.3    75  THR75       0.0375
     34  N         10.2560   -3.2630   15.3160 N.3    77  GLU77      -0.1231
     35  CA        10.3880   -1.8610   14.8930 C.3    77  GLU77       0.1699
     36  C         11.7980   -1.4140   14.5170 C.2    77  GLU77       0.2592
     37  O         11.9290   -0.6380   13.5710 O.2    77  GLU77      -0.2718
     38  CB         9.7720   -0.8980   15.9250 C.3    77  GLU77       0.0402
     39  CG        10.3480   -0.9830   17.3330 C.3    77  GLU77       0.1161
     40  CD         9.7400   -1.9810   18.3040 C.2    77  GLU77       0.3649
     41  OE1        9.0680   -2.9340   17.8590 O.co2  77  GLU77      -0.2457
     42  OE2       10.0110   -1.8520   19.5180 O.co2  77  GLU77      -0.2457
     43  N         12.8450   -1.8370   15.2490 N.am   78  HIS78      -0.1976
     44  CA        14.1940   -1.3420   14.9190 C.3    78  HIS78       0.1656
     45  C         14.7400   -1.9430   13.6300 C.2    78  HIS78       0.2291
     46  O         15.3720   -1.2380   12.8500 O.2    78  HIS78      -0.2864
     47  CB        15.1820   -1.5390   16.0880 C.3    78  HIS78       0.0771
     48  CG        14.7270   -0.9260   17.3780 C.ar   78  HIS78       0.0820
     49  ND1       15.3030   -1.2840   18.5810 N.ar   78  HIS78      -0.2267
     50  CD2       13.7440   -0.0170   17.6200 C.ar   78  HIS78       0.1154
     51  CE1       14.6550   -0.5800   19.5140 C.ar   78  HIS78       0.1986
     52  NE2       13.6980    0.1740   18.9770 N.ar   78  HIS78      -0.2212
     53  N         17.5070    2.8790   21.9010 N.3   188  THR188     -0.1203
     54  CA        16.3460    2.8010   22.7660 C.3   188  THR188      0.1994
     55  C         16.7690    3.2120   24.2030 C.2   188  THR188      0.2618
     56  O         17.9720    3.3070   24.4980 O.2   188  THR188     -0.2717
     57  CB        15.7560    1.4130   22.7420 C.3   188  THR188      0.1784
     58  OG1       14.4960    1.5090   23.3910 O.3   188  THR188     -0.2211
     59  CG2       16.6540    0.3800   23.4410 C.3   188  THR188      0.0376
     60  N         15.7910    3.4700   25.0810 N.am  189  PHE189     -0.1961
     61  CA        16.1090    3.9470   26.4280 C.3   189  PHE189      0.1771
     62  C         15.0600    3.4750   27.4180 C.2   189  PHE189      0.2620
     63  O         13.9060    3.2300   27.0440 O.2   189  PHE189     -0.2715
     64  CB        16.2000    5.5050   26.4360 C.3   189  PHE189      0.0574
     65  CG        15.0050    6.2060   25.8210 C.ar  189  PHE189     -0.0200
     66  CD1       13.9060    6.5670   26.6040 C.ar  189  PHE189     -0.0042
     67  CD2       14.9840    6.5230   24.4640 C.ar  189  PHE189     -0.0042
     68  CE1       12.8080    7.2290   26.0390 C.ar  189  PHE189     -0.0003
     69  CE2       13.8780    7.1730   23.8960 C.ar  189  PHE189     -0.0003
     70  CZ        12.7950    7.5130   24.6860 C.ar  189  PHE189     -0.0000
     71  N         15.5040    3.3540   28.6600 N.am  190  GLY190     -0.1940
     72  CA        14.7230    2.9130   29.8000 C.3   190  GLY190      0.2014
     73  C         15.0130    3.7400   31.0330 C.2   190  GLY190      0.2639
     74  O         16.1010    4.3140   31.1770 O.2   190  GLY190     -0.2714
     75  N         14.0320    3.7890   31.9350 N.am  191  PHE191     -0.1959
     76  CA        14.1070    4.5640   33.1750 C.3   191  PHE191      0.1771
     77  C         14.0690    3.6290   34.3650 C.2   191  PHE191      0.2619
     78  O         13.2140    2.7380   34.4310 O.2   191  PHE191     -0.2715
     79  CB        12.9510    5.5930   33.2400 C.3   191  PHE191      0.0574
     80  CG        12.9010    6.5120   32.0420 C.ar  191  PHE191     -0.0200
     81  CD1       13.7410    7.6200   31.9570 C.ar  191  PHE191     -0.0042
     82  CD2       12.0240    6.2670   30.9930 C.ar  191  PHE191     -0.0042
     83  CE1       13.7300    8.4460   30.8280 C.ar  191  PHE191     -0.0003
     84  CE2       12.0100    7.1000   29.8630 C.ar  191  PHE191     -0.0003
     85  CZ        12.8530    8.1940   29.7970 C.ar  191  PHE191     -0.0000
     86  N         14.9960    3.8320   35.3090 N.am  192  MET192     -0.1977
     87  CA        15.1060    3.0370   36.5300 C.3   192  MET192      0.1605
     88  C         13.8130    3.0180   37.3420 C.2   192  MET192      0.2287
     89  O         13.4930    2.0010   37.9650 O.2   192  MET192     -0.2864
     90  CB        16.2840    3.5210   37.3870 C.3   192  MET192      0.0413
     91  CG        17.1420    2.3970   37.9120 C.3   192  MET192      0.0598
     92  SD        17.7720    1.2710   36.6240 S.3   192  MET192     -0.1393
     93  CE        18.0430   -0.1630   37.6090 C.3   192  MET192      0.0692
     94  N         11.6550    0.0590   35.9340 N.3   195  ILE195     -0.1245
     95  CA        12.2480   -1.2800   35.7960 C.3   195  ILE195      0.1561
     96  C         11.5580   -2.3690   36.6530 C.2   195  ILE195      0.2260
     97  O         11.3350   -3.4610   36.1160 O.2   195  ILE195     -0.2867
     98  CB        13.8120   -1.3380   35.9310 C.3   195  ILE195      0.0252
     99  CG1       14.4080   -2.6110   35.2680 C.3   195  ILE195      0.0019
    100  CG2       14.3070   -1.2070   37.3670 C.3   195  ILE195      0.0019
    101  CD1       13.9180   -2.9950   33.7780 C.3   195  ILE195      0.0001
    102  N          8.2370   -3.0560   34.9780 N.3   198  LEU198     -0.1231
    103  CA         8.4680   -3.7240   33.6980 C.3   198  LEU198      0.1693
    104  C          8.8130   -5.2260   33.8770 C.2   198  LEU198      0.2591
    105  O          8.1830   -6.0750   33.2490 O.2   198  LEU198     -0.2718
    106  CB         9.5360   -2.9940   32.8580 C.3   198  LEU198      0.0284
    107  CG         9.1060   -1.6430   32.2370 C.3   198  LEU198      0.0019
    108  CD1       10.2810   -0.9130   31.6400 C.3   198  LEU198      0.0001
    109  CD2        8.0220   -1.8190   31.1640 C.3   198  LEU198      0.0001
    110  N          9.7760   -5.5520   34.7430 N.am  199  ARG199     -0.1980
    111  CA        10.1670   -6.9550   34.9800 C.3   199  ARG199      0.1597
    112  C          9.0010   -7.8250   35.4900 C.2   199  ARG199      0.2287
    113  O          8.9110   -8.9930   35.0990 O.2   199  ARG199     -0.2864
    114  CB        11.3940   -7.0610   35.8920 C.3   199  ARG199      0.0334
    115  CG        12.6840   -6.6740   35.1860 C.3   199  ARG199      0.0492
    116  CD        13.7760   -6.4480   36.2050 C.3   199  ARG199      0.2205
    117  NE        15.0840   -6.2800   35.5770 N.pl3 199  ARG199     -0.0865
    118  CZ        16.1080   -5.6540   36.1480 C.cat 199  ARG199      0.5346
    119  NH1       17.2680   -5.5550   35.5140 N.pl3 199  ARG199      0.1354
    120  NH2       15.9760   -5.1080   37.3510 N.pl3 199  ARG199      0.1354
    121  N         11.4760   -6.0110   29.3750 N.3   204  ALA204     -0.1245
    122  CA        12.8660   -5.5550   29.5280 C.3   204  ALA204      0.1562
    123  C         13.7770   -6.5380   30.2770 C.2   204  ALA204      0.2260
    124  O         14.7720   -6.1090   30.8750 O.2   204  ALA204     -0.2867
    125  CB        12.8970   -4.1750   30.1810 C.3   204  ALA204      0.0290
    126  N         17.2140   -6.0190   29.0890 N.3   207  GLY207     -0.1210
    127  CA        17.6220   -4.6160   29.1530 C.3   207  GLY207      0.1956
    128  C         18.8730   -4.3760   29.9800 C.2   207  GLY207      0.2613
    129  O         19.0120   -4.9470   31.0600 O.2   207  GLY207     -0.2717
    130  N         19.8120   -3.5510   29.4550 N.am  208  SER208     -0.1938
    131  CA        21.0560   -3.1970   30.1490 C.3   208  SER208      0.2055
    132  C         21.6990   -2.0130   29.4510 C.2   208  SER208      0.2642
    133  O         21.2480   -1.6090   28.3700 O.2   208  SER208     -0.2714
    134  CB        22.0320   -4.3740   30.1540 C.3   208  SER208      0.2130
    135  OG        22.7670   -4.4300   28.9440 O.3   208  SER208     -0.2179
    136  N         22.8130   -1.5250   30.0150 N.am  209  VAL209     -0.1977
    137  CA        23.5850   -0.4330   29.4080 C.3   209  VAL209      0.1596
    138  C         24.2170   -0.8720   28.0620 C.2   209  VAL209      0.2287
    139  O         24.5650   -0.0120   27.2500 O.2   209  VAL209     -0.2864
    140  CB        24.6500    0.1600   30.3740 C.3   209  VAL209      0.0276
    141  CG1       23.9890    0.9310   31.5210 C.3   209  VAL209      0.0022
    142  CG2       25.6070   -0.9200   30.9000 C.3   209  VAL209      0.0022
    143  N         20.8590   -0.2350   25.6240 N.3   212  ALA212     -0.1245
    144  CA        19.9330    0.8870   25.8520 C.3   212  ALA212      0.1562
    145  C         20.6010    2.0110   26.6250 C.2   212  ALA212      0.2260
    146  O         21.5490    1.7630   27.3810 O.2   212  ALA212     -0.2867
    147  CB        18.7350    0.4020   26.6720 C.3   212  ALA212      0.0290
    148  N         20.3670    3.8410   29.7560 N.3   214  VAL214     -0.1245
    149  CA        19.6840    3.5700   31.0180 C.3   214  VAL214      0.1561
    150  C         19.7250    4.8370   31.8560 C.2   214  VAL214      0.2260
    151  O         20.8140    5.3130   32.1910 O.2   214  VAL214     -0.2867
    152  CB        20.1980    2.3140   31.7800 C.3   214  VAL214      0.0252
    153  CG1       19.4100    2.0980   33.0780 C.3   214  VAL214      0.0019
    154  CG2       20.1190    1.0640   30.9080 C.3   214  VAL214      0.0019
    155  N         15.4720    8.5550   18.6130 N.3   235  HIS235     -0.1226
    156  CA        15.0110    7.1580   18.6920 C.3   235  HIS235      0.1752
    157  C         13.4840    7.0640   18.4590 C.2   235  HIS235      0.2595
    158  O         13.0020    6.0960   17.8570 O.2   235  HIS235     -0.2718
    159  CB        15.3740    6.4920   20.0180 C.3   235  HIS235      0.0759
    160  CG        15.0720    5.0300   19.9760 C.ar  235  HIS235      0.0818
    161  ND1       15.8860    4.1600   19.2960 N.ar  235  HIS235     -0.2268
    162  CD2       13.9860    4.3600   20.4280 C.ar  235  HIS235      0.1154
    163  CE1       15.3040    2.9710   19.3910 C.ar  235  HIS235      0.1986
    164  NE2       14.1570    3.0470   20.0660 N.ar  235  HIS235     -0.2212
    165  N         12.7230    8.0600   18.9370 N.am  236  LYS236     -0.1980
    166  CA        11.2750    8.0490   18.7240 C.3   236  LYS236      0.1596
    167  C         10.9540    8.1340   17.2270 C.2   236  LYS236      0.2287
    168  O          9.9960    7.5090   16.7650 O.2   236  LYS236     -0.2864
    169  CB        10.5800    9.1720   19.5230 C.3   236  LYS236      0.0298
    170  CG        10.6720    9.0100   21.0490 C.3   236  LYS236      0.0038
    171  CD         9.9010    7.7800   21.6330 C.3   236  LYS236      0.0206
    172  CE         8.3820    7.8750   21.5460 C.3   236  LYS236      0.1093
    173  NZ         7.6880    6.7090   22.1870 N.3   236  LYS236     -0.1314
    174  N         11.7240    4.6460   15.7750 N.3   239  ASP239     -0.1239
    175  CA        10.5720    3.7750   16.0700 C.3   239  ASP239      0.1674
    176  C          9.4230    4.0300   15.0880 C.2   239  ASP239      0.2266
    177  O          8.8480    3.0830   14.5710 O.2   239  ASP239     -0.2867
    178  CB        10.0550    3.9730   17.5140 C.3   239  ASP239      0.1410
    179  CG        10.8620    3.3060   18.6080 C.2   239  ASP239      0.3668
    180  OD1       11.6240    2.3390   18.3010 O.co2 239  ASP239     -0.2456
    181  OD2       10.7420    3.7340   19.7600 O.co2 239  ASP239     -0.2456
    182  N          3.2710    6.5150   20.4380 N.3   261  GLY261     -0.1210
    183  CA         4.0550    5.2990   20.6130 C.3   261  GLY261      0.1956
    184  C          3.6110    4.2280   19.6390 C.2   261  GLY261      0.2611
    185  O          2.9070    4.5240   18.6600 O.2   261  GLY261     -0.2717
    186  N          4.0080    2.9740   19.9000 N.am  262  HIS262     -0.1975
    187  CA         3.6840    1.8480   18.9950 C.3   262  HIS262      0.1656
    188  C          2.1820    1.6640   18.7980 C.2   262  HIS262      0.2291
    189  O          1.7290    1.4300   17.6760 O.2   262  HIS262     -0.2864
    190  CB         4.3340    0.5410   19.4920 C.3   262  HIS262      0.0771
    191  CG         5.8000    0.6910   19.7220 C.ar  262  HIS262      0.0820
    192  ND1        6.6610    1.0620   18.6970 N.ar  262  HIS262     -0.2267
    193  CD2        6.5080    0.5530   20.8590 C.ar  262  HIS262      0.1154
    194  CE1        7.8630    1.1120   19.2470 C.ar  262  HIS262      0.1986
    195  NE2        7.8170    0.8090   20.5430 N.ar  262  HIS262     -0.2212
@<TRIPOS>BOND
     1    46    45    2
     2    37    36    2
     3    45    44    1
     4    36    35    1
     5    36    43   am
     6   177   176    2
     7    35    34    1
     8    35    38    1
     9    44    43    1
    10    44    47    1
    11   176   175    1
    12   174   175    1
    13    38    39    1
    14   175   178    1
    15    47    48    1
    16   168   167    2
    17    30    29    2
    18   167   166    1
    19    39    40    1
    20    29    28    1
    21    48    50   ar
    22    48    49   ar
    23   178   179    1
    24    50    52   ar
    25   189   188    2
    26   158   157    2
    27    41    40   ar
    28   180   179   ar
    29    40    42   ar
    30   157   156    1
    31   157   165   am
    32    49    51   ar
    33   179   181   ar
    34   155   156    1
    35   185   184    2
    36   156   159    1
    37   192   194   ar
    38   192   191   ar
    39   166   165    1
    40   166   169    1
    41   188   187    1
    42    28    27    1
    43    28    31    1
    44    52    51   ar
    45   187   190    1
    46   187   186    1
    47   194   195   ar
    48   161   163   ar
    49   161   160   ar
    50   163   164   ar
    51   190   191    1
    52   169   170    1
    53   184   186   am
    54   184   183    1
    55   191   193   ar
    56    31    33    1
    57    31    32    1
    58   160   159    1
    59   160   162   ar
    60   164   162   ar
    61   182   183    1
    62   195   193   ar
    63   170   171    1
    64   172   171    1
    65   172   173    1
    66    53    54    1
    67    57    54    1
    68    57    58    1
    69    57    59    1
    70    54    55    1
    71     1     2    1
    72    21    22    2
    73    21    20    1
    74    69    67   ar
    75    69    70   ar
    76    55    56    2
    77    55    60   am
    78     5     2    1
    79     5     6    1
    80    67    65   ar
    81     8     6    1
    82    16    18   ar
    83    16    14   ar
    84    70    68   ar
    85     2     3    1
    86    18    17   ar
    87    19    20    1
    88    20    23    1
    89    60    61    1
    90     6     7    1
    91     9     3   am
    92     9    10    1
    93   143   144    1
    94    14    13    1
    95    14    15   ar
    96    65    64    1
    97    65    66   ar
    98   144   145    1
    99   144   147    1
   100     3     4    2
   101    13    10    1
   102    68    66   ar
   103    17    15   ar
   104    23    24    1
   105    61    64    1
   106    61    62    1
   107    10    11    1
   108   145   146    2
   109    63    62    2
   110    11    12    2
   111   139   138    2
   112    62    71   am
   113    25    24    1
   114    25    26    1
   115   138   137    1
   116   133   132    2
   117    71    72    1
   118   135   134    1
   119   126   127    1
   120   127   128    1
   121   121   122    1
   122   137   136    1
   123   137   140    1
   124   132   136   am
   125   132   131    1
   126   130   128   am
   127   130   131    1
   128   122   125    1
   129   122   123    1
   130   148   149    1
   131    85    84   ar
   132    85    83   ar
   133    72    73    1
   134    84    82   ar
   135   128   129    2
   136   131   134    1
   137   123   124    2
   138   140   142    1
   139   140   141    1
   140    83    81   ar
   141   154   152    1
   142    82    80   ar
   143   149   152    1
   144   149   150    1
   145    73    74    2
   146    73    75   am
   147   109   107    1
   148   108   107    1
   149   152   153    1
   150   150   151    2
   151    75    76    1
   152    81    80   ar
   153    80    79    1
   154   107   106    1
   155   106   103    1
   156    76    79    1
   157    76    77    1
   158   105   104    2
   159   103   104    1
   160   103   102    1
   161   101    99    1
   162   104   110   am
   163    77    78    2
   164    77    86   am
   165   110   111    1
   166   111   112    1
   167   111   114    1
   168   113   112    2
   169   115   114    1
   170   115   116    1
   171    99    98    1
   172    86    87    1
   173   119   118    1
   174   117   118    2
   175   117   116    1
   176    95    98    1
   177    95    94    1
   178    95    96    1
   179    98   100    1
   180    97    96    2
   181   118   120    1
   182    87    88    1
   183    87    90    1
   184    92    93    1
   185    92    91    1
   186    88    89    2
   187    90    91    1
