@<TRIPOS>MOLECULE
tmp/6maoA00.pdb
 104 99 0 0 0
SMALL
GASTEIGER

@<TRIPOS>ATOM
      1  N        -35.0160   26.0480    5.3780 N.3    67  ILE67      -0.1245
      2  CA       -34.6290   27.0370    4.3820 C.3    67  ILE67       0.1561
      3  C        -35.8300   27.2840    3.4870 C.2    67  ILE67       0.2260
      4  O        -36.4050   26.3280    2.9460 O.2    67  ILE67      -0.2867
      5  CB       -33.4250   26.5470    3.5620 C.3    67  ILE67       0.0252
      6  CG1      -32.2300   26.2680    4.4920 C.3    67  ILE67       0.0019
      7  CG2      -33.0480   27.5820    2.4920 C.3    67  ILE67       0.0019
      8  CD1      -31.0130   25.7180    3.7550 C.3    67  ILE67       0.0001
      9  N        -36.7010   27.5550   -4.3990 N.3    81  LEU81      -0.1245
     10  CA       -35.8360   26.4400   -4.0200 C.3    81  LEU81       0.1561
     11  C        -36.2170   25.2080   -4.8240 C.2    81  LEU81       0.2260
     12  O        -37.4020   24.8920   -4.9380 O.2    81  LEU81      -0.2867
     13  CB       -35.9640   26.1320   -2.5080 C.3    81  LEU81       0.0270
     14  CG       -35.5990   27.2850   -1.5340 C.3    81  LEU81       0.0019
     15  CD1      -35.7450   26.8280   -0.0840 C.3    81  LEU81       0.0001
     16  CD2      -34.1770   27.7570   -1.7770 C.3    81  LEU81       0.0001
     17  N        -35.7760   22.1100   -4.0290 N.3    83  ASN83      -0.1240
     18  CA       -36.3980   21.1550   -3.1240 C.3    83  ASN83       0.1653
     19  C        -37.5550   21.7770   -2.3540 C.2    83  ASN83       0.2266
     20  O        -38.0860   21.1420   -1.4340 O.2    83  ASN83      -0.2867
     21  CB       -35.3480   20.5400   -2.1750 C.3    83  ASN83       0.1155
     22  CG       -34.5550   21.5780   -1.3980 C.2    83  ASN83       0.2627
     23  OD1      -34.5540   22.7450   -1.7370 O.2    83  ASN83      -0.2716
     24  ND2      -33.8770   21.1410   -0.3340 N.am   83  ASN83      -0.0877
     25  N        -36.0090   23.4050    2.4400 N.3    86  GLY86      -0.1210
     26  CA       -34.8570   22.6270    2.8910 C.3    86  GLY86       0.1956
     27  C        -34.9860   22.3950    4.3890 C.2    86  GLY86       0.2612
     28  O        -35.3290   23.3110    5.1330 O.2    86  GLY86      -0.2717
     29  N        -34.7810   21.1540    4.8210 N.am   87  LEU87      -0.1965
     30  CA       -34.8980   20.8010    6.2320 C.3    87  LEU87       0.1728
     31  C        -33.5020   20.5060    6.7800 C.2    87  LEU87       0.2616
     32  O        -32.8030   19.6420    6.2440 O.2    87  LEU87      -0.2715
     33  CB       -35.8270   19.5950    6.4060 C.3    87  LEU87       0.0311
     34  CG       -35.9690   19.0280    7.8300 C.3    87  LEU87       0.0022
     35  CD1      -36.6430   20.0630    8.7440 C.3    87  LEU87       0.0001
     36  CD2      -36.7710   17.7220    7.7920 C.3    87  LEU87       0.0001
     37  N        -33.0900   21.2330    7.8200 N.am   88  ILE88      -0.1963
     38  CA       -31.7680   21.0710    8.4380 C.3    88  ILE88       0.1727
     39  C        -31.9560   20.3040    9.7490 C.2    88  ILE88       0.2616
     40  O        -32.5490   20.8300   10.7010 O.2    88  ILE88      -0.2715
     41  CB       -31.0760   22.4250    8.7090 C.3    88  ILE88       0.0290
     42  CG1      -31.0770   23.3760    7.5090 C.3    88  ILE88       0.0022
     43  CG2      -29.6490   22.2190    9.2550 C.3    88  ILE88       0.0023
     44  CD1      -30.6080   22.7860    6.1850 C.3    88  ILE88       0.0001
     45  N        -31.4070   19.0860    9.8200 N.am   89  ASP89      -0.1971
     46  CA       -31.4720   18.2450   11.0110 C.3    89  ASP89       0.1709
     47  C        -30.5320   18.7510   12.1080 C.2    89  ASP89       0.2293
     48  O        -29.4900   19.3600   11.8340 O.2    89  ASP89      -0.2864
     49  CB       -31.0850   16.8000   10.6670 C.3    89  ASP89       0.1436
     50  CG       -31.9840   16.1950    9.6180 C.2    89  ASP89       0.3671
     51  OD1      -33.1970   16.0180    9.8830 O.co2  89  ASP89      -0.2456
     52  OD2      -31.4760   15.9330    8.5110 O.co2  89  ASP89      -0.2456
     53  N        -26.9210   17.5880   11.6030 N.3    92  TYR92      -0.1241
     54  CA       -26.1940   17.9480   10.3900 C.3    92  TYR92       0.1605
     55  C        -25.0740   18.9300   10.7060 C.2    92  TYR92       0.2264
     56  O        -25.3140   19.9620   11.3350 O.2    92  TYR92      -0.2867
     57  CB       -27.1270   18.5880    9.3790 C.3    92  TYR92       0.0534
     58  CG       -26.4500   18.9260    8.0790 C.ar   92  TYR92      -0.0201
     59  CD1      -25.9350   17.9170    7.2690 C.ar   92  TYR92      -0.0009
     60  CD2      -26.3340   20.2500    7.6490 C.ar   92  TYR92      -0.0009
     61  CE1      -25.3330   18.2090    6.0580 C.ar   92  TYR92       0.0417
     62  CE2      -25.7290   20.5520    6.4300 C.ar   92  TYR92       0.0417
     63  CZ       -25.2380   19.5280    5.6410 C.ar   92  TYR92       0.1957
     64  OH       -24.6390   19.8190    4.4300 O.3    92  TYR92      -0.2866
     65  N        -21.8090   22.0010    5.2160 N.3    95  GLU95      -0.1231
     66  CA       -22.1160   23.3480    4.7460 C.3    95  GLU95       0.1699
     67  C        -23.6030   23.4710    4.4460 C.2    95  GLU95       0.2592
     68  O        -24.2150   22.5550    3.8910 O.2    95  GLU95      -0.2718
     69  CB       -21.2900   23.6660    3.4940 C.3    95  GLU95       0.0402
     70  CG       -21.5730   25.0500    2.8830 C.3    95  GLU95       0.1161
     71  CD       -20.5790   25.4190    1.8020 C.2    95  GLU95       0.3649
     72  OE1      -19.8460   24.5150    1.3440 O.co2  95  GLU95      -0.2457
     73  OE2      -20.5160   26.6120    1.4260 O.co2  95  GLU95      -0.2457
     74  N        -24.1990   24.6020    4.8240 N.am   96  LEU96      -0.1966
     75  CA       -25.5340   24.9120    4.3260 C.3    96  LEU96       0.1728
     76  C        -25.4620   25.2490    2.8420 C.2    96  LEU96       0.2616
     77  O        -24.6670   26.0990    2.4320 O.2    96  LEU96      -0.2715
     78  CB       -26.1510   26.0860    5.0800 C.3    96  LEU96       0.0311
     79  CG       -26.4550   25.8140    6.5540 C.3    96  LEU96       0.0022
     80  CD1      -27.0420   27.0620    7.2130 C.3    96  LEU96       0.0001
     81  CD2      -27.3940   24.6200    6.7130 C.3    96  LEU96       0.0001
     82  N        -26.3070   24.5950    2.0420 N.am   97  LYS97      -0.1963
     83  CA       -26.3500   24.8140    0.6010 C.3    97  LYS97       0.1728
     84  C        -27.7770   25.1060    0.1820 C.2    97  LYS97       0.2616
     85  O        -28.7390   24.6000    0.7720 O.2    97  LYS97      -0.2715
     86  CB       -25.8030   23.6140   -0.1830 C.3    97  LYS97       0.0311
     87  CG       -24.3470   23.2850    0.1660 C.3    97  LYS97       0.0038
     88  CD       -23.6370   22.5950   -0.9850 C.3    97  LYS97       0.0206
     89  CE       -22.2680   22.0670   -0.5820 C.3    97  LYS97       0.1093
     90  NZ       -21.5870   21.4900   -1.7700 N.3    97  LYS97      -0.1314
     91  N        -27.9120   25.9540   -0.8320 N.am   98  ILE98      -0.1963
     92  CA       -29.2180   26.3600   -1.3310 C.3    98  ILE98       0.1727
     93  C        -29.4310   25.7300   -2.7030 C.2    98  ILE98       0.2616
     94  O        -28.5900   25.8790   -3.5980 O.2    98  ILE98      -0.2715
     95  CB       -29.3280   27.8850   -1.3940 C.3    98  ILE98       0.0290
     96  CG1      -29.1560   28.4650    0.0270 C.3    98  ILE98       0.0022
     97  CG2      -30.6550   28.2880   -1.9790 C.3    98  ILE98       0.0023
     98  CD1      -29.0410   29.9940    0.0320 C.3    98  ILE98       0.0001
     99  N        -30.5360   25.0090   -2.8580 N.am   99  SER99      -0.1950
    100  CA       -30.9680   24.5350   -4.1770 C.3    99  SER99       0.1924
    101  C        -31.7570   25.6750   -4.8020 C.2    99  SER99       0.2314
    102  O        -32.9340   25.8530   -4.5120 O.2    99  SER99      -0.2863
    103  CB       -31.8240   23.2720   -4.0700 C.3    99  SER99       0.2116
    104  OG       -32.3290   22.9070   -5.3600 O.3    99  SER99      -0.2180
@<TRIPOS>BOND
     1   104   103    1
     2    12    11    2
     3    11    10    1
     4   101   102    2
     5   101   100    1
     6     9    10    1
     7   100   103    1
     8   100    99    1
     9    17    18    1
    10    10    13    1
    11    94    93    2
    12    18    19    1
    13    18    21    1
    14    99    93   am
    15    93    92    1
    16    13    14    1
    17    19    20    2
    18    21    22    1
    19    97    95    1
    20    16    14    1
    21    90    89    1
    22    23    22    2
    23    14    15    1
    24    22    24   am
    25    95    92    1
    26    95    96    1
    27    92    91    1
    28    88    89    1
    29    88    87    1
    30    91    84   am
    31    86    87    1
    32    86    83    1
    33    96    98    1
    34    84    83    1
    35    84    85    2
    36    83    82    1
    37    72    71   ar
    38    73    71   ar
    39    71    70    1
    40    82    76   am
    41    77    76    2
    42    25    26    1
    43     7     5    1
    44    76    75    1
    45    70    69    1
    46    26    27    1
    47     4     3    2
    48     3     2    1
    49    69    66    1
    50     5     2    1
    51     5     6    1
    52     8     6    1
    53    68    67    2
    54    75    74    1
    55    75    78    1
    56     2     1    1
    57    27    29   am
    58    27    28    2
    59    64    63    1
    60    67    66    1
    61    67    74   am
    62    66    65    1
    63    29    30    1
    64    78    79    1
    65    63    61   ar
    66    63    62   ar
    67    61    59   ar
    68    44    42    1
    69    30    33    1
    70    30    31    1
    71    32    31    2
    72    33    34    1
    73    62    60   ar
    74    79    81    1
    75    79    80    1
    76    31    37   am
    77    59    58   ar
    78    42    41    1
    79    60    58   ar
    80    36    34    1
    81    37    38    1
    82    34    35    1
    83    58    57    1
    84    38    41    1
    85    38    39    1
    86    52    50   ar
    87    41    43    1
    88    57    54    1
    89    50    51   ar
    90    50    49    1
    91    39    45   am
    92    39    40    2
    93    45    46    1
    94    54    55    1
    95    54    53    1
    96    49    46    1
    97    55    56    2
    98    46    47    1
    99    48    47    2
