@<TRIPOS>MOLECULE
tmp/6matB02.pdb
 144 133 0 0 0
SMALL
GASTEIGER

@<TRIPOS>ATOM
      1  N         93.5140  161.3650  155.2110 N.3    11  ASP11      -0.1225
      2  CA        94.7460  161.6410  154.4710 C.3    11  ASP11       0.1805
      3  C         94.9470  160.7520  153.2350 C.2    11  ASP11       0.2598
      4  O         95.5460  161.1890  152.2490 O.2    11  ASP11      -0.2718
      5  CB        95.9500  161.5170  155.4160 C.3    11  ASP11       0.1424
      6  CG        97.1770  162.2690  154.9160 C.2    11  ASP11       0.3668
      7  OD1       97.2330  163.5050  155.0910 O.co2  11  ASP11      -0.2456
      8  OD2       98.0840  161.6210  154.3520 O.co2  11  ASP11      -0.2456
      9  N         94.4660  159.5110  153.2950 N.am   12  ILE12      -0.1966
     10  CA        94.6110  158.5710  152.1780 C.3    12  ILE12       0.1727
     11  C         93.3540  158.5540  151.3050 C.2    12  ILE12       0.2616
     12  O         92.2350  158.4450  151.8140 O.2    12  ILE12      -0.2715
     13  CB        94.9420  157.1150  152.6610 C.3    12  ILE12       0.0290
     14  CG1       96.0900  157.1110  153.6810 C.3    12  ILE12       0.0022
     15  CG2       95.3940  156.2520  151.4840 C.3    12  ILE12       0.0023
     16  CD1       95.6520  157.2470  155.1330 C.3    12  ILE12       0.0001
     17  N         93.5620  158.6700  149.9920 N.am   13  ALA13      -0.1977
     18  CA        92.4820  158.6740  149.0000 C.3    13  ALA13       0.1597
     19  C         92.9590  158.1260  147.6500 C.2    13  ALA13       0.2287
     20  O         94.1640  158.0890  147.3810 O.2    13  ALA13      -0.2864
     21  CB        91.9240  160.0860  148.8320 C.3    13  ALA13       0.0319
     22  N         92.0870  155.0640  146.6690 N.3    15  VAL15      -0.1245
     23  CA        92.0770  153.6210  146.8890 C.3    15  VAL15       0.1561
     24  C         90.6660  153.1290  147.2470 C.2    15  VAL15       0.2260
     25  O         90.4940  152.3130  148.1520 O.2    15  VAL15      -0.2867
     26  CB        93.1100  153.2260  148.0040 C.3    15  VAL15       0.0252
     27  CG1       94.5300  153.2790  147.4510 C.3    15  VAL15       0.0019
     28  CG2       92.9850  154.1460  149.2300 C.3    15  VAL15       0.0019
     29  N        107.5890  151.4590  146.7540 N.3    53  SER53      -0.1202
     30  CA       107.9330  152.1820  147.9830 C.3    53  SER53       0.2020
     31  C        107.2390  153.5480  148.0480 C.2    53  SER53       0.2619
     32  O        107.0460  154.2020  147.0140 O.2    53  SER53      -0.2717
     33  CB       109.4550  152.3670  148.0740 C.3    53  SER53       0.2103
     34  OG       109.8370  153.0780  149.2460 O.3    53  SER53      -0.2182
     35  N        106.8300  153.9370  149.2590 N.am   54  GLY54      -0.1942
     36  CA       106.1640  155.2150  149.4750 C.3    54  GLY54       0.2014
     37  C        104.7210  155.2770  148.9980 C.2    54  GLY54       0.2639
     38  O        104.1520  156.3700  148.8820 O.2    54  GLY54      -0.2714
     39  N        104.1340  154.1070  148.7320 N.am   55  CYS55      -0.1953
     40  CA       102.7520  153.9940  148.2530 C.3    55  CYS55       0.1843
     41  C        101.6930  154.1420  149.3370 C.2    55  CYS55       0.2626
     42  O        100.4920  154.1120  149.0480 O.2    55  CYS55      -0.2714
     43  CB       102.5470  152.6840  147.4870 C.3    55  CYS55       0.0997
     44  SG       103.2370  152.7440  145.8260 S.3    55  CYS55      -0.0797
     45  N        102.1500  154.3250  150.5750 N.am   56  GLY56      -0.1940
     46  CA       101.2460  154.5010  151.6930 C.3    56  GLY56       0.2014
     47  C        100.8290  153.2200  152.3760 C.2    56  GLY56       0.2639
     48  O         99.7460  153.1590  152.9530 O.2    56  GLY56      -0.2714
     49  N        101.6810  152.1980  152.2970 N.am   57  LYS57      -0.1963
     50  CA       101.4130  150.9050  152.9190 C.3    57  LYS57       0.1728
     51  C        101.4320  150.9970  154.4440 C.2    57  LYS57       0.2617
     52  O        100.4750  150.5760  155.1070 O.2    57  LYS57      -0.2715
     53  CB       102.4030  149.8530  152.4130 C.3    57  LYS57       0.0311
     54  CG       102.1590  149.4370  150.9610 C.3    57  LYS57       0.0038
     55  CD       103.1190  148.3490  150.5100 C.3    57  LYS57       0.0206
     56  CE       104.2630  148.9080  149.6770 C.3    57  LYS57       0.1093
     57  NZ       105.1550  149.8560  150.3980 N.3    57  LYS57      -0.1314
     58  N        102.4860  151.6310  154.9720 N.am   58  THR58      -0.1937
     59  CA       102.6830  151.8420  156.4140 C.3    58  THR58       0.2028
     60  C        101.5750  152.7440  156.9840 C.2    58  THR58       0.2642
     61  O        100.9970  152.4440  158.0330 O.2    58  THR58      -0.2714
     62  CB       104.0950  152.4520  156.7040 C.3    58  THR58       0.1808
     63  OG1      105.0990  151.6730  156.0360 O.3    58  THR58      -0.2208
     64  CG2      104.4030  152.4670  158.2080 C.3    58  THR58       0.0379
     65  N        101.2540  153.8100  156.2500 N.am   59  THR59      -0.1950
     66  CA       100.2080  154.7580  156.6430 C.3    59  THR59       0.1897
     67  C         98.8140  154.1230  156.6800 C.2    59  THR59       0.2313
     68  O         98.0620  154.3490  157.6300 O.2    59  THR59      -0.2863
     69  CB       100.2050  156.0350  155.7500 C.3    59  THR59       0.1794
     70  OG1      100.0510  155.6870  154.3680 O.3    59  THR59      -0.2208
     71  CG2      101.4990  156.8130  155.9410 C.3    59  THR59       0.0378
     72  N        106.0950  145.1330  159.0230 N.3   110  ASP110     -0.1225
     73  CA       106.5860  146.0910  158.0310 C.3   110  ASP110      0.1805
     74  C        107.9190  145.5890  157.4910 C.2   110  ASP110      0.2597
     75  O        108.7980  145.2080  158.2710 O.2   110  ASP110     -0.2718
     76  CB       106.7450  147.4860  158.6540 C.3   110  ASP110      0.1424
     77  CG       106.7840  148.6040  157.6120 C.2   110  ASP110      0.3668
     78  OD1      106.0640  148.5180  156.5920 O.co2 110  ASP110     -0.2456
     79  OD2      107.5320  149.5820  157.8240 O.co2 110  ASP110     -0.2456
     80  N        108.0390  145.5780  156.1560 N.am  111  GLN111     -0.1979
     81  CA       109.2280  145.1130  155.4110 C.3   111  GLN111      0.1601
     82  C        109.5860  143.6760  155.8200 C.2   111  GLN111      0.2287
     83  O        110.4390  143.4470  156.6770 O.2   111  GLN111     -0.2864
     84  CB       110.4080  146.0870  155.5880 C.3   111  GLN111      0.0394
     85  CG       110.1580  147.4690  154.9850 C.3   111  GLN111      0.0908
     86  CD       111.2140  148.4800  155.3800 C.2   111  GLN111      0.2608
     87  OE1      112.1800  148.7040  154.6500 O.2   111  GLN111     -0.2717
     88  NE2      111.0310  149.1040  156.5390 N.am  111  GLN111     -0.0878
     89  N        103.4570  144.1780  155.0280 N.3   156  ALA156     -0.1245
     90  CA       103.8150  145.0330  153.8990 C.3   156  ALA156      0.1562
     91  C        105.1630  144.6730  153.2950 C.2   156  ALA156      0.2260
     92  O        106.1450  144.4770  154.0150 O.2   156  ALA156     -0.2867
     93  CB       103.8090  146.4950  154.3150 C.3   156  ALA156      0.0290
     94  N        107.6620  145.2550  149.3980 N.3   158  ASN158     -0.1240
     95  CA       107.8970  146.0310  148.1830 C.3   158  ASN158      0.1653
     96  C        108.0570  145.1370  146.9510 C.2   158  ASN158      0.2266
     97  O        107.8610  145.5900  145.8200 O.2   158  ASN158     -0.2867
     98  CB       109.1470  146.9080  148.3530 C.3   158  ASN158      0.1155
     99  CG       109.0570  147.8600  149.5480 C.2   158  ASN158      0.2627
    100  OD1      108.4900  147.5310  150.5940 O.2   158  ASN158     -0.2716
    101  ND2      109.6460  149.0380  149.4000 N.am  158  ASN158     -0.0877
    102  N         98.4600  147.7290  146.0600 N.3   177  MET177     -0.1245
    103  CA        98.4450  149.1880  146.2110 C.3   177  MET177      0.1570
    104  C         99.3790  149.7310  145.1310 C.2   177  MET177      0.2261
    105  O        100.5470  150.0570  145.3930 O.2   177  MET177     -0.2867
    106  CB        98.9470  149.6060  147.5990 C.3   177  MET177      0.0387
    107  CG        97.9500  149.4490  148.7220 C.3   177  MET177      0.0595
    108  SD        98.5730  150.2740  150.1910 S.3   177  MET177     -0.1393
    109  CE        98.0110  151.9570  149.9010 C.3   177  MET177      0.0692
    110  N         94.1030  162.7000  145.8400 N.3   188  ILE188     -0.1245
    111  CA        95.3490  162.7820  146.6290 C.3   188  ILE188      0.1561
    112  C         95.7370  164.2480  146.8610 C.2   188  ILE188      0.2260
    113  O         96.0310  164.6340  147.9930 O.2   188  ILE188     -0.2867
    114  CB        96.5380  161.9940  145.9600 C.3   188  ILE188      0.0252
    115  CG1       96.1840  160.5070  145.8190 C.3   188  ILE188      0.0019
    116  CG2       97.8210  162.0910  146.8210 C.3   188  ILE188      0.0019
    117  CD1       97.1190  159.7070  144.9050 C.3   188  ILE188      0.0001
    118  N         96.1920  166.3550  150.6280 N.3   192  LEU192     -0.1245
    119  CA        97.3920  167.1060  151.0040 C.3   192  LEU192      0.1561
    120  C         97.1350  168.6020  151.2190 C.2   192  LEU192      0.2260
    121  O         97.6820  169.2040  152.1490 O.2   192  LEU192     -0.2867
    122  CB        98.4750  166.8980  149.9500 C.3   192  LEU192      0.0270
    123  CG        98.7650  165.4330  149.6210 C.3   192  LEU192      0.0019
    124  CD1       99.2500  165.3400  148.1970 C.3   192  LEU192      0.0001
    125  CD2       99.7270  164.8010  150.6240 C.3   192  LEU192      0.0001
    126  N        101.7800  158.8070  144.7670 N.3   216  GLY216     -0.1210
    127  CA       101.2930  159.4590  145.9840 C.3   216  GLY216      0.1956
    128  C        102.3410  160.2790  146.7160 C.2   216  GLY216      0.2612
    129  O        102.0530  161.3550  147.2580 O.2   216  GLY216     -0.2717
    130  N        103.5630  159.7470  146.7260 N.am  217  SER217     -0.1952
    131  CA       104.7140  160.3960  147.3430 C.3   217  SER217      0.1924
    132  C        105.1480  161.6230  146.5240 C.2   217  SER217      0.2314
    133  O        105.4800  162.6630  147.0940 O.2   217  SER217     -0.2863
    134  CB       105.8690  159.4000  147.4770 C.3   217  SER217      0.2116
    135  OG       106.7640  159.7860  148.5090 O.3   217  SER217     -0.2180
    136  N        102.7280  164.5080  147.0020 N.3   220  GLN220     -0.1245
    137  CA       103.0170  165.0150  148.3580 C.3   220  GLN220      0.1566
    138  C        104.1420  166.0610  148.3060 C.2   220  GLN220      0.2260
    139  O        104.0650  167.1160  148.9480 O.2   220  GLN220     -0.2867
    140  CB       103.3960  163.8310  149.2610 C.3   220  GLN220      0.0367
    141  CG       103.8970  164.1620  150.6650 C.3   220  GLN220      0.0905
    142  CD       104.6780  163.0150  151.3070 C.2   220  GLN220      0.2608
    143  OE1      105.1870  162.1200  150.6200 O.2   220  GLN220     -0.2717
    144  NE2      104.7870  163.0480  152.6330 N.am  220  GLN220     -0.0878
@<TRIPOS>BOND
     1   126   127    1
     2   117   115    1
     3   104   105    2
     4   104   103    1
     5   115   114    1
     6    97    96    2
     7    44    43    1
     8   110   111    1
     9   114   111    1
    10   114   116    1
    11   127   128    1
    12   102   103    1
    13   103   106    1
    14   132   133    2
    15   132   131    1
    16   111   112    1
    17    22    23    1
    18   128   130   am
    19   128   129    2
    20   130   131    1
    21    29    30    1
    22   112   113    2
    23    23    24    1
    24    23    26    1
    25    96    95    1
    26   136   137    1
    27    32    31    2
    28    24    25    2
    29   131   134    1
    30    20    19    2
    31    27    26    1
    32   134   135    1
    33    43    40    1
    34   106   107    1
    35    19    18    1
    36    30    31    1
    37    30    33    1
    38    26    28    1
    39    31    35   am
    40    33    34    1
    41    95    98    1
    42    95    94    1
    43   124   123    1
    44    40    39    1
    45    40    41    1
    46   138   137    1
    47   138   139    2
    48    98    99    1
    49   137   140    1
    50   107   108    1
    51    39    37   am
    52    21    18    1
    53    38    37    2
    54    37    36    1
    55    18    17    1
    56    42    41    2
    57    35    36    1
    58   140   141    1
    59    41    45   am
    60   101    99   am
    61    99   100    2
    62   123   122    1
    63   123   125    1
    64    56    57    1
    65    56    55    1
    66   109   108    1
    67   122   119    1
    68    17    11   am
    69    55    54    1
    70    45    46    1
    71   143   142    2
    72   118   119    1
    73   141   142    1
    74    54    53    1
    75   119   120    1
    76   120   121    2
    77    11    12    2
    78    11    10    1
    79   142   144   am
    80    15    13    1
    81    46    47    1
    82    10    13    1
    83    10     9    1
    84     4     3    2
    85    49    47   am
    86    49    50    1
    87    47    48    2
    88    53    50    1
    89    13    14    1
    90    50    51    1
    91     3     9   am
    92     3     2    1
    93    91    90    1
    94    91    92    2
    95    14    16    1
    96    90    93    1
    97    90    89    1
    98     8     6   ar
    99    70    69    1
   100    51    58   am
   101    51    52    2
   102     2     1    1
   103     2     5    1
   104    87    86    2
   105     6     7   ar
   106     6     5    1
   107    58    59    1
   108    85    86    1
   109    85    84    1
   110    86    88   am
   111    81    84    1
   112    81    82    1
   113    81    80    1
   114    69    71    1
   115    69    66    1
   116    82    83    2
   117    63    62    1
   118    80    74   am
   119    65    66    1
   120    65    60   am
   121    59    62    1
   122    59    60    1
   123    78    77   ar
   124    66    67    1
   125    67    68    2
   126    62    64    1
   127    60    61    2
   128    74    73    1
   129    74    75    2
   130    77    79   ar
   131    77    76    1
   132    73    76    1
   133    73    72    1
