@<TRIPOS>MOLECULE
tmp/6matB01.pdb
 144 136 0 0 0
SMALL
GASTEIGER

@<TRIPOS>ATOM
      1  N        114.5340  175.5950  113.0340 N.3   310  HIS310     -0.1226
      2  CA       115.9180  175.1520  112.8670 C.3   310  HIS310      0.1752
      3  C        116.0540  174.2200  111.6610 C.2   310  HIS310      0.2596
      4  O        117.1570  174.0110  111.1510 O.2   310  HIS310     -0.2718
      5  CB       116.4080  174.4350  114.1300 C.3   310  HIS310      0.0759
      6  CG       116.6220  175.3430  115.3020 C.ar  310  HIS310      0.0818
      7  ND1      117.8770  175.7210  115.7290 N.ar  310  HIS310     -0.2268
      8  CD2      115.7440  175.9340  116.1470 C.ar  310  HIS310      0.1154
      9  CE1      117.7620  176.5050  116.7870 C.ar  310  HIS310      0.1986
     10  NE2      116.4780  176.6500  117.0600 N.ar  310  HIS310     -0.2212
     11  N        114.9220  173.6750  111.2140 N.am  311  VAL311     -0.1966
     12  CA       114.8760  172.7610  110.0720 C.3   311  VAL311      0.1727
     13  C        114.3800  173.5010  108.8280 C.2   311  VAL311      0.2616
     14  O        113.2490  174.0010  108.7990 O.2   311  VAL311     -0.2715
     15  CB       113.9460  171.5300  110.3480 C.3   311  VAL311      0.0290
     16  CG1      114.0750  170.4890  109.2300 C.3   311  VAL311      0.0023
     17  CG2      114.2760  170.8880  111.6940 C.3   311  VAL311      0.0023
     18  N        115.2430  173.5580  107.8130 N.am  312  GLY312     -0.1955
     19  CA       114.9120  174.2090  106.5550 C.3   312  GLY312      0.1869
     20  C        114.1360  173.2660  105.6530 C.2   312  GLY312      0.2309
     21  O        114.6110  172.1650  105.3500 O.2   312  GLY312     -0.2863
     22  N        111.2580  170.6250  104.2500 N.3   314  LEU314     -0.1245
     23  CA       110.7120  169.3230  104.6890 C.3   314  LEU314      0.1561
     24  C        109.3280  169.4760  105.3370 C.2   314  LEU314      0.2260
     25  O        108.9710  168.7480  106.2690 O.2   314  LEU314     -0.2867
     26  CB       111.6880  168.5940  105.6390 C.3   314  LEU314      0.0270
     27  CG       113.0480  168.1020  105.1250 C.3   314  LEU314      0.0019
     28  CD1      113.9220  167.6990  106.3070 C.3   314  LEU314      0.0001
     29  CD2      112.8770  166.9350  104.1540 C.3   314  LEU314      0.0001
     30  N        123.4130  160.2700  104.7060 N.3   352  PRO352     -0.2102
     31  CA       123.9390  160.8050  105.9750 C.3   352  PRO352      0.1504
     32  C        123.9400  162.3300  106.1150 C.2   352  PRO352      0.2576
     33  O        124.1970  163.0550  105.1420 O.2   352  PRO352     -0.2718
     34  CB       125.3740  160.2690  106.0010 C.3   352  PRO352      0.0282
     35  CG       125.3200  159.0450  105.1360 C.3   352  PRO352      0.0208
     36  CD       124.4690  159.5100  104.0050 C.3   352  PRO352      0.0893
     37  N        123.6540  162.7890  107.3370 N.am  353  GLY353     -0.1943
     38  CA       123.6330  164.2100  107.6650 C.3   353  GLY353      0.2014
     39  C        122.5250  165.0310  107.0490 C.2   353  GLY353      0.2639
     40  O        122.7470  166.1770  106.6430 O.2   353  GLY353     -0.2714
     41  N        121.3370  164.4410  106.9690 N.am  354  CYS354     -0.1953
     42  CA       120.1960  165.1270  106.3850 C.3   354  CYS354      0.1843
     43  C        119.1520  165.5730  107.4050 C.2   354  CYS354      0.2626
     44  O        118.0620  166.0270  107.0310 O.2   354  CYS354     -0.2714
     45  CB       119.5900  164.2870  105.2570 C.3   354  CYS354      0.0997
     46  SG       120.6460  164.2400  103.7820 S.3   354  CYS354     -0.0797
     47  N        119.5090  165.4710  108.6880 N.am  355  GLY355     -0.1940
     48  CA       118.6240  165.9040  109.7560 C.3   355  GLY355      0.2014
     49  C        117.7450  164.8710  110.4250 C.2   355  GLY355      0.2639
     50  O        116.7920  165.2470  111.0980 O.2   355  GLY355     -0.2714
     51  N        118.0870  163.5900  110.2910 N.am  356  LYS356     -0.1963
     52  CA       117.3120  162.5020  110.8940 C.3   356  LYS356      0.1728
     53  C        117.2940  162.5640  112.4240 C.2   356  LYS356      0.2617
     54  O        116.2210  162.5330  113.0360 O.2   356  LYS356     -0.2715
     55  CB       117.8210  161.1370  110.4110 C.3   356  LYS356      0.0311
     56  CG       117.6400  160.8960  108.9010 C.3   356  LYS356      0.0038
     57  CD       118.0030  159.4680  108.4620 C.3   356  LYS356      0.0206
     58  CE       119.5120  159.1970  108.4270 C.3   356  LYS356      0.1093
     59  NZ       120.2310  159.9300  107.3430 N.3   356  LYS356     -0.1314
     60  N        118.4760  162.7350  113.0200 N.am  357  THR357     -0.1937
     61  CA       118.6490  162.8360  114.4800 C.3   357  THR357      0.2028
     62  C        117.9470  164.0990  115.0360 C.2   357  THR357      0.2642
     63  O        117.2980  164.0600  116.0960 O.2   357  THR357     -0.2714
     64  CB       120.1660  162.8330  114.8590 C.3   357  THR357      0.1808
     65  OG1      120.8340  161.7730  114.1540 O.3   357  THR357     -0.2208
     66  CG2      120.3700  162.6390  116.3680 C.3   357  THR357      0.0379
     67  N        118.0590  165.1950  114.2800 N.am  358  LEU358     -0.1977
     68  CA       117.4540  166.4900  114.6140 C.3   358  LEU358      0.1596
     69  C        115.9350  166.3940  114.6630 C.2   358  LEU358      0.2287
     70  O        115.3180  166.8530  115.6220 O.2   358  LEU358     -0.2864
     71  CB       117.8600  167.5520  113.5830 C.3   358  LEU358      0.0297
     72  CG       119.3420  167.9180  113.4250 C.3   358  LEU358      0.0022
     73  CD1      119.4960  168.8700  112.2520 C.3   358  LEU358      0.0001
     74  CD2      119.8960  168.5430  114.7090 C.3   358  LEU358      0.0001
     75  N        119.1080  155.1090  117.0510 N.3   409  ASP409     -0.1225
     76  CA       119.9800  155.6370  116.0010 C.3   409  ASP409      0.1805
     77  C        120.8880  154.5270  115.4720 C.2   409  ASP409      0.2597
     78  O        121.4780  153.7740  116.2520 O.2   409  ASP409     -0.2718
     79  CB       120.8070  156.8130  116.5400 C.3   409  ASP409      0.1424
     80  CG       121.4480  157.6430  115.4360 C.2   409  ASP409      0.3668
     81  OD1      120.7270  158.4190  114.7730 O.co2 409  ASP409     -0.2456
     82  OD2      122.6750  157.5200  115.2360 O.co2 409  ASP409     -0.2456
     83  N        120.9840  154.4500  114.1400 N.am  410  GLN410     -0.1979
     84  CA       121.7770  153.4590  113.3920 C.3   410  GLN410      0.1601
     85  C        121.3750  152.0040  113.6730 C.2   410  GLN410      0.2287
     86  O        122.0340  151.2850  114.4360 O.2   410  GLN410     -0.2864
     87  CB       123.2870  153.6940  113.5590 C.3   410  GLN410      0.0394
     88  CG       123.7720  154.9870  112.9160 C.3   410  GLN410      0.0908
     89  CD       125.2640  155.1890  113.0580 C.2   410  GLN410      0.2608
     90  OE1      126.0510  154.6070  112.3150 O.2   410  GLN410     -0.2717
     91  NE2      125.6630  156.0210  114.0130 N.am  410  GLN410     -0.0878
     92  N        116.1730  155.2820  113.0830 N.3   451  ALA451     -0.1245
     93  CA       116.9100  155.9830  112.0300 C.3   451  ALA451      0.1562
     94  C        118.1040  155.1930  111.5180 C.2   451  ALA451      0.2260
     95  O        118.8080  154.5440  112.2960 O.2   451  ALA451     -0.2867
     96  CB       117.3630  157.3500  112.5010 C.3   451  ALA451      0.0290
     97  N        121.1840  155.2610  108.1030 N.3   453  ASN453     -0.1240
     98  CA       121.8440  155.8670  106.9490 C.3   453  ASN453      0.1653
     99  C        121.8900  154.8410  105.8220 C.2   453  ASN453      0.2266
    100  O        122.1940  155.1700  104.6700 O.2   453  ASN453     -0.2867
    101  CB       123.2780  156.2770  107.3120 C.3   453  ASN453      0.1155
    102  CG       123.3460  157.2490  108.4860 C.2   453  ASN453      0.2627
    103  OD1      122.4810  157.2650  109.3670 O.2   453  ASN453     -0.2716
    104  ND2      124.4030  158.0450  108.5150 N.am  453  ASN453     -0.0877
    105  N        117.4440  165.3580   99.8890 N.3   476  LEU476     -0.1245
    106  CA       117.5430  166.7850   99.5280 C.3   476  LEU476      0.1561
    107  C        118.0090  167.0990   98.0860 C.2   476  LEU476      0.2260
    108  O        119.1990  166.9570   97.7740 O.2   476  LEU476     -0.2867
    109  CB       118.4520  167.5070  100.5380 C.3   476  LEU476      0.0270
    110  CG       118.4870  169.0370  100.6040 C.3   476  LEU476      0.0019
    111  CD1      117.1370  169.6010  101.0390 C.3   476  LEU476      0.0001
    112  CD2      119.5660  169.4400  101.5850 C.3   476  LEU476      0.0001
    113  N        117.3880  176.7830  103.8080 N.3   485  ILE485     -0.1245
    114  CA       118.4920  176.2930  104.6470 C.3   485  ILE485      0.1561
    115  C        119.5620  177.3780  104.8380 C.2   485  ILE485      0.2260
    116  O        119.9960  177.6190  105.9640 O.2   485  ILE485     -0.2867
    117  CB       119.1290  174.9930  104.0660 C.3   485  ILE485      0.0252
    118  CG1      118.0630  173.8990  103.9600 C.3   485  ILE485      0.0019
    119  CG2      120.2680  174.4800  104.9760 C.3   485  ILE485      0.0019
    120  CD1      118.4520  172.7310  103.0890 C.3   485  ILE485      0.0001
    121  N        118.2440  179.9810  107.1820 N.3   488  THR488     -0.1203
    122  CA       118.1990  179.3860  108.5290 C.3   488  THR488      0.1994
    123  C        119.5720  179.4050  109.2320 C.2   488  THR488      0.2617
    124  O        119.6510  179.6780  110.4330 O.2   488  THR488     -0.2717
    125  CB       117.6380  177.9330  108.4800 C.3   488  THR488      0.1784
    126  OG1      116.3600  177.9390  107.8330 O.3   488  THR488     -0.2211
    127  CG2      117.4680  177.3470  109.8740 C.3   488  THR488      0.0376
    128  N        120.6260  179.0440  108.4990 N.am  489  LEU489     -0.1979
    129  CA       121.9970  179.0560  109.0210 C.3   489  LEU489      0.1596
    130  C        122.5240  180.4700  109.2930 C.2   489  LEU489      0.2287
    131  O        123.0820  180.7380  110.3620 O.2   489  LEU489     -0.2864
    132  CB       122.9390  178.3180  108.0650 C.3   489  LEU489      0.0297
    133  CG       122.7420  176.8060  107.8950 C.3   489  LEU489      0.0022
    134  CD1      123.5550  176.3210  106.7080 C.3   489  LEU489      0.0001
    135  CD2      123.1270  176.0500  109.1640 C.3   489  LEU489      0.0001
    136  N        122.7580  169.1700  103.0070 N.3   516  GLY516     -0.1210
    137  CA       122.6840  170.0190  104.1990 C.3   516  GLY516      0.1956
    138  C        124.0150  170.2470  104.8990 C.2   516  GLY516      0.2611
    139  O        124.3300  171.3610  105.3370 O.2   516  GLY516     -0.2717
    140  N        124.7940  169.1700  104.9870 N.am  517  ALA517     -0.1979
    141  CA       126.1230  169.1760  105.5910 C.3   517  ALA517      0.1597
    142  C        127.1020  170.0200  104.7680 C.2   517  ALA517      0.2287
    143  O        127.9290  170.7420  105.3310 O.2   517  ALA517     -0.2864
    144  CB       126.6340  167.7550  105.7280 C.3   517  ALA517      0.0319
@<TRIPOS>BOND
     1   108   107    2
     2   107   106    1
     3   106   105    1
     4   106   109    1
     5   109   110    1
     6   110   111    1
     7   110   112    1
     8   136   137    1
     9   120   118    1
    10    46    45    1
    11   113   114    1
    12   118   117    1
    13    36    30    1
    14    36    35    1
    15   117   114    1
    16   117   119    1
    17    29    27    1
    18   137   138    1
    19    22    23    1
    20   114   115    1
    21   100    99    2
    22    23    24    1
    23    23    26    1
    24    30    31    1
    25   142   143    2
    26   142   141    1
    27   115   116    2
    28   138   140   am
    29   138   139    2
    30   140   141    1
    31    27    26    1
    32    27    28    1
    33    35    34    1
    34    33    32    2
    35    45    42    1
    36    24    25    2
    37    21    20    2
    38   141   144    1
    39    20    19    1
    40    99    98    1
    41    31    34    1
    42    31    32    1
    43    32    37   am
    44    42    41    1
    45    42    43    1
    46    19    18    1
    47    40    39    2
    48   134   133    1
    49    98   101    1
    50    98    97    1
    51    41    39   am
    52    44    43    2
    53    39    38    1
    54   121   122    1
    55   101   102    1
    56    37    38    1
    57    59    58    1
    58    43    47   am
    59    18    13   am
    60   126   125    1
    61   133   132    1
    62   133   135    1
    63   132   129    1
    64    58    57    1
    65    57    56    1
    66   125   122    1
    67   125   127    1
    68   102   104   am
    69   102   103    2
    70   128   129    1
    71   128   123   am
    72   122   123    1
    73    47    48    1
    74    14    13    2
    75    13    12    1
    76    56    55    1
    77   129   130    1
    78    16    15    1
    79   123   124    2
    80   130   131    2
    81    48    49    1
    82    12    15    1
    83    12    11    1
    84    51    49   am
    85    51    52    1
    86    15    17    1
    87    55    52    1
    88    49    50    2
    89    52    53    1
    90     4     3    2
    91    11     3   am
    92    94    93    1
    93    94    95    2
    94     3     2    1
    95    93    96    1
    96    93    92    1
    97    73    72    1
    98    90    89    2
    99    53    60   am
   100    53    54    2
   101     2     1    1
   102     2     5    1
   103    88    89    1
   104    88    87    1
   105    60    61    1
   106    89    91   am
   107    84    87    1
   108    84    85    1
   109    84    83    1
   110    72    71    1
   111    72    74    1
   112    71    68    1
   113    85    86    2
   114     5     6    1
   115    83    77   am
   116    65    64    1
   117    67    68    1
   118    67    62   am
   119    61    64    1
   120    61    62    1
   121    68    69    1
   122    69    70    2
   123    81    80   ar
   124    64    66    1
   125    62    63    2
   126    82    80   ar
   127     6     7   ar
   128     6     8   ar
   129    80    79    1
   130    77    76    1
   131    77    78    2
   132     7     9   ar
   133    76    79    1
   134    76    75    1
   135     8    10   ar
   136     9    10   ar
