@<TRIPOS>MOLECULE
tmp/6mb4B00.pdb
 181 170 0 0 0
SMALL
GASTEIGER

@<TRIPOS>ATOM
      1  N         43.6220   -5.6390   52.6340 N.3    59  TYR59      -0.1241
      2  CA        44.8000   -5.4510   51.7920 C.3    59  TYR59       0.1605
      3  C         44.3300   -4.9410   50.4350 C.2    59  TYR59       0.2264
      4  O         43.6370   -5.6550   49.7030 O.2    59  TYR59      -0.2867
      5  CB        45.5800   -6.7570   51.6530 C.3    59  TYR59       0.0534
      6  CG        46.7710   -6.6610   50.7210 C.ar   59  TYR59      -0.0201
      7  CD1       47.6810   -5.6180   50.8390 C.ar   59  TYR59      -0.0009
      8  CD2       46.9810   -7.6070   49.7190 C.ar   59  TYR59      -0.0009
      9  CE1       48.7680   -5.5130   49.9940 C.ar   59  TYR59       0.0417
     10  CE2       48.0720   -7.5130   48.8590 C.ar   59  TYR59       0.0417
     11  CZ        48.9590   -6.4600   49.0050 C.ar   59  TYR59       0.1957
     12  OH        50.0450   -6.3450   48.1720 O.3    59  TYR59      -0.2866
     13  N         46.4420   -3.1300   47.8820 N.3    61  ASP61      -0.1225
     14  CA        47.4030   -3.1520   46.7720 C.3    61  ASP61       0.1805
     15  C         46.9470   -2.0730   45.7830 C.2    61  ASP61       0.2597
     16  O         46.3140   -1.0840   46.1760 O.2    61  ASP61      -0.2718
     17  CB        47.5220   -4.5670   46.1970 C.3    61  ASP61       0.1424
     18  CG        48.7230   -4.7380   45.2710 C.2    61  ASP61       0.3668
     19  OD1       49.2110   -3.7230   44.7310 O.co2  61  ASP61      -0.2456
     20  OD2       49.1790   -5.8880   45.0910 O.co2  61  ASP61      -0.2456
     21  N         47.2590   -2.2200   44.5010 N.am   62  TRP62      -0.1976
     22  CA        46.6510   -1.3490   43.5100 C.3    62  TRP62       0.1640
     23  C         46.7220   -2.0270   42.1620 C.2    62  TRP62       0.2290
     24  O         47.6640   -2.7610   41.8610 O.2    62  TRP62      -0.2864
     25  CB        47.2940    0.0480   43.4440 C.3    62  TRP62       0.0576
     26  CG        48.6580    0.1650   42.8220 C.ar   62  TRP62       0.0006
     27  CD1       49.7720   -0.5710   43.1240 C.ar   62  TRP62       0.0946
     28  CD2       49.0700    1.1270   41.8320 C.ar   62  TRP62       0.0152
     29  NE1       50.8420   -0.1400   42.3680 N.ar   62  TRP62      -0.2442
     30  CE2       50.4410    0.9060   41.5760 C.ar   62  TRP62       0.0810
     31  CE3       48.4120    2.1480   41.1390 C.ar   62  TRP62       0.0012
     32  CZ2       51.1620    1.6630   40.6470 C.ar   62  TRP62       0.0191
     33  CZ3       49.1280    2.8970   40.2190 C.ar   62  TRP62       0.0001
     34  CH2       50.4880    2.6500   39.9800 C.ar   62  TRP62       0.0015
     35  N         47.6520   -2.0650   38.7160 N.3    64  ALA64      -0.1245
     36  CA        48.7210   -1.3070   38.0280 C.3    64  ALA64       0.1562
     37  C         49.2980   -2.1810   36.9110 C.2    64  ALA64       0.2260
     38  O         50.2190   -2.9730   37.1540 O.2    64  ALA64      -0.2867
     39  CB        49.8030   -0.8770   39.0070 C.3    64  ALA64       0.0290
     40  N         53.3500   -3.3190   34.9870 N.3    67  GLU67      -0.1245
     41  CA        54.5760   -4.0320   35.3580 C.3    67  GLU67       0.1567
     42  C         55.0720   -4.9550   34.2600 C.2    67  GLU67       0.2260
     43  O         56.2610   -5.2900   34.2480 O.2    67  GLU67      -0.2867
     44  CB        54.3580   -4.8190   36.6430 C.3    67  GLU67       0.0388
     45  CG        54.2220   -3.9570   37.8800 C.3    67  GLU67       0.1160
     46  CD        54.7050   -4.6620   39.1330 C.2    67  GLU67       0.3649
     47  OE1       55.0940   -5.8440   39.0440 O.co2  67  GLU67      -0.2457
     48  OE2       54.7140   -4.0310   40.2060 O.co2  67  GLU67      -0.2457
     49  N         43.3960   -3.9390   43.9360 N.3    95  ILE95      -0.1245
     50  CA        43.5940   -5.0520   43.0250 C.3    95  ILE95       0.1561
     51  C         42.4280   -6.0700   43.0600 C.2    95  ILE95       0.2260
     52  O         41.7420   -6.2270   44.0790 O.2    95  ILE95      -0.2867
     53  CB        44.9410   -5.7120   43.3740 C.3    95  ILE95       0.0252
     54  CG1       45.5170   -6.4230   42.1570 C.3    95  ILE95       0.0019
     55  CG2       44.8030   -6.6580   44.5950 C.3    95  ILE95       0.0019
     56  CD1       46.9820   -6.7670   42.2730 C.3    95  ILE95       0.0001
     57  N         43.0020   -9.4240   42.4770 N.3    97  ASP97      -0.1225
     58  CA        43.4710  -10.8070   42.5530 C.3    97  ASP97       0.1805
     59  C         42.7760  -11.6120   43.6560 C.2    97  ASP97       0.2597
     60  O         42.3620  -12.7620   43.4340 O.2    97  ASP97      -0.2718
     61  CB        44.9850  -10.8700   42.6970 C.3    97  ASP97       0.1424
     62  CG        45.6800  -10.3090   41.4820 C.2    97  ASP97       0.3668
     63  OD1       44.9770   -9.8770   40.5310 O.co2  97  ASP97      -0.2456
     64  OD2       46.9170  -10.2610   41.4880 O.co2  97  ASP97      -0.2456
     65  N         42.5900  -11.0140   44.8280 N.am   98  ASN98      -0.1974
     66  CA        42.0680  -11.7250   45.9830 C.3    98  ASN98       0.1688
     67  C         40.6170  -11.3770   46.3060 C.2    98  ASN98       0.2292
     68  O         40.2170  -11.4390   47.4720 O.2    98  ASN98      -0.2864
     69  CB        42.9880  -11.4950   47.1740 C.3    98  ASN98       0.1181
     70  CG        44.3540  -12.1360   46.9700 C.2    98  ASN98       0.2629
     71  OD1       44.4550  -13.3390   46.7070 O.2    98  ASN98      -0.2716
     72  ND2       45.4070  -11.3400   47.0810 N.am   98  ASN98      -0.0877
     73  N         51.7450   -0.6490   46.2500 N.3   118  GLY118     -0.1225
     74  CA        51.7210   -2.1010   46.2090 C.3   118  GLY118      0.1811
     75  C         51.3790   -2.7400   47.5380 C.2   118  GLY118      0.2280
     76  O         50.8640   -3.8620   47.5750 O.2   118  GLY118     -0.2866
     77  N         56.2370   -3.3790   53.9270 N.3   141  TYR141     -0.1241
     78  CA        55.7470   -4.4190   54.8210 C.3   141  TYR141      0.1605
     79  C         56.5400   -4.4710   56.1210 C.2   141  TYR141      0.2264
     80  O         56.3710   -5.4130   56.9030 O.2   141  TYR141     -0.2867
     81  CB        55.7740   -5.7820   54.1180 C.3   141  TYR141      0.0534
     82  CG        54.9720   -5.8090   52.8270 C.ar  141  TYR141     -0.0201
     83  CD1       55.5280   -5.3740   51.6260 C.ar  141  TYR141     -0.0009
     84  CD2       53.6540   -6.2590   52.8120 C.ar  141  TYR141     -0.0009
     85  CE1       54.7980   -5.3890   50.4500 C.ar  141  TYR141      0.0417
     86  CE2       52.9130   -6.2770   51.6350 C.ar  141  TYR141      0.0417
     87  CZ        53.4920   -5.8380   50.4570 C.ar  141  TYR141      0.1957
     88  OH        52.7650   -5.8490   49.2850 O.3   141  TYR141     -0.2866
     89  N         41.8480  -18.5130   51.0110 N.3   163  PRO163     -0.2116
     90  CA        42.9770  -19.4470   51.1430 C.3   163  PRO163      0.1372
     91  C         43.9910  -18.9420   52.1610 C.2   163  PRO163      0.2244
     92  O         44.3570  -17.7640   52.1680 O.2   163  PRO163     -0.2868
     93  CB        43.5640  -19.5100   49.7260 C.3   163  PRO163      0.0268
     94  CG        42.9500  -18.3750   48.9750 C.3   163  PRO163      0.0207
     95  CD        41.6340  -18.0840   49.6200 C.3   163  PRO163      0.0892
     96  N         47.0730  -19.1200   52.5840 N.3   165  ASP165     -0.1225
     97  CA        48.3380  -18.5400   52.1530 C.3   165  ASP165      0.1805
     98  C         48.2040  -17.0950   51.6810 C.2   165  ASP165      0.2598
     99  O         49.2160  -16.4920   51.3070 O.2   165  ASP165     -0.2718
    100  CB        48.9740  -19.4080   51.0580 C.3   165  ASP165      0.1424
    101  CG        48.1000  -19.5350   49.8210 C.2   165  ASP165      0.3668
    102  OD1       47.0380  -20.1980   49.8870 O.co2 165  ASP165     -0.2456
    103  OD2       48.4970  -19.0030   48.7690 O.co2 165  ASP165     -0.2456
    104  N         47.0000  -16.5210   51.6870 N.am  166  THR166     -0.1953
    105  CA        46.8160  -15.1140   51.3360 C.3   166  THR166      0.1897
    106  C         46.8390  -14.1880   52.5510 C.2   166  THR166      0.2313
    107  O         46.4540  -13.0210   52.4290 O.2   166  THR166     -0.2863
    108  CB        45.5080  -14.9080   50.5590 C.3   166  THR166      0.1794
    109  OG1       44.3900  -15.2390   51.3890 O.3   166  THR166     -0.2208
    110  CG2       45.4780  -15.7660   49.2840 C.3   166  THR166      0.0378
    111  N         48.1840  -11.6330   54.3160 N.3   168  THR168     -0.1218
    112  CA        49.2070  -10.6500   53.9500 C.3   168  THR168      0.1862
    113  C         50.1670  -10.3450   55.0970 C.2   168  THR168      0.2287
    114  O         51.3500  -10.0670   54.8600 O.2   168  THR168     -0.2866
    115  CB        48.5400   -9.3480   53.4840 C.3   168  THR168      0.1770
    116  OG1       47.5620   -9.6310   52.4760 O.3   168  THR168     -0.2211
    117  CG2       49.5810   -8.3680   52.9270 C.3   168  THR168      0.0375
    118  N         53.7880  -11.5800   55.3140 N.3   171  HIS171     -0.1241
    119  CA        54.8590  -10.8620   54.6240 C.3   171  HIS171      0.1621
    120  C         55.5860   -9.9170   55.5750 C.2   171  HIS171      0.2264
    121  O         56.7810   -9.6510   55.3960 O.2   171  HIS171     -0.2867
    122  CB        54.3050  -10.0840   53.4280 C.3   171  HIS171      0.0745
    123  CG        53.7780  -10.9490   52.3240 C.ar  171  HIS171      0.0817
    124  ND1       54.5200  -11.9560   51.7450 N.ar  171  HIS171     -0.2268
    125  CD2       52.5800  -10.9550   51.6920 C.ar  171  HIS171      0.1154
    126  CE1       53.8030  -12.5450   50.8050 C.ar  171  HIS171      0.1986
    127  NE2       52.6210  -11.9580   50.7540 N.ar  171  HIS171     -0.2212
    128  N         62.7420   -6.8960   45.5020 N.3   185  LYS185     -0.1245
    129  CA        62.0740   -6.3650   44.3220 C.3   185  LYS185      0.1561
    130  C         62.3590   -4.8740   44.2010 C.2   185  LYS185      0.2260
    131  O         62.2880   -4.1380   45.1910 O.2   185  LYS185     -0.2867
    132  CB        60.5590   -6.5870   44.3750 C.3   185  LYS185      0.0271
    133  CG        59.8210   -6.0220   43.1670 C.3   185  LYS185      0.0035
    134  CD        58.3130   -6.0690   43.3570 C.3   185  LYS185      0.0206
    135  CE        57.5920   -5.5200   42.1390 C.3   185  LYS185      0.1093
    136  NZ        56.1540   -5.2450   42.3950 N.3   185  LYS185     -0.1314
    137  N         61.2090   -1.6390   41.5540 N.3   187  ILE187     -0.1245
    138  CA        60.3670   -1.2380   40.4340 C.3   187  ILE187      0.1561
    139  C         60.0430    0.2460   40.5540 C.2   187  ILE187      0.2260
    140  O         59.8810    0.7780   41.6560 O.2   187  ILE187     -0.2867
    141  CB        59.0930   -2.1090   40.3440 C.3   187  ILE187      0.0252
    142  CG1       58.4030   -1.8930   38.9940 C.3   187  ILE187      0.0019
    143  CG2       58.1590   -1.8200   41.5090 C.3   187  ILE187      0.0019
    144  CD1       57.6640   -3.1040   38.4850 C.3   187  ILE187      0.0001
    145  N         61.6870   -3.2170   48.0150 N.3   204  GLU204     -0.1245
    146  CA        61.0960   -3.9760   49.1080 C.3   204  GLU204      0.1567
    147  C         61.5390   -5.4220   48.9530 C.2   204  GLU204      0.2260
    148  O         62.0400   -5.8260   47.9000 O.2   204  GLU204     -0.2867
    149  CB        59.5660   -3.8590   49.1090 C.3   204  GLU204      0.0388
    150  CG        58.9200   -4.5120   47.9040 C.3   204  GLU204      0.1160
    151  CD        57.4950   -4.0430   47.6500 C.2   204  GLU204      0.3649
    152  OE1       57.1070   -2.9660   48.1510 O.co2 204  GLU204     -0.2457
    153  OE2       56.7570   -4.7680   46.9510 O.co2 204  GLU204     -0.2457
    154  N         60.6890   -9.0000   48.0080 N.3   206  ASP206     -0.1225
    155  CA        59.7120   -9.4590   47.0260 C.3   206  ASP206      0.1805
    156  C         58.6360  -10.2930   47.7150 C.2   206  ASP206      0.2598
    157  O         58.9460  -11.2830   48.3870 O.2   206  ASP206     -0.2718
    158  CB        60.4010  -10.2560   45.9210 C.3   206  ASP206      0.1424
    159  CG        59.4710  -10.5650   44.7570 C.2   206  ASP206      0.3668
    160  OD1       58.3650   -9.9920   44.7050 O.co2 206  ASP206     -0.2456
    161  OD2       59.8450  -11.3800   43.8890 O.co2 206  ASP206     -0.2456
    162  N         57.3750   -9.8910   47.5570 N.am  207  THR207     -0.1939
    163  CA        56.2470  -10.6290   48.1120 C.3   207  THR207      0.2028
    164  C         55.5220  -11.4710   47.0730 C.2   207  THR207      0.2642
    165  O         54.5720  -12.1770   47.4220 O.2   207  THR207     -0.2714
    166  CB        55.2520   -9.6650   48.7760 C.3   207  THR207      0.1808
    167  OG1       54.6320   -8.8440   47.7770 O.3   207  THR207     -0.2208
    168  CG2       55.9670   -8.7690   49.7760 C.3   207  THR207      0.0379
    169  N         55.9460  -11.4210   45.8100 N.am  208  GLY208     -0.1954
    170  CA        55.3550  -12.2500   44.7800 C.3   208  GLY208      0.1869
    171  C         55.7600  -13.7010   44.8420 C.2   208  GLY208      0.2309
    172  O         55.1310  -14.5370   44.1880 O.2   208  GLY208     -0.2863
    173  N         55.4090  -22.0450   47.1250 N.3   217  GLU217     -0.1245
    174  CA        54.7130  -20.7720   46.9510 C.3   217  GLU217      0.1567
    175  C         53.6080  -20.5660   47.9860 C.2   217  GLU217      0.2260
    176  O         53.3360  -19.4280   48.3810 O.2   217  GLU217     -0.2867
    177  CB        54.1650  -20.6500   45.5190 C.3   217  GLU217      0.0388
    178  CG        52.8740  -21.3810   45.2480 C.3   217  GLU217      0.1160
    179  CD        51.6560  -20.5180   45.5420 C.2   217  GLU217      0.3649
    180  OE1       50.5460  -21.0800   45.6430 O.co2 217  GLU217     -0.2457
    181  OE2       51.8160  -19.2830   45.6900 O.co2 217  GLU217     -0.2457
@<TRIPOS>BOND
     1    43    42    2
     2    42    41    1
     3    40    41    1
     4    41    44    1
     5    44    45    1
     6    37    38    2
     7    37    36    1
     8    45    46    1
     9    36    35    1
    10    36    39    1
    11   144   142    1
    12   142   141    1
    13    47    46   ar
    14    46    48   ar
    15    34    33   ar
    16    34    32   ar
    17    33    31   ar
    18   141   138    1
    19   141   143    1
    20   138   139    1
    21   138   137    1
    22    63    62   ar
    23   139   140    2
    24    32    30   ar
    25    31    28   ar
    26    62    64   ar
    27    62    61    1
    28    30    28   ar
    29    30    29   ar
    30    28    26   ar
    31    24    23    2
    32   135   136    1
    33   135   134    1
    34    54    56    1
    35    54    53    1
    36    23    22    1
    37    29    27   ar
    38    57    58    1
    39    58    61    1
    40    58    59    1
    41    26    27   ar
    42    26    25    1
    43    50    51    1
    44    50    53    1
    45    50    49    1
    46    51    52    2
    47   133   134    1
    48   133   132    1
    49    53    55    1
    50    60    59    2
    51    25    22    1
    52    22    21    1
    53    59    65   am
    54   161   159   ar
    55   172   171    2
    56   130   129    1
    57   130   131    2
    58   129   132    1
    59   129   128    1
    60    21    15   am
    61   160   159   ar
    62    19    18   ar
    63   159   158    1
    64   170   171    1
    65   170   169    1
    66    65    66    1
    67    20    18   ar
    68   178   177    1
    69   178   179    1
    70    18    17    1
    71   177   174    1
    72   179   180   ar
    73   179   181   ar
    74    15    16    2
    75    15    14    1
    76   169   164   am
    77   158   155    1
    78    66    67    1
    79    66    69    1
    80    17    14    1
    81    74    73    1
    82    74    75    1
    83    67    68    2
    84    71    70    2
    85    14    13    1
    86   153   151   ar
    87   174   173    1
    88   174   175    1
    89    70    72   am
    90    70    69    1
    91   155   156    1
    92   155   154    1
    93   164   165    2
    94   164   163    1
    95    75    76    2
    96   162   156   am
    97   162   163    1
    98   151   150    1
    99   151   152   ar
   100   156   157    2
   101   167   166    1
   102   148   147    2
   103   150   149    1
   104   175   176    2
   105   145   146    1
   106   163   166    1
   107    12    11    1
   108   103   101   ar
   109   166   168    1
   110    10    11   ar
   111    10     8   ar
   112   147   146    1
   113    94    95    1
   114    94    93    1
   115    11     9   ar
   116   146   149    1
   117   110   108    1
   118    88    87    1
   119    95    89    1
   120     4     3    2
   121     8     6   ar
   122    93    90    1
   123   101   102   ar
   124   101   100    1
   125     9     7   ar
   126     3     2    1
   127    85    87   ar
   128    85    83   ar
   129    87    86   ar
   130   108   105    1
   131   108   109    1
   132     6     7   ar
   133     6     5    1
   134   127   126   ar
   135   127   125   ar
   136   126   124   ar
   137    89    90    1
   138   100    97    1
   139    90    91    1
   140    99    98    2
   141   105   104    1
   142   105   106    1
   143    83    82   ar
   144    86    84   ar
   145     5     2    1
   146    98   104   am
   147    98    97    1
   148   125   123   ar
   149   124   123   ar
   150     2     1    1
   151    97    96    1
   152    91    92    2
   153   123   122    1
   154   107   106    2
   155   116   115    1
   156    84    82   ar
   157    82    81    1
   158   117   115    1
   159   122   119    1
   160   115   112    1
   161    77    78    1
   162   112   111    1
   163   112   113    1
   164    81    78    1
   165   119   118    1
   166   119   120    1
   167    78    79    1
   168   114   113    2
   169   121   120    2
   170    79    80    2
