@<TRIPOS>MOLECULE
tmp/6mb6A00.pdb
 164 162 0 0 0
SMALL
GASTEIGER

@<TRIPOS>ATOM
      1  N         19.6120    1.6890   38.8610 N.3    26  HIS26      -0.1226
      2  CA        18.1760    1.8940   38.7200 C.3    26  HIS26       0.1752
      3  C         17.9420    3.3920   38.6080 C.2    26  HIS26       0.2596
      4  O         18.2280    4.1390   39.5500 O.2    26  HIS26      -0.2718
      5  CB        17.4060    1.3100   39.9040 C.3    26  HIS26       0.0759
      6  CG        17.5820   -0.1660   40.0700 C.ar   26  HIS26       0.0818
      7  ND1       16.8000   -1.0850   39.4050 N.ar   26  HIS26      -0.2268
      8  CD2       18.4500   -0.8840   40.8220 C.ar   26  HIS26       0.1154
      9  CE1       17.1790   -2.3060   39.7390 C.ar   26  HIS26       0.1986
     10  NE2       18.1770   -2.2120   40.5990 N.ar   26  HIS26      -0.2212
     11  N         17.4300    3.8310   37.4650 N.am   27  ALA27      -0.1966
     12  CA        17.3760    5.2480   37.1480 C.3    27  ALA27       0.1728
     13  C         15.9570    5.6870   36.8240 C.2    27  ALA27       0.2616
     14  O         15.1780    4.9350   36.2290 O.2    27  ALA27      -0.2715
     15  CB        18.2940    5.5830   35.9710 C.3    27  ALA27       0.0334
     16  N         15.6390    6.9110   37.2280 N.am   28  ALA28      -0.1963
     17  CA        14.4840    7.6530   36.7420 C.3    28  ALA28       0.1728
     18  C         15.0930    8.8050   35.9490 C.2    28  ALA28       0.2616
     19  O         15.3640    9.8790   36.4900 O.2    28  ALA28      -0.2715
     20  CB        13.5930    8.1330   37.8840 C.3    28  ALA28       0.0334
     21  N         15.3130    8.5600   34.6540 N.am   29  VAL29      -0.1963
     22  CA        16.1710    9.4210   33.8430 C.3    29  VAL29       0.1727
     23  C         15.6580   10.8550   33.8110 C.2    29  VAL29       0.2616
     24  O         16.4530   11.8040   33.7750 O.2    29  VAL29      -0.2715
     25  CB        16.3150    8.8230   32.4280 C.3    29  VAL29       0.0290
     26  CG1       17.0470    9.7800   31.5020 C.3    29  VAL29       0.0023
     27  CG2       17.0640    7.5010   32.5040 C.3    29  VAL29       0.0023
     28  N         14.3370   11.0460   33.8460 N.am   30  SER30      -0.1950
     29  CA        13.7870   12.3940   33.7600 C.3    30  SER30       0.1924
     30  C         14.1960   13.2640   34.9410 C.2    30  SER30       0.2314
     31  O         14.2300   14.4930   34.8100 O.2    30  SER30      -0.2863
     32  CB        12.2620   12.3350   33.6770 C.3    30  SER30       0.2116
     33  OG        11.7190   11.6740   34.8090 O.3    30  SER30      -0.2180
     34  N         21.0020   12.5930   26.1460 N.3    38  GLY38      -0.1210
     35  CA        19.9100   11.8150   26.6890 C.3    38  GLY38       0.1940
     36  C         20.3570   10.8190   27.7410 C.2    38  GLY38       0.2453
     37  O         21.3000   11.0680   28.4980 O.2    38  GLY38      -0.2732
     38  N         19.6930    9.6590   27.8020 N.am   39  PRO39      -0.2728
     39  CA        20.1190    8.6200   28.7560 C.3    39  PRO39       0.1401
     40  C         21.5170    8.0990   28.4920 C.2    39  PRO39       0.2269
     41  O         22.1560    7.5810   29.4160 O.2    39  PRO39      -0.2865
     42  CB        19.0650    7.5190   28.5730 C.3    39  PRO39       0.0296
     43  CG        17.8760    8.2230   28.0040 C.3    39  PRO39       0.0237
     44  CD        18.4500    9.2870   27.1080 C.3    39  PRO39       0.0939
     45  N         18.9290   -4.1160   35.4180 N.3    59  TYR59      -0.1241
     46  CA        17.9260   -5.1730   35.3830 C.3    59  TYR59       0.1605
     47  C         17.1190   -5.0620   34.0930 C.2    59  TYR59       0.2264
     48  O         16.4680   -4.0400   33.8490 O.2    59  TYR59      -0.2867
     49  CB        17.0240   -5.0890   36.6120 C.3    59  TYR59       0.0534
     50  CG        15.9320   -6.1300   36.6570 C.ar   59  TYR59      -0.0201
     51  CD1       16.1810   -7.4450   36.2810 C.ar   59  TYR59      -0.0009
     52  CD2       14.6590   -5.8070   37.1080 C.ar   59  TYR59      -0.0009
     53  CE1       15.1820   -8.4020   36.3280 C.ar   59  TYR59       0.0417
     54  CE2       13.6580   -6.7540   37.1610 C.ar   59  TYR59       0.0417
     55  CZ        13.9240   -8.0500   36.7710 C.ar   59  TYR59       0.1957
     56  OH        12.9240   -8.9920   36.8260 O.3    59  TYR59      -0.2866
     57  N          9.4940   -2.6250   29.7150 N.3    96  ARG96      -0.1231
     58  CA         9.2790   -1.1880   29.6620 C.3    96  ARG96       0.1694
     59  C          9.0060   -0.6140   31.0380 C.2    96  ARG96       0.2592
     60  O          9.1670    0.5940   31.2410 O.2    96  ARG96      -0.2718
     61  CB         8.0770   -0.9030   28.7590 C.3    96  ARG96       0.0321
     62  CG         8.2070    0.2130   27.7640 C.3    96  ARG96       0.0489
     63  CD         6.8180    0.5710   27.2740 C.3    96  ARG96       0.2205
     64  NE         6.6930    1.9820   26.9380 N.pl3  96  ARG96      -0.0865
     65  CZ         5.5910    2.5290   26.4400 C.cat  96  ARG96       0.5346
     66  NH1        4.5220    1.7750   26.2200 N.pl3  96  ARG96       0.1354
     67  NH2        5.5600    3.8230   26.1520 N.pl3  96  ARG96       0.1354
     68  N          8.6560   -1.4720   31.9920 N.am   97  ASP97      -0.1960
     69  CA         8.4380   -1.0450   33.3630 C.3    97  ASP97       0.1840
     70  C          9.7310   -0.5860   34.0200 C.2    97  ASP97       0.2622
     71  O          9.6810    0.2130   34.9620 O.2    97  ASP97      -0.2715
     72  CB         7.7760   -2.1680   34.1560 C.3    97  ASP97       0.1450
     73  CG         6.5290   -2.7010   33.4680 C.2    97  ASP97       0.3671
     74  OD1        6.0320   -2.0380   32.5310 O.co2  97  ASP97      -0.2456
     75  OD2        6.0400   -3.7770   33.8670 O.co2  97  ASP97      -0.2456
     76  N         10.8810   -1.0740   33.5520 N.am   98  ASN98      -0.1958
     77  CA        12.1570   -0.7520   34.1760 C.3    98  ASN98       0.1819
     78  C         12.7610    0.5390   33.6700 C.2    98  ASN98       0.2622
     79  O         13.9050    0.8440   34.0170 O.2    98  ASN98      -0.2715
     80  CB        13.1950   -1.8620   33.9600 C.3    98  ASN98       0.1195
     81  CG        12.8240   -3.1600   34.6250 C.2    98  ASN98       0.2630
     82  OD1       13.5880   -4.1240   34.5810 O.2    98  ASN98      -0.2716
     83  ND2       11.6440   -3.2100   35.2240 N.am   98  ASN98      -0.0877
     84  N         12.0680    1.2820   32.8230 N.am   99  GLY99      -0.1940
     85  CA        12.5990    2.5620   32.4230 C.3    99  GLY99       0.2014
     86  C         13.3780    2.4780   31.1310 C.2    99  GLY99       0.2639
     87  O         13.6050    1.4120   30.5580 O.2    99  GLY99      -0.2714
     88  N         13.8210    3.6460   30.6800 N.am  100  VAL100     -0.1963
     89  CA        14.5290    3.7100   29.4130 C.3   100  VAL100      0.1727
     90  C         15.9610    3.1830   29.5660 C.2   100  VAL100      0.2616
     91  O         16.5230    2.6210   28.6190 O.2   100  VAL100     -0.2715
     92  CB        14.4950    5.1610   28.9070 C.3   100  VAL100      0.0290
     93  CG1       15.1370    6.0900   29.9230 C.3   100  VAL100      0.0023
     94  CG2       15.1860    5.2930   27.5840 C.3   100  VAL100      0.0023
     95  N         16.5570    3.3200   30.7560 N.am  101  LEU101     -0.1964
     96  CA        17.9880    3.0590   30.9060 C.3   101  LEU101      0.1713
     97  C         18.3920    1.6070   30.6600 C.2   101  LEU101      0.2458
     98  O         19.3940    1.3850   29.9570 O.2   101  LEU101     -0.2730
     99  CB        18.4600    3.5300   32.2840 C.3   101  LEU101      0.0310
    100  CG        19.9740    3.7300   32.3110 C.3   101  LEU101      0.0022
    101  CD1       20.3320    4.9150   31.4310 C.3   101  LEU101      0.0001
    102  CD2       20.4920    3.9270   33.7190 C.3   101  LEU101      0.0001
    103  N         17.7080    0.5860   31.2000 N.am  102  PRO102     -0.2727
    104  CA        18.1390   -0.7920   30.8970 C.3   102  PRO102      0.1402
    105  C         18.1400   -1.1080   29.4120 C.2   102  PRO102      0.2269
    106  O         19.0540   -1.7870   28.9280 O.2   102  PRO102     -0.2865
    107  CB        17.1290   -1.6540   31.6660 C.3   102  PRO102      0.0296
    108  CG        16.6500   -0.7800   32.7600 C.3   102  PRO102      0.0237
    109  CD        16.6110    0.6030   32.1850 C.3   102  PRO102      0.0939
    110  N         18.4460    1.1590   26.9290 N.3   104  PHE104     -0.1241
    111  CA        19.5430    1.9260   26.3430 C.3   104  PHE104      0.1605
    112  C         20.8890    1.2830   26.6400 C.2   104  PHE104      0.2264
    113  O         21.7920    1.3000   25.7960 O.2   104  PHE104     -0.2867
    114  CB        19.5030    3.3720   26.8400 C.3   104  PHE104      0.0534
    115  CG        18.7440    4.2990   25.9330 C.ar  104  PHE104     -0.0203
    116  CD1       17.4650    3.9840   25.5170 C.ar  104  PHE104     -0.0042
    117  CD2       19.3030    5.4980   25.5180 C.ar  104  PHE104     -0.0042
    118  CE1       16.7630    4.8370   24.6800 C.ar  104  PHE104     -0.0003
    119  CE2       18.6030    6.3590   24.6910 C.ar  104  PHE104     -0.0003
    120  CZ        17.3310    6.0280   24.2740 C.ar  104  PHE104     -0.0000
    121  N         15.5650    6.8580   41.1780 N.3   162  ALA162     -0.1231
    122  CA        14.5170    5.8700   41.0230 C.3   162  ALA162      0.1679
    123  C         13.8850    5.5640   42.3770 C.2   162  ALA162      0.2434
    124  O         14.5510    5.6480   43.4120 O.2   162  ALA162     -0.2733
    125  CB        15.0780    4.5900   40.4120 C.3   162  ALA162      0.0304
    126  N         12.5990    5.2180   42.3950 N.am  163  PRO163     -0.2729
    127  CA        11.9680    4.8100   43.6550 C.3   163  PRO163      0.1401
    128  C         12.6960    3.6220   44.2680 C.2   163  PRO163      0.2269
    129  O         13.0980    2.6890   43.5700 O.2   163  PRO163     -0.2865
    130  CB        10.5360    4.4470   43.2420 C.3   163  PRO163      0.0296
    131  CG        10.5640    4.3210   41.7500 C.3   163  PRO163      0.0237
    132  CD        11.6560    5.2100   41.2660 C.3   163  PRO163      0.0939
    133  N         11.8860    1.1170   45.9420 N.3   165  ASP165     -0.1225
    134  CA        11.3060   -0.2160   45.8760 C.3   165  ASP165      0.1805
    135  C         11.6980   -0.9740   44.6140 C.2   165  ASP165      0.2598
    136  O         11.4100   -2.1720   44.5210 O.2   165  ASP165     -0.2718
    137  CB         9.7800   -0.1280   45.9610 C.3   165  ASP165      0.1424
    138  CG         9.1850    0.7290   44.8600 C.2   165  ASP165      0.3668
    139  OD1        8.9630    0.2020   43.7490 O.co2 165  ASP165     -0.2456
    140  OD2        8.9460    1.9320   45.1010 O.co2 165  ASP165     -0.2456
    141  N         12.3420   -0.3190   43.6490 N.am  166  THR166     -0.1953
    142  CA        12.7830   -0.9740   42.4230 C.3   166  THR166      0.1897
    143  C         14.1600   -1.6160   42.5560 C.2   166  THR166      0.2313
    144  O         14.7460   -2.0070   41.5420 O.2   166  THR166     -0.2863
    145  CB        12.7880    0.0170   41.2530 C.3   166  THR166      0.1794
    146  OG1       13.6610    1.1140   41.5460 O.3   166  THR166     -0.2208
    147  CG2       11.3850    0.5490   41.0010 C.3   166  THR166      0.0378
    148  N         16.2270   -4.2770   42.5580 N.3   168  THR168     -0.1218
    149  CA        16.0190   -5.6760   42.1900 C.3   168  THR168      0.1862
    150  C         16.8020   -6.6380   43.0770 C.2   168  THR168      0.2287
    151  O         16.3440   -7.7590   43.3230 O.2   168  THR168     -0.2866
    152  CB        16.4030   -5.8830   40.7240 C.3   168  THR168      0.1770
    153  OG1       15.6940   -4.9430   39.9110 O.3   168  THR168     -0.2211
    154  CG2       16.0550   -7.2910   40.2630 C.3   168  THR168      0.0375
    155  N         15.2490   -8.8810   45.7250 N.3   171  HIS171     -0.1241
    156  CA        14.6430  -10.1660   45.3850 C.3   171  HIS171      0.1621
    157  C         15.5950  -11.3190   45.6710 C.2   171  HIS171      0.2264
    158  O         15.1500  -12.4340   45.9660 O.2   171  HIS171     -0.2867
    159  CB        14.2230  -10.1930   43.9150 C.3   171  HIS171      0.0745
    160  CG        13.0540   -9.3150   43.6010 C.ar  171  HIS171      0.0817
    161  ND1       11.8720   -9.3690   44.3060 N.ar  171  HIS171     -0.2268
    162  CD2       12.8820   -8.3650   42.6510 C.ar  171  HIS171      0.1154
    163  CE1       11.0220   -8.4890   43.8070 C.ar  171  HIS171      0.1986
    164  NE2       11.6110   -7.8640   42.8030 N.ar  171  HIS171     -0.2212
@<TRIPOS>BOND
     1   120   118   ar
     2   120   119   ar
     3   118   116   ar
     4   119   117   ar
     5   116   115   ar
     6   117   115   ar
     7   113   112    2
     8   115   114    1
     9    34    35    1
    10    67    65    1
    11    66    65    1
    12   111   112    1
    13   111   114    1
    14   111   110    1
    15    65    64    2
    16    35    36    1
    17    64    63    1
    18    44    38    1
    19    44    43    1
    20    63    62    1
    21    94    92    1
    22    36    38   am
    23    36    37    2
    24    62    61    1
    25    38    39    1
    26    43    42    1
    27    40    39    1
    28    40    41    2
    29    42    39    1
    30    91    90    2
    31    61    58    1
    32    92    89    1
    33    92    93    1
    34   106   105    2
    35   105   104    1
    36    89    90    1
    37    89    88    1
    38    90    95   am
    39    58    57    1
    40    58    59    1
    41    98    97    2
    42    87    86    2
    43    97    96    1
    44    97   103   am
    45    88    86   am
    46    95    96    1
    47   104   103    1
    48   104   107    1
    49    96    99    1
    50    59    60    2
    51    59    68   am
    52    86    85    1
    53   103   109    1
    54   101   100    1
    55    26    25    1
    56   107   108    1
    57    68    69    1
    58   109   108    1
    59    99   100    1
    60   100   102    1
    61    85    84    1
    62    25    27    1
    63    25    22    1
    64    74    73   ar
    65    84    78   am
    66    69    70    1
    67    69    72    1
    68    73    75   ar
    69    73    72    1
    70    76    70   am
    71    76    77    1
    72    78    79    2
    73    78    77    1
    74    32    29    1
    75    32    33    1
    76    29    28    1
    77    29    30    1
    78    24    23    2
    79    23    22    1
    80    23    28   am
    81    22    21    1
    82    48    47    2
    83    80    77    1
    84    80    81    1
    85    70    71    2
    86    47    46    1
    87    82    81    2
    88    81    83   am
    89    21    18   am
    90    31    30    2
    91    46    45    1
    92    46    49    1
    93    18    19    2
    94    18    17    1
    95    15    12    1
    96    14    13    2
    97    51    53   ar
    98    51    50   ar
    99    53    55   ar
   100    49    50    1
   101    50    52   ar
   102    17    16    1
   103    17    20    1
   104    55    56    1
   105    55    54   ar
   106    13    12    1
   107    13    16   am
   108    52    54   ar
   109    12    11    1
   110    11     3   am
   111     3     2    1
   112     3     4    2
   113     2     1    1
   114     2     5    1
   115     7     9   ar
   116     7     6   ar
   117     9    10   ar
   118     5     6    1
   119   153   152    1
   120     6     8   ar
   121   154   152    1
   122   125   122    1
   123    10     8   ar
   124   152   149    1
   125   147   145    1
   126   122   121    1
   127   122   123    1
   128   145   146    1
   129   145   142    1
   130   132   131    1
   131   132   126    1
   132   144   143    2
   133   131   130    1
   134   149   148    1
   135   149   150    1
   136   123   126   am
   137   123   124    2
   138   126   127    1
   139   142   143    1
   140   142   141    1
   141   162   164   ar
   142   162   160   ar
   143   164   163   ar
   144   150   151    2
   145   130   127    1
   146   129   128    2
   147   160   159    1
   148   160   161   ar
   149   141   135   am
   150   127   128    1
   151   139   138   ar
   152   163   161   ar
   153   159   156    1
   154   136   135    2
   155   135   134    1
   156   138   140   ar
   157   138   137    1
   158   156   157    1
   159   156   155    1
   160   157   158    2
   161   134   133    1
   162   134   137    1
