@<TRIPOS>MOLECULE
tmp/6mb9D02.pdb
 166 155 0 0 0
SMALL
GASTEIGER

@<TRIPOS>ATOM
      1  N        -12.6080   11.4750   -4.2420 N.3    59  TYR59      -0.1241
      2  CA       -12.6610   12.3960   -3.1120 C.3    59  TYR59       0.1605
      3  C        -12.5580   11.6070   -1.8120 C.2    59  TYR59       0.2264
      4  O        -13.4300   10.7870   -1.5050 O.2    59  TYR59      -0.2867
      5  CB       -13.9460   13.2240   -3.1570 C.3    59  TYR59       0.0534
      6  CG       -14.1080   14.2060   -2.0130 C.ar   59  TYR59      -0.0201
      7  CD1      -13.0460   14.9910   -1.5830 C.ar   59  TYR59      -0.0009
      8  CD2      -15.3330   14.3600   -1.3790 C.ar   59  TYR59      -0.0009
      9  CE1      -13.1980   15.8880   -0.5410 C.ar   59  TYR59       0.0417
     10  CE2      -15.4970   15.2510   -0.3410 C.ar   59  TYR59       0.0417
     11  CZ       -14.4290   16.0160    0.0770 C.ar   59  TYR59       0.1957
     12  OH       -14.5980   16.9090    1.1150 O.3    59  TYR59      -0.2866
     13  N        -11.6640   13.0120    1.5940 N.3    61  ASP61      -0.1239
     14  CA       -12.0660   13.6910    2.8250 C.3    61  ASP61       0.1674
     15  C        -11.3160   13.0170    3.9690 C.2    61  ASP61       0.2266
     16  O        -10.2500   12.4370    3.7410 O.2    61  ASP61      -0.2867
     17  CB       -13.5890   13.6350    3.0110 C.3    61  ASP61       0.1410
     18  CG       -14.1230   14.7080    3.9590 C.2    61  ASP61       0.3668
     19  OD1      -13.3670   15.1830    4.8360 O.co2  61  ASP61      -0.2456
     20  OD2      -15.3160   15.0630    3.8300 O.co2  61  ASP61      -0.2456
     21  N        -15.5500   16.8340   15.1230 N.3    67  GLU67      -0.1245
     22  CA       -16.2660   18.0450   14.7440 C.3    67  GLU67       0.1567
     23  C        -17.4750   18.2690   15.6380 C.2    67  GLU67       0.2260
     24  O        -17.8950   19.4130   15.8430 O.2    67  GLU67      -0.2867
     25  CB       -16.6880   17.9410   13.2800 C.3    67  GLU67       0.0388
     26  CG       -15.5960   18.3530   12.3150 C.3    67  GLU67       0.1160
     27  CD       -16.1160   18.8170   10.9720 C.2    67  GLU67       0.3649
     28  OE1      -17.3220   19.1150   10.8640 O.co2  67  GLU67      -0.2457
     29  OE2      -15.3100   18.8780   10.0190 O.co2  67  GLU67      -0.2457
     30  N        -13.3450    9.3900    4.4540 N.3    95  ILE95      -0.1245
     31  CA       -14.6110    9.4660    5.1680 C.3    95  ILE95       0.1561
     32  C        -15.5530    8.3880    4.6450 C.2    95  ILE95       0.2260
     33  O        -15.5940    8.1020    3.4410 O.2    95  ILE95      -0.2867
     34  CB       -15.2120   10.8790    5.0440 C.3    95  ILE95       0.0252
     35  CG1      -16.1460   11.1720    6.2180 C.3    95  ILE95       0.0019
     36  CG2      -15.9430   11.0680    3.7260 C.3    95  ILE95       0.0019
     37  CD1      -16.7510   12.5500    6.1730 C.3    95  ILE95       0.0001
     38  N        -18.7650    8.4170    4.5220 N.3    97  ASP97      -0.1225
     39  CA       -19.9110    8.9390    3.7830 C.3    97  ASP97       0.1805
     40  C        -19.7010    8.8430    2.2790 C.2    97  ASP97       0.2597
     41  O        -20.6660    8.6690    1.5270 O.2    97  ASP97      -0.2718
     42  CB       -20.1680   10.3980    4.1580 C.3    97  ASP97       0.1424
     43  CG       -20.2220   10.6170    5.6490 C.2    97  ASP97       0.3668
     44  OD1      -20.1720   11.7900    6.0790 O.co2  97  ASP97      -0.2456
     45  OD2      -20.2730    9.6160    6.3920 O.co2  97  ASP97      -0.2456
     46  N        -18.4530    8.9500    1.8250 N.am   98  ASN98      -0.1974
     47  CA       -18.1360    8.9280    0.4040 C.3    98  ASN98       0.1688
     48  C        -18.1810    7.5320   -0.2000 C.2    98  ASN98       0.2292
     49  O        -18.0110    7.3940   -1.4150 O.2    98  ASN98      -0.2864
     50  CB       -16.7560    9.5410    0.1690 C.3    98  ASN98       0.1181
     51  CG       -16.7400   11.0280    0.4100 C.2    98  ASN98       0.2629
     52  OD1      -17.7440   11.6130    0.8280 O.2    98  ASN98      -0.2716
     53  ND2      -15.6020   11.6560    0.1450 N.am   98  ASN98      -0.0877
     54  N         -9.9630   17.8070    5.0090 N.3   118  GLY118     -0.1225
     55  CA       -11.3620   17.7960    4.6180 C.3   118  GLY118      0.1811
     56  C        -11.5760   17.7830    3.1190 C.2   118  GLY118      0.2280
     57  O        -12.5780   17.2450    2.6380 O.2   118  GLY118     -0.2866
     58  N        -10.7680   24.0910   -1.8460 N.3   141  TYR141     -0.1241
     59  CA       -11.5520   23.7950   -3.0370 C.3   141  TYR141      0.1605
     60  C        -11.3500   24.8510   -4.1110 C.2   141  TYR141      0.2264
     61  O        -12.0550   24.8390   -5.1240 O.2   141  TYR141     -0.2867
     62  CB       -13.0420   23.6730   -2.6870 C.3   141  TYR141      0.0534
     63  CG       -13.3320   22.6290   -1.6270 C.ar  141  TYR141     -0.0201
     64  CD1      -13.6890   21.3340   -1.9830 C.ar  141  TYR141     -0.0009
     65  CD2      -13.2250   22.9300   -0.2740 C.ar  141  TYR141     -0.0009
     66  CE1      -13.9430   20.3710   -1.0260 C.ar  141  TYR141      0.0417
     67  CE2      -13.4770   21.9720    0.6910 C.ar  141  TYR141      0.0417
     68  CZ       -13.8340   20.6930    0.3080 C.ar  141  TYR141      0.1957
     69  OH       -14.0870   19.7340    1.2630 O.3   141  TYR141     -0.2866
     70  N        -25.6400   14.8860   -6.9930 N.3   165  ASP165     -0.1225
     71  CA       -25.2840   15.9480   -6.0600 C.3   165  ASP165      0.1805
     72  C        -23.9990   15.6750   -5.2870 C.2   165  ASP165      0.2598
     73  O        -23.5650   16.5400   -4.5200 O.2   165  ASP165     -0.2718
     74  CB       -26.4370   16.2000   -5.0850 C.3   165  ASP165      0.1424
     75  CG       -26.7810   14.9800   -4.2590 C.2   165  ASP165      0.3668
     76  OD1      -26.1020   14.7410   -3.2370 O.co2 165  ASP165     -0.2456
     77  OD2      -27.7300   14.2580   -4.6360 O.co2 165  ASP165     -0.2456
     78  N        -23.3790   14.5120   -5.4600 N.am  166  THR166     -0.1953
     79  CA       -22.1330   14.2020   -4.7740 C.3   166  THR166      0.1897
     80  C        -20.9110   14.5800   -5.5980 C.2   166  THR166      0.2313
     81  O        -19.7890   14.2150   -5.2340 O.2   166  THR166     -0.2863
     82  CB       -22.0850   12.7170   -4.4040 C.3   166  THR166      0.1794
     83  OG1      -22.0110   11.9230   -5.5960 O.3   166  THR166     -0.2208
     84  CG2      -23.3220   12.3300   -3.6050 C.3   166  THR166      0.0378
     85  N        -18.0530   16.3850   -6.2870 N.3   168  THR168     -0.1218
     86  CA       -17.2300   17.2820   -5.4770 C.3   168  THR168      0.1862
     87  C        -16.7100   18.4690   -6.2790 C.2   168  THR168      0.2287
     88  O        -16.5160   19.5550   -5.7220 O.2   168  THR168     -0.2866
     89  CB       -16.0570   16.5080   -4.8730 C.3   168  THR168      0.1770
     90  OG1      -16.5470   15.3170   -4.2480 O.3   168  THR168     -0.2211
     91  CG2      -15.3290   17.3550   -3.8330 C.3   168  THR168      0.0375
     92  N        -18.0980   21.9970   -5.9160 N.3   171  HIS171     -0.1241
     93  CA       -17.6620   22.8690   -4.8290 C.3   171  HIS171      0.1621
     94  C        -16.5580   23.8110   -5.2930 C.2   171  HIS171      0.2264
     95  O        -16.4310   24.9250   -4.7720 O.2   171  HIS171     -0.2867
     96  CB       -17.1910   22.0400   -3.6350 C.3   171  HIS171      0.0745
     97  CG       -18.2960   21.3180   -2.9290 C.ar  171  HIS171      0.0817
     98  ND1      -19.4290   21.9560   -2.4720 N.ar  171  HIS171     -0.2268
     99  CD2      -18.4460   20.0110   -2.6110 C.ar  171  HIS171      0.1154
    100  CE1      -20.2290   21.0730   -1.9010 C.ar  171  HIS171      0.1986
    101  NE2      -19.6560   19.8850   -1.9720 N.ar  171  HIS171     -0.2212
    102  N        -16.7900   28.3560    6.5760 N.3   185  LYS185     -0.1245
    103  CA       -16.5330   27.3620    7.6080 C.3   185  LYS185      0.1561
    104  C        -15.1590   27.6080    8.2140 C.2   185  LYS185      0.2260
    105  O        -14.1760   27.7950    7.4860 O.2   185  LYS185     -0.2867
    106  CB       -16.6260   25.9420    7.0480 C.3   185  LYS185      0.0271
    107  CG       -16.3150   24.8530    8.0650 C.3   185  LYS185      0.0035
    108  CD       -16.8760   23.5120    7.6120 C.3   185  LYS185      0.0206
    109  CE       -16.6300   22.4070    8.6310 C.3   185  LYS185      0.1093
    110  NZ       -15.4090   21.6310    8.3100 N.3   185  LYS185     -0.1314
    111  N        -12.5100   28.0940    4.9080 N.3   204  GLU204     -0.1245
    112  CA       -12.9300   27.7350    3.5640 C.3   204  GLU204      0.1567
    113  C        -14.4080   28.0670    3.4390 C.2   204  GLU204      0.2260
    114  O        -15.1000   28.2750    4.4390 O.2   204  GLU204     -0.2867
    115  CB       -12.6880   26.2500    3.2760 C.3   204  GLU204      0.0388
    116  CG       -13.6190   25.3300    4.0640 C.3   204  GLU204      0.1160
    117  CD       -13.0770   23.9190    4.2210 C.2   204  GLU204      0.3649
    118  OE1      -11.8890   23.6960    3.9080 O.co2 204  GLU204     -0.2457
    119  OE2      -13.8430   23.0360    4.6660 O.co2 204  GLU204     -0.2457
    120  N        -18.0590   26.9940    3.1560 N.3   206  ASP206     -0.1225
    121  CA       -18.6990   25.8280    3.7530 C.3   206  ASP206      0.1805
    122  C        -19.2240   24.9070    2.6590 C.2   206  ASP206      0.2598
    123  O        -20.0540   25.3150    1.8400 O.2   206  ASP206     -0.2718
    124  CB       -19.8320   26.2690    4.6790 C.3   206  ASP206      0.1424
    125  CG       -20.4480   25.1150    5.4550 C.2   206  ASP206      0.3668
    126  OD1      -21.6190   25.2390    5.8660 O.co2 206  ASP206     -0.2456
    127  OD2      -19.7840   24.0710    5.6240 O.co2 206  ASP206     -0.2456
    128  N        -18.7300   23.6690    2.6330 N.am  207  THR207     -0.1939
    129  CA       -19.1710   22.6740    1.6660 C.3   207  THR207      0.2028
    130  C        -20.1420   21.6580    2.2560 C.2   207  THR207      0.2643
    131  O        -20.6120   20.7780    1.5290 O.2   207  THR207     -0.2714
    132  CB       -17.9630   21.9440    1.0620 C.3   207  THR207      0.1808
    133  OG1      -17.2330   21.2740    2.0970 O.3   207  THR207     -0.2208
    134  CG2      -17.0430   22.9340    0.3570 C.3   207  THR207      0.0379
    135  N        -20.4690   21.7670    3.5450 N.am  208  GLY208     -0.1939
    136  CA       -21.4770   20.9060    4.1360 C.3   208  GLY208      0.2014
    137  C        -22.9010   21.2650    3.7800 C.2   208  GLY208      0.2638
    138  O        -23.8190   20.4860    4.0540 O.2   208  GLY208     -0.2714
    139  N        -23.0970   22.4280    3.1760 N.am  209  ASP209     -0.1971
    140  CA       -24.4010   22.8680    2.7050 C.3   209  ASP209      0.1709
    141  C        -24.1710   23.6750    1.4380 C.2   209  ASP209      0.2293
    142  O        -23.0240   23.9600    1.0760 O.2   209  ASP209     -0.2864
    143  CB       -25.1280   23.6970    3.7720 C.3   209  ASP209      0.1436
    144  CG       -26.2600   22.9280    4.4360 C.2   209  ASP209      0.3671
    145  OD1      -26.8110   22.0020    3.7980 O.co2 209  ASP209     -0.2456
    146  OD2      -26.5950   23.2450    5.5970 O.co2 209  ASP209     -0.2456
    147  N        -30.4150   21.1650   -0.7010 N.3   217  GLU217     -0.1245
    148  CA       -29.1930   20.4470   -0.3450 C.3   217  GLU217      0.1567
    149  C        -28.5910   19.7350   -1.5500 C.2   217  GLU217      0.2260
    150  O        -27.3680   19.7480   -1.7420 O.2   217  GLU217     -0.2867
    151  CB       -29.4780   19.4490    0.7770 C.3   217  GLU217      0.0388
    152  CG       -28.3170   19.2700    1.7300 C.3   217  GLU217      0.1160
    153  CD       -28.6300   18.3240    2.8690 C.2   217  GLU217      0.3649
    154  OE1      -28.0420   17.2190    2.9010 O.co2 217  GLU217     -0.2457
    155  OE2      -29.4650   18.6830    3.7290 O.co2 217  GLU217     -0.2457
    156  N        -26.8540   20.4310   -6.5460 N.3   220  PHE220     -0.1241
    157  CA       -25.8500   20.0590   -7.5370 C.3   220  PHE220      0.1605
    158  C        -26.4520   19.1700   -8.6170 C.2   220  PHE220      0.2264
    159  O        -26.1050   19.2950   -9.7980 O.2   220  PHE220     -0.2867
    160  CB       -24.6710   19.3530   -6.8660 C.3   220  PHE220      0.0534
    161  CG       -23.6520   20.2870   -6.2740 C.ar  220  PHE220     -0.0203
    162  CD1      -23.7860   21.6610   -6.4040 C.ar  220  PHE220     -0.0042
    163  CD2      -22.5550   19.7850   -5.5890 C.ar  220  PHE220     -0.0042
    164  CE1      -22.8460   22.5150   -5.8600 C.ar  220  PHE220     -0.0003
    165  CE2      -21.6140   20.6350   -5.0390 C.ar  220  PHE220     -0.0003
    166  CZ       -21.7610   22.0040   -5.1740 C.ar  220  PHE220     -0.0000
@<TRIPOS>BOND
     1   159   158    2
     2   158   157    1
     3   157   160    1
     4   157   156    1
     5    70    71    1
     6   160   161    1
     7   162   161   ar
     8   162   164   ar
     9    85    86    1
    10    87    88    2
    11    87    86    1
    12   161   163   ar
    13    71    72    1
    14    71    74    1
    15    92    93    1
    16   164   166   ar
    17    80    81    2
    18    80    79    1
    19    83    82    1
    20   163   165   ar
    21    86    89    1
    22    78    72   am
    23    78    79    1
    24    94    93    1
    25    94    95    2
    26    72    73    2
    27   166   165   ar
    28    61    60    2
    29    74    75    1
    30    89    90    1
    31    89    91    1
    32    93    96    1
    33    79    82    1
    34    77    75   ar
    35    82    84    1
    36    75    76   ar
    37     1     2    1
    38    60    59    1
    39    96    97    1
    40     5     2    1
    41     5     6    1
    42     2     3    1
    43    59    62    1
    44    59    58    1
    45    97    99   ar
    46    97    98   ar
    47    62    63    1
    48    99   101   ar
    49    98   100   ar
    50     6     7   ar
    51     6     8   ar
    52    64    63   ar
    53    64    66   ar
    54   101   100   ar
    55     3     4    2
    56   150   149    2
    57    63    65   ar
    58     7     9   ar
    59   149   148    1
    60    49    48    2
    61     8    10   ar
    62    66    68   ar
    63   147   148    1
    64     9    11   ar
    65   148   151    1
    66    10    11   ar
    67    65    67   ar
    68    48    47    1
    69    11    12    1
    70    53    51   am
    71    50    47    1
    72    50    51    1
    73    68    67   ar
    74    68    69    1
    75   134   132    1
    76    47    46    1
    77    51    52    2
    78   151   152    1
    79   132   129    1
    80   132   133    1
    81   142   141    2
    82   141   140    1
    83    41    40    2
    84   131   130    2
    85    13    14    1
    86   129   130    1
    87   129   128    1
    88   152   153    1
    89    46    40   am
    90   123   122    2
    91   130   135   am
    92    40    39    1
    93   128   122   am
    94    57    56    2
    95   122   121    1
    96   140   139    1
    97   140   143    1
    98    14    17    1
    99    14    15    1
   100   153   154   ar
   101   153   155   ar
   102    17    18    1
   103    56    55    1
   104   120   121    1
   105   139   137   am
   106   115   112    1
   107   115   116    1
   108   113   112    1
   109   113   114    2
   110    33    32    2
   111   135   136    1
   112   112   111    1
   113    36    34    1
   114    16    15    2
   115   121   124    1
   116   143   144    1
   117   137   138    2
   118   137   136    1
   119    39    42    1
   120    39    38    1
   121   145   144   ar
   122    20    18   ar
   123   118   117   ar
   124    18    19   ar
   125   116   117    1
   126    42    43    1
   127   117   119   ar
   128   144   146   ar
   129    30    31    1
   130    55    54    1
   131    32    31    1
   132   124   125    1
   133    34    31    1
   134    34    35    1
   135   125   127   ar
   136   125   126   ar
   137    43    44   ar
   138    43    45   ar
   139    37    35    1
   140   102   103    1
   141   106   103    1
   142   106   107    1
   143   105   104    2
   144   103   104    1
   145   108   107    1
   146   108   109    1
   147   110   109    1
   148    29    27   ar
   149    28    27   ar
   150    27    26    1
   151    26    25    1
   152    25    22    1
   153    22    21    1
   154    22    23    1
   155    23    24    2
