@<TRIPOS>MOLECULE
tmp/6mb9B00.pdb
 109 106 0 0 0
SMALL
GASTEIGER

@<TRIPOS>ATOM
      1  N         -0.3260  -10.7540   -1.4130 N.3    89  PRO89      -0.2102
      2  CA        -0.3400  -10.5280    0.0440 C.3    89  PRO89       0.1504
      3  C         -0.3600   -9.0610    0.4360 C.2    89  PRO89       0.2576
      4  O         -0.8290   -8.7330    1.5320 O.2    89  PRO89      -0.2718
      5  CB         0.9420  -11.2280    0.5220 C.3    89  PRO89       0.0282
      6  CG         1.7880  -11.3670   -0.7040 C.3    89  PRO89       0.0208
      7  CD         0.8230  -11.5730   -1.8280 C.3    89  PRO89       0.0893
      8  N          0.0990   -8.1650   -0.4320 N.am   90  GLN90      -0.1966
      9  CA         0.1440   -6.7470   -0.1120 C.3    90  GLN90       0.1733
     10  C         -1.0960   -5.9940   -0.5750 C.2    90  GLN90       0.2616
     11  O         -1.4190   -4.9460   -0.0020 O.2    90  GLN90      -0.2715
     12  CB         1.3800   -6.1200   -0.7690 C.3    90  GLN90       0.0408
     13  CG         1.4780   -4.6130   -0.6530 C.3    90  GLN90       0.0908
     14  CD         2.6780   -4.0640   -1.3830 C.2    90  GLN90       0.2608
     15  OE1        3.3110   -4.7720   -2.1710 O.2    90  GLN90      -0.2717
     16  NE2        2.9830   -2.7900   -1.1560 N.am   90  GLN90      -0.0878
     17  N         -1.8250   -6.5320   -1.5530 N.am   91  ARG91      -0.1977
     18  CA        -2.9520   -5.8440   -2.1680 C.3    91  ARG91       0.1597
     19  C         -4.2920   -6.5390   -1.9830 C.2    91  ARG91       0.2287
     20  O         -5.3220   -5.8660   -2.0230 O.2    91  ARG91      -0.2864
     21  CB        -2.6900   -5.6660   -3.6700 C.3    91  ARG91       0.0334
     22  CG        -1.4550   -4.8240   -3.9660 C.3    91  ARG91       0.0492
     23  CD        -1.0080   -4.9510   -5.4150 C.3    91  ARG91       0.2205
     24  NE        -1.2620   -3.7510   -6.2050 N.pl3  91  ARG91      -0.0865
     25  CZ        -0.3110   -2.9610   -6.6930 C.cat  91  ARG91       0.5346
     26  NH1        0.9670   -3.2240   -6.4550 N.pl3  91  ARG91       0.1354
     27  NH2       -0.6390   -1.8960   -7.4080 N.pl3  91  ARG91       0.1354
     28  N         -4.8610   -4.5810    8.3150 N.3   106  ARG106     -0.1245
     29  CA        -4.0090   -4.9240    7.1800 C.3   106  ARG106      0.1563
     30  C         -3.4860   -3.6780    6.4800 C.2   106  ARG106      0.2260
     31  O         -2.3370   -3.6470    6.0180 O.2   106  ARG106     -0.2867
     32  CB        -4.7840   -5.7930    6.1930 C.3   106  ARG106      0.0307
     33  CG        -3.9710   -6.2420    4.9950 C.3   106  ARG106      0.0489
     34  CD        -4.8640   -6.8300    3.9240 C.3   106  ARG106      0.2205
     35  NE        -5.5930   -5.8010    3.1870 N.pl3 106  ARG106     -0.0865
     36  CZ        -5.0820   -5.1240    2.1660 C.cat 106  ARG106      0.5346
     37  NH1       -3.8420   -5.3690    1.7700 N.pl3 106  ARG106      0.1354
     38  NH2       -5.8050   -4.2070    1.5410 N.pl3 106  ARG106      0.1354
     39  N          2.9000   -0.6930    8.0790 N.3   110  GLY110     -0.1210
     40  CA         3.7160   -1.5030    8.9600 C.3   110  GLY110      0.1956
     41  C          3.1670   -2.8860    9.2200 C.2   110  GLY110      0.2613
     42  O          3.8920   -3.7310    9.7610 O.2   110  GLY110     -0.2717
     43  N          1.9170   -3.1490    8.8510 N.am  111  THR111     -0.1938
     44  CA         1.3270   -4.4610    9.0590 C.3   111  THR111      0.2028
     45  C          1.7500   -5.4130    7.9500 C.2   111  THR111      0.2642
     46  O          1.7740   -5.0490    6.7720 O.2   111  THR111     -0.2714
     47  CB        -0.1980   -4.3580    9.1040 C.3   111  THR111      0.1808
     48  OG1       -0.5850   -3.4380   10.1320 O.3   111  THR111     -0.2208
     49  CG2       -0.8290   -5.7130    9.3780 C.3   111  THR111      0.0379
     50  N          2.0470   -6.6470    8.3330 N.am  112  LEU112     -0.1963
     51  CA         2.4240   -7.6840    7.3920 C.3   112  LEU112      0.1728
     52  C          1.3190   -8.7280    7.3120 C.2   112  LEU112      0.2616
     53  O          0.5000   -8.8640    8.2240 O.2   112  LEU112     -0.2715
     54  CB         3.7490   -8.3320    7.8040 C.3   112  LEU112      0.0311
     55  CG         4.9110   -7.3430    7.9550 C.3   112  LEU112      0.0022
     56  CD1        6.1870   -8.0610    8.3580 C.3   112  LEU112      0.0001
     57  CD2        5.1200   -6.5170    6.7010 C.3   112  LEU112      0.0001
     58  N          1.2800   -9.4370    6.1870 N.am  113  ARG113     -0.1977
     59  CA         0.2370  -10.4160    5.9100 C.3   113  ARG113      0.1597
     60  C          0.8770  -11.6970    5.3960 C.2   113  ARG113      0.2287
     61  O          1.7150  -11.6520    4.4910 O.2   113  ARG113     -0.2864
     62  CB        -0.7630   -9.8460    4.8980 C.3   113  ARG113      0.0334
     63  CG        -2.0900  -10.5740    4.8280 C.3   113  ARG113      0.0492
     64  CD        -2.2340  -11.3330    3.5270 C.3   113  ARG113      0.2205
     65  NE        -3.6370  -11.6160    3.2280 N.pl3 113  ARG113     -0.0865
     66  CZ        -4.4290  -10.7850    2.5600 C.cat 113  ARG113      0.5346
     67  NH1       -3.9550   -9.6280    2.1240 N.pl3 113  ARG113      0.1354
     68  NH2       -5.6900  -11.1100    2.3210 N.pl3 113  ARG113      0.1354
     69  N          1.3750  -15.5820    3.7200 N.3   115  GLY115     -0.1225
     70  CA         1.2640  -15.9560    2.3200 C.3   115  GLY115      0.1811
     71  C          0.1780  -16.9420    1.9360 C.2   115  GLY115      0.2280
     72  O         -0.1380  -17.0750    0.7500 O.2   115  GLY115     -0.2866
     73  N          4.3900  -13.7630   10.0690 N.3   132  THR132     -0.1203
     74  CA         3.9110  -13.8210    8.6960 C.3   132  THR132      0.1994
     75  C          4.8790  -14.5290    7.7570 C.2   132  THR132      0.2618
     76  O          4.6140  -14.5950    6.5540 O.2   132  THR132     -0.2717
     77  CB         3.6280  -12.4060    8.1770 C.3   132  THR132      0.1784
     78  OG1        4.7770  -11.5760    8.3930 O.3   132  THR132     -0.2211
     79  CG2        2.4260  -11.8020    8.9020 C.3   132  THR132      0.0376
     80  N          5.9870  -15.0560    8.2720 N.am  133  ALA133     -0.1965
     81  CA         6.9870  -15.7060    7.4400 C.3   133  ALA133      0.1728
     82  C          6.6280  -17.1690    7.2070 C.2   133  ALA133      0.2616
     83  O          6.1510  -17.8580    8.1140 O.2   133  ALA133     -0.2715
     84  CB         8.3690  -15.6130    8.0870 C.3   133  ALA133      0.0334
     85  N          6.8300  -17.6190    5.9660 N.am  134  ASP134     -0.1957
     86  CA         6.8130  -19.0380    5.5980 C.3   134  ASP134      0.1840
     87  C          5.5130  -19.7340    6.0030 C.2   134  ASP134      0.2622
     88  O          5.5260  -20.8210    6.5850 O.2   134  ASP134     -0.2715
     89  CB         8.0160  -19.7600    6.2050 C.3   134  ASP134      0.1450
     90  CG         9.2990  -18.9880    6.0330 C.2   134  ASP134      0.3671
     91  OD1        9.9510  -18.6960    7.0570 O.co2 134  ASP134     -0.2456
     92  OD2        9.6430  -18.6480    4.8810 O.co2 134  ASP134     -0.2456
     93  N          4.3870  -19.1220    5.6680 N.am  135  HIS135     -0.1973
     94  CA         3.0960  -19.7520    5.9400 C.3   135  HIS135      0.1656
     95  C          2.8920  -20.9110    4.9720 C.2   135  HIS135      0.2291
     96  O          2.7840  -20.6740    3.7610 O.2   135  HIS135     -0.2864
     97  CB         1.9640  -18.7340    5.8040 C.3   135  HIS135      0.0771
     98  CG         0.6590  -19.1950    6.3760 C.ar  135  HIS135      0.0820
     99  ND1       -0.3660  -18.3250    6.6820 N.ar  135  HIS135     -0.2267
    100  CD2        0.2130  -20.4310    6.7040 C.ar  135  HIS135      0.1154
    101  CE1       -1.3890  -19.0060    7.1680 C.ar  135  HIS135      0.1986
    102  NE2       -1.0620  -20.2860    7.1940 N.ar  135  HIS135     -0.2212
    103  N          5.5520  -11.9130  -10.4540 N.3   194  PRO194     -0.2116
    104  CA         6.1130  -11.0120  -11.4770 C.3   194  PRO194      0.1372
    105  C          5.9700  -11.5280  -12.9010 C.2   194  PRO194      0.2244
    106  O          5.9950  -10.7220  -13.8390 O.2   194  PRO194     -0.2868
    107  CB         7.5900  -10.9000  -11.0730 C.3   194  PRO194      0.0268
    108  CG         7.6060  -11.1870   -9.6180 C.3   194  PRO194      0.0207
    109  CD         6.5130  -12.1840   -9.3700 C.3   194  PRO194      0.0892
@<TRIPOS>BOND
     1   106   105    2
     2   105   104    1
     3   104   107    1
     4   104   103    1
     5   107   108    1
     6   103   109    1
     7   108   109    1
     8    27    25    1
     9    25    26    1
    10    25    24    2
    11    24    23    1
    12    23    22    1
    13    22    21    1
    14    21    18    1
    15    15    14    2
    16    18    19    1
    17    18    17    1
    18    20    19    2
    19     7     1    1
    20     7     6    1
    21    17    10   am
    22     1     2    1
    23    14    16   am
    24    14    13    1
    25    12    13    1
    26    12     9    1
    27     6     5    1
    28    10     9    1
    29    10    11    2
    30     8     9    1
    31     8     3   am
    32     2     3    1
    33     2     5    1
    34     3     4    2
    35    72    71    2
    36    38    36    1
    37    37    36    1
    38    71    70    1
    39    67    66    1
    40    36    35    2
    41    70    69    1
    42    68    66    1
    43    66    65    2
    44    35    34    1
    45    65    64    1
    46    64    63    1
    47    96    95    2
    48    34    33    1
    49    61    60    2
    50    63    62    1
    51    92    90   ar
    52    62    59    1
    53    95    94    1
    54    33    32    1
    55    60    59    1
    56    86    85    1
    57    86    87    1
    58    86    89    1
    59    93    94    1
    60    93    87   am
    61    97    94    1
    62    97    98    1
    63    59    58    1
    64    85    82   am
    65    87    88    2
    66    31    30    2
    67    90    89    1
    68    90    91   ar
    69    58    52   am
    70    32    29    1
    71    98    99   ar
    72    98   100   ar
    73    30    29    1
    74    76    75    2
    75    99   101   ar
    76    57    55    1
    77   100   102   ar
    78    46    45    2
    79   101   102   ar
    80    29    28    1
    81    82    81    1
    82    82    83    2
    83    52    51    1
    84    52    53    2
    85    51    54    1
    86    51    50    1
    87    81    84    1
    88    81    80    1
    89    75    80   am
    90    75    74    1
    91    54    55    1
    92    45    50   am
    93    45    44    1
    94    55    56    1
    95    39    40    1
    96    77    78    1
    97    77    74    1
    98    77    79    1
    99    74    73    1
   100    43    44    1
   101    43    41   am
   102    40    41    1
   103    44    47    1
   104    47    49    1
   105    47    48    1
   106    41    42    2
