@<TRIPOS>MOLECULE
tmp/6mbkB00.pdb
 196 196 0 0 0
SMALL
GASTEIGER

@<TRIPOS>ATOM
      1  N         22.8720   -0.5170  -45.1140 N.3    55  ARG55      -0.1245
      2  CA        23.7870   -1.0220  -44.0940 C.3    55  ARG55       0.1563
      3  C         25.1290   -1.4910  -44.6600 C.2    55  ARG55       0.2260
      4  O         26.1830   -1.1900  -44.1000 O.2    55  ARG55      -0.2867
      5  CB        23.1290   -2.1560  -43.3040 C.3    55  ARG55       0.0307
      6  CG        23.5490   -2.2200  -41.8440 C.3    55  ARG55       0.0489
      7  CD        23.2740   -3.5920  -41.2500 C.3    55  ARG55       0.2205
      8  NE        24.1490   -3.8830  -40.1180 N.pl3  55  ARG55      -0.0865
      9  CZ        24.0320   -4.9540  -39.3400 C.cat  55  ARG55       0.5346
     10  NH1       23.0740   -5.8420  -39.5690 N.pl3  55  ARG55       0.1354
     11  NH2       24.8730   -5.1380  -38.3310 N.pl3  55  ARG55       0.1354
     12  N         19.7510  -16.6740  -41.7770 N.3    83  GLU83      -0.1231
     13  CA        19.4340  -17.1230  -40.4270 C.3    83  GLU83       0.1699
     14  C         19.9250  -16.1650  -39.3490 C.2    83  GLU83       0.2592
     15  O         19.2210  -15.9360  -38.3560 O.2    83  GLU83      -0.2718
     16  CB        20.0180  -18.5390  -40.2350 C.3    83  GLU83       0.0402
     17  CG        19.7930  -19.0980  -38.8230 C.3    83  GLU83       0.1161
     18  CD        18.3200  -19.3000  -38.5140 C.2    83  GLU83       0.3649
     19  OE1       17.5580  -19.5950  -39.4610 O.co2  83  GLU83      -0.2457
     20  OE2       17.9350  -19.1510  -37.3330 O.co2  83  GLU83      -0.2457
     21  N         21.1550  -15.6550  -39.4670 N.am   84  GLU84      -0.1966
     22  CA        21.7140  -14.8710  -38.4140 C.3    84  GLU84       0.1733
     23  C         21.7640  -13.3830  -38.7220 C.2    84  GLU84       0.2617
     24  O         22.0830  -12.5950  -37.8210 O.2    84  GLU84      -0.2715
     25  CB        23.1320  -15.3990  -38.1020 C.3    84  GLU84       0.0429
     26  CG        23.1800  -16.8930  -37.7640 C.3    84  GLU84       0.1163
     27  CD        23.5200  -17.7920  -38.9300 C.2    84  GLU84       0.3649
     28  OE1       23.5920  -17.3330  -40.1100 O.co2  84  GLU84      -0.2457
     29  OE2       23.7040  -19.0250  -38.7050 O.co2  84  GLU84      -0.2457
     30  N         21.4920  -12.9850  -39.9590 N.am   85  GLY85      -0.1940
     31  CA        21.7020  -11.5990  -40.3330 C.3    85  GLY85       0.2014
     32  C         23.1080  -11.4400  -40.8700 C.2    85  GLY85       0.2638
     33  O         23.7620  -12.4220  -41.2800 O.2    85  GLY85      -0.2714
     34  N         23.5940  -10.1920  -40.8460 N.am   86  PHE86      -0.1973
     35  CA        24.9720   -9.9810  -41.2660 C.3    86  PHE86       0.1639
     36  C         25.9230  -10.7230  -40.3280 C.2    86  PHE86       0.2290
     37  O         25.6720  -10.8890  -39.1480 O.2    86  PHE86      -0.2864
     38  CB        25.2990   -8.5150  -41.2910 C.3    86  PHE86       0.0560
     39  CG        24.8510   -7.8300  -42.5760 C.ar   86  PHE86      -0.0200
     40  CD1       23.5860   -7.3020  -42.6830 C.ar   86  PHE86      -0.0042
     41  CD2       25.7100   -7.7600  -43.6730 C.ar   86  PHE86      -0.0042
     42  CE1       23.1710   -6.6600  -43.8440 C.ar   86  PHE86      -0.0003
     43  CE2       25.3130   -7.1050  -44.8420 C.ar   86  PHE86      -0.0003
     44  CZ        24.0370   -6.5570  -44.8980 C.ar   86  PHE86      -0.0000
     45  N         22.8220   -2.5580  -36.8240 N.3   160  PRO160     -0.2116
     46  CA        21.4460   -2.7710  -37.2780 C.3   160  PRO160      0.1372
     47  C         20.5850   -1.5740  -36.8940 C.2   160  PRO160      0.2244
     48  O         20.9410   -0.7950  -36.0070 O.2   160  PRO160     -0.2868
     49  CB        21.0060   -4.0280  -36.5170 C.3   160  PRO160      0.0268
     50  CG        22.3180   -4.6580  -35.9690 C.3   160  PRO160      0.0207
     51  CD        23.2470   -3.5370  -35.7850 C.3   160  PRO160      0.0892
     52  N         16.0040   -4.7480  -33.9850 N.3   163  TYR163     -0.1227
     53  CA        16.4420   -5.9690  -33.3120 C.3   163  TYR163      0.1736
     54  C         15.2290   -6.8520  -33.0640 C.2   163  TYR163      0.2595
     55  O         14.0990   -6.4430  -33.2860 O.2   163  TYR163     -0.2718
     56  CB        17.1760   -5.6620  -31.9970 C.3   163  TYR163      0.0548
     57  CG        18.4060   -4.8060  -32.1630 C.ar  163  TYR163     -0.0200
     58  CD1       18.3400   -3.4360  -32.1560 C.ar  163  TYR163     -0.0009
     59  CD2       19.6430   -5.3930  -32.3910 C.ar  163  TYR163     -0.0009
     60  CE1       19.4720   -2.6460  -32.3120 C.ar  163  TYR163      0.0417
     61  CE2       20.7570   -4.6250  -32.5860 C.ar  163  TYR163      0.0417
     62  CZ        20.6890   -3.2880  -32.5750 C.ar  163  TYR163      0.1957
     63  OH        21.8160   -2.5520  -32.7950 O.3   163  TYR163     -0.2866
     64  N         15.4870   -8.1010  -32.6550 N.am  164  ASP164     -0.1974
     65  CA        14.4520   -9.0350  -32.2550 C.3   164  ASP164      0.1709
     66  C         14.4390   -9.2510  -30.7380 C.2   164  ASP164      0.2293
     67  O         13.9980  -10.3120  -30.2990 O.2   164  ASP164     -0.2864
     68  CB        14.6110  -10.3840  -32.9450 C.3   164  ASP164      0.1436
     69  CG        14.2990  -10.3410  -34.4210 C.2   164  ASP164      0.3671
     70  OD1       13.4910   -9.4650  -34.8260 O.co2 164  ASP164     -0.2456
     71  OD2       14.8840  -11.1880  -35.1750 O.co2 164  ASP164     -0.2456
     72  N         22.4460   -6.6130  -26.8460 N.3   233  THR233     -0.1203
     73  CA        22.7770   -7.6930  -27.7620 C.3   233  THR233      0.1994
     74  C         24.2740   -7.7580  -28.0680 C.2   233  THR233      0.2617
     75  O         24.6990   -8.7240  -28.7330 O.2   233  THR233     -0.2717
     76  CB        21.9850   -7.6060  -29.0840 C.3   233  THR233      0.1784
     77  OG1       22.2880   -6.3860  -29.7580 O.3   233  THR233     -0.2211
     78  CG2       20.4660   -7.6870  -28.8360 C.3   233  THR233      0.0376
     79  N         25.0700   -6.7640  -27.7010 N.am  234  ARG234     -0.1979
     80  CA        26.4730   -6.8500  -28.0930 C.3   234  ARG234      0.1597
     81  C         27.4980   -6.3220  -27.1080 C.2   234  ARG234      0.2287
     82  O         28.6810   -6.2350  -27.4380 O.2   234  ARG234     -0.2864
     83  CB        26.6780   -6.1720  -29.4530 C.3   234  ARG234      0.0334
     84  CG        25.4200   -6.0940  -30.3030 C.3   234  ARG234      0.0492
     85  CD        25.4980   -4.9480  -31.2990 C.3   234  ARG234      0.2205
     86  NE        26.5330   -5.1660  -32.3050 N.pl3 234  ARG234     -0.0865
     87  CZ        26.2930   -5.5740  -33.5470 C.cat 234  ARG234      0.5346
     88  NH1       25.0480   -5.8100  -33.9410 N.pl3 234  ARG234      0.1354
     89  NH2       27.2960   -5.7470  -34.3960 N.pl3 234  ARG234      0.1354
     90  N         32.3400   -7.8330  -33.0070 N.3   255  ASP255     -0.1225
     91  CA        30.9670   -8.1530  -32.5660 C.3   255  ASP255      0.1805
     92  C         30.0340   -8.4850  -33.7070 C.2   255  ASP255      0.2598
     93  O         28.8790   -8.8520  -33.4560 O.2   255  ASP255     -0.2718
     94  CB        30.4060   -7.0310  -31.6740 C.3   255  ASP255      0.1424
     95  CG        30.0270   -5.7400  -32.4050 C.2   255  ASP255      0.3668
     96  OD1       30.1280   -5.6480  -33.6250 O.co2 255  ASP255     -0.2456
     97  OD2       29.5610   -4.7810  -31.7040 O.co2 255  ASP255     -0.2456
     98  N         30.5170   -8.4820  -34.9650 N.am  256  MET256     -0.1965
     99  CA        29.6950   -8.9420  -36.0660 C.3   256  MET256      0.1736
    100  C         29.6320  -10.4650  -36.1580 C.2   256  MET256      0.2617
    101  O         28.8280  -10.9980  -36.9440 O.2   256  MET256     -0.2715
    102  CB        30.2460   -8.3710  -37.3890 C.3   256  MET256      0.0427
    103  CG        30.1040   -6.8660  -37.5360 C.3   256  MET256      0.0599
    104  SD        28.3500   -6.3640  -37.7000 S.3   256  MET256     -0.1393
    105  CE        27.7160   -7.5480  -38.8880 C.3   256  MET256      0.0692
    106  N         30.5070  -11.1850  -35.4280 N.am  257  CYS257     -0.1954
    107  CA        30.4210  -12.6400  -35.4600 C.3   257  CYS257      0.1843
    108  C         29.1450  -13.1460  -34.7970 C.2   257  CYS257      0.2625
    109  O         28.8030  -12.7150  -33.6930 O.2   257  CYS257     -0.2714
    110  CB        31.5810  -13.2780  -34.7350 C.3   257  CYS257      0.0997
    111  SG        33.2380  -12.8920  -35.4320 S.3   257  CYS257     -0.0797
    112  N         28.5010  -14.0960  -35.4420 N.am  258  ASN258     -0.1958
    113  CA        27.3210  -14.7930  -34.9360 C.3   258  ASN258      0.1819
    114  C         27.7510  -16.0050  -34.0910 C.2   258  ASN258      0.2621
    115  O         28.9380  -16.3960  -34.0420 O.2   258  ASN258     -0.2715
    116  CB        26.3950  -15.1880  -36.0720 C.3   258  ASN258      0.1195
    117  CG        25.7700  -13.9390  -36.7410 C.2   258  ASN258      0.2630
    118  OD1       25.2430  -13.0610  -36.0490 O.2   258  ASN258     -0.2716
    119  ND2       25.9780  -13.7860  -38.0630 N.am  258  ASN258     -0.0877
    120  N         26.7700  -16.5670  -33.4040 N.am  259  HIS259     -0.1973
    121  CA        26.9800  -17.5590  -32.3610 C.3   259  HIS259      0.1656
    122  C         26.8330  -18.9900  -32.8580 C.2   259  HIS259      0.2291
    123  O         25.9330  -19.3140  -33.6590 O.2   259  HIS259     -0.2864
    124  CB        25.9740  -17.3270  -31.2140 C.3   259  HIS259      0.0771
    125  CG        25.9700  -18.4110  -30.1710 C.ar  259  HIS259      0.0820
    126  ND1       26.8870  -18.4610  -29.1560 N.ar  259  HIS259     -0.2267
    127  CD2       25.1380  -19.4690  -29.9820 C.ar  259  HIS259      0.1154
    128  CE1       26.6360  -19.5110  -28.3860 C.ar  259  HIS259      0.1986
    129  NE2       25.5800  -20.1410  -28.8630 N.ar  259  HIS259     -0.2212
    130  N         32.0580  -18.2100  -36.9310 N.3   290  TYR290     -0.1241
    131  CA        31.2490  -18.1130  -35.7240 C.3   290  TYR290      0.1605
    132  C         32.1560  -18.0330  -34.5080 C.2   290  TYR290      0.2264
    133  O         33.3500  -18.3900  -34.5550 O.2   290  TYR290     -0.2867
    134  CB        30.3420  -19.3300  -35.5580 C.3   290  TYR290      0.0534
    135  CG        29.2690  -19.5610  -36.5540 C.ar  290  TYR290     -0.0201
    136  CD1       28.0280  -18.9570  -36.4090 C.ar  290  TYR290     -0.0009
    137  CD2       29.4780  -20.3840  -37.6720 C.ar  290  TYR290     -0.0009
    138  CE1       27.0070  -19.2030  -37.3240 C.ar  290  TYR290      0.0417
    139  CE2       28.4610  -20.6100  -38.5730 C.ar  290  TYR290      0.0417
    140  CZ        27.2320  -20.0120  -38.3920 C.ar  290  TYR290      0.1957
    141  OH        26.1950  -20.2520  -39.2890 O.3   290  TYR290     -0.2866
    142  N         29.2250  -17.2920  -27.8540 N.3   293  TYR293     -0.1241
    143  CA        28.9350  -16.1050  -27.0640 C.3   293  TYR293      0.1605
    144  C         29.1320  -16.3470  -25.5730 C.2   293  TYR293      0.2264
    145  O         29.5840  -15.4540  -24.8730 O.2   293  TYR293     -0.2867
    146  CB        27.5050  -15.6420  -27.3220 C.3   293  TYR293      0.0534
    147  CG        27.2840  -14.9440  -28.6410 C.ar  293  TYR293     -0.0201
    148  CD1       28.2950  -14.8450  -29.5860 C.ar  293  TYR293     -0.0009
    149  CD2       26.0340  -14.3990  -28.9320 C.ar  293  TYR293     -0.0009
    150  CE1       28.0580  -14.2020  -30.8250 C.ar  293  TYR293      0.0417
    151  CE2       25.7840  -13.7530  -30.1420 C.ar  293  TYR293      0.0417
    152  CZ        26.8190  -13.6210  -31.0510 C.ar  293  TYR293      0.1957
    153  OH        26.5690  -12.9300  -32.2140 O.3   293  TYR293     -0.2866
    154  N         19.7380  -11.2170  -26.1260 N.3   305  SER305     -0.1202
    155  CA        20.4200  -11.2410  -27.4280 C.3   305  SER305      0.2020
    156  C         19.4790  -11.2330  -28.6170 C.2   305  SER305      0.2619
    157  O         19.9530  -11.2150  -29.7650 O.2   305  SER305     -0.2717
    158  CB        21.3450  -12.4630  -27.5590 C.3   305  SER305      0.2103
    159  OG        22.5850  -12.1970  -26.9370 O.3   305  SER305     -0.2182
    160  N         18.1730  -11.2930  -28.4060 N.am  306  GLY306     -0.1942
    161  CA        17.2520  -11.2870  -29.5350 C.3   306  GLY306      0.2014
    162  C         17.3360  -12.4460  -30.4970 C.2   306  GLY306      0.2639
    163  O         17.0670  -12.2690  -31.6900 O.2   306  GLY306     -0.2714
    164  N         17.6660  -13.6500  -30.0320 N.am  307  PHE307     -0.1959
    165  CA        17.4930  -14.7960  -30.8840 C.3   307  PHE307      0.1771
    166  C         17.3160  -16.0670  -30.0700 C.2   307  PHE307      0.2620
    167  O         17.6520  -16.1230  -28.8950 O.2   307  PHE307     -0.2715
    168  CB        18.6740  -14.9890  -31.8730 C.3   307  PHE307      0.0574
    169  CG        19.9800  -15.4250  -31.2400 C.ar  307  PHE307     -0.0200
    170  CD1       20.7800  -14.5330  -30.5330 C.ar  307  PHE307     -0.0042
    171  CD2       20.4320  -16.7290  -31.4120 C.ar  307  PHE307     -0.0042
    172  CE1       21.9960  -14.9410  -29.9690 C.ar  307  PHE307     -0.0003
    173  CE2       21.6710  -17.1310  -30.8730 C.ar  307  PHE307     -0.0003
    174  CZ        22.4220  -16.2540  -30.1370 C.ar  307  PHE307     -0.0000
    175  N         16.6890  -17.0550  -30.7010 N.am  308  PHE308     -0.1960
    176  CA        16.5830  -18.4010  -30.1330 C.3   308  PHE308      0.1771
    177  C         17.6090  -19.3010  -30.8180 C.2   308  PHE308      0.2619
    178  O         17.6820  -19.3180  -32.0520 O.2   308  PHE308     -0.2715
    179  CB        15.1890  -18.9720  -30.3070 C.3   308  PHE308      0.0574
    180  CG        15.0270  -20.3470  -29.6880 C.ar  308  PHE308     -0.0200
    181  CD1       15.3640  -21.4740  -30.3830 C.ar  308  PHE308     -0.0042
    182  CD2       14.5650  -20.4870  -28.3900 C.ar  308  PHE308     -0.0042
    183  CE1       15.2280  -22.7320  -29.8030 C.ar  308  PHE308     -0.0003
    184  CE2       14.4230  -21.7360  -27.8190 C.ar  308  PHE308     -0.0003
    185  CZ        14.7610  -22.8560  -28.5370 C.ar  308  PHE308     -0.0000
    186  N         18.3490  -20.0820  -30.0300 N.am  309  PHE309     -0.1974
    187  CA        19.4150  -20.9300  -30.5750 C.3   309  PHE309      0.1639
    188  C         19.0190  -22.3940  -30.4970 C.2   309  PHE309      0.2290
    189  O         18.9710  -22.9790  -29.4070 O.2   309  PHE309     -0.2864
    190  CB        20.7340  -20.6610  -29.8530 C.3   309  PHE309      0.0560
    191  CG        21.8970  -21.3550  -30.4610 C.ar  309  PHE309     -0.0200
    192  CD1       22.1690  -21.1980  -31.8220 C.ar  309  PHE309     -0.0042
    193  CD2       22.7170  -22.1510  -29.7090 C.ar  309  PHE309     -0.0042
    194  CE1       23.2350  -21.8640  -32.4010 C.ar  309  PHE309     -0.0003
    195  CE2       23.7970  -22.8050  -30.2890 C.ar  309  PHE309     -0.0003
    196  CZ        24.0440  -22.6550  -31.6210 C.ar  309  PHE309     -0.0000
@<TRIPOS>BOND
     1     1     2    1
     2    44    43   ar
     3    44    42   ar
     4    43    41   ar
     5     3     4    2
     6     3     2    1
     7     2     5    1
     8    42    40   ar
     9    41    39   ar
    10     5     6    1
    11    40    39   ar
    12    39    38    1
    13     6     7    1
    14    12    13    1
    15    38    35    1
    16    33    32    2
    17    35    34    1
    18    35    36    1
    19     7     8    1
    20    32    34   am
    21    32    31    1
    22    13    16    1
    23    13    14    1
    24    31    30    1
    25    36    37    2
    26    16    17    1
    27     8     9    2
    28    28    27   ar
    29    30    23   am
    30    10     9    1
    31    21    14   am
    32    21    22    1
    33    19    18   ar
    34    14    15    2
    35     9    11    1
    36   141   140    1
    37    27    29   ar
    38    27    26    1
    39   105   104    1
    40    17    18    1
    41    23    22    1
    42    23    24    2
    43   139   140   ar
    44   139   137   ar
    45    18    20   ar
    46    22    25    1
    47   140   138   ar
    48    25    26    1
    49   119   117   am
    50   104   103    1
    51   137   135   ar
    52   103   102    1
    53   102    99    1
    54   138   136   ar
    55    46    47    1
    56    46    45    1
    57    46    49    1
    58   101   100    2
    59   130   131    1
    60    47    48    2
    61    45    51    1
    62   117   116    1
    63   117   118    2
    64   135   136   ar
    65   135   134    1
    66    49    50    1
    67   100    99    1
    68   100   106   am
    69   116   113    1
    70    99    98    1
    71    50    51    1
    72   131   134    1
    73   131   132    1
    74   107   106    1
    75   107   108    1
    76   107   110    1
    77   112   113    1
    78   112   108   am
    79   111   110    1
    80    71    69   ar
    81    98    92   am
    82   113   114    1
    83    70    69   ar
    84   108   109    2
    85   133   132    2
    86    69    68    1
    87    89    87    1
    88   114   115    2
    89   114   120   am
    90    52    53    1
    91    88    87    1
    92    92    93    2
    93    92    91    1
    94   123   122    2
    95    96    95   ar
    96    87    86    2
    97   120   121    1
    98    53    54    1
    99    53    56    1
   100    55    54    2
   101    54    64   am
   102    90    91    1
   103    68    65    1
   104   122   121    1
   105    63    62    1
   106    64    65    1
   107    61    62   ar
   108    61    59   ar
   109    62    60   ar
   110    91    94    1
   111    95    97   ar
   112    95    94    1
   113   194   192   ar
   114   194   196   ar
   115    59    57   ar
   116   121   124    1
   117    60    58   ar
   118    86    85    1
   119    65    66    1
   120   153   152    1
   121    57    58   ar
   122    57    56    1
   123   178   177    2
   124   168   169    1
   125   168   165    1
   126   192   191   ar
   127   163   162    2
   128   196   195   ar
   129   171   169   ar
   130   171   173   ar
   131    85    84    1
   132   169   170   ar
   133   124   125    1
   134   152   150   ar
   135   152   151   ar
   136   165   166    1
   137   165   164    1
   138   173   174   ar
   139   150   148   ar
   140   177   176    1
   141   177   186   am
   142    66    67    2
   143   175   176    1
   144   175   166   am
   145   187   188    1
   146   187   186    1
   147   187   190    1
   148   170   172   ar
   149   188   189    2
   150   162   164   am
   151   162   161    1
   152   191   190    1
   153   191   193   ar
   154   181   183   ar
   155   181   180   ar
   156   179   176    1
   157   179   180    1
   158    84    83    1
   159   195   193   ar
   160   125   127   ar
   161   125   126   ar
   162   151   149   ar
   163   174   172   ar
   164   166   167    2
   165   127   129   ar
   166   183   185   ar
   167   157   156    2
   168    77    76    1
   169   180   182   ar
   170   148   147   ar
   171   161   160    1
   172    83    80    1
   173   126   128   ar
   174    76    78    1
   175    76    73    1
   176   149   147   ar
   177   129   128   ar
   178    75    74    2
   179   147   146    1
   180   156   160   am
   181   156   155    1
   182   185   184   ar
   183   182   184   ar
   184    80    79    1
   185    80    81    1
   186    74    73    1
   187    74    79   am
   188   142   143    1
   189    73    72    1
   190   158   155    1
   191   158   159    1
   192    82    81    2
   193   155   154    1
   194   146   143    1
   195   143   144    1
   196   144   145    2
