@<TRIPOS>MOLECULE
tmp/6mboB01.pdb
 96 92 0 0 0
SMALL
GASTEIGER

@<TRIPOS>ATOM
      1  N        -30.5620  -17.8790   39.6900 N.3    59  ILE59      -0.1231
      2  CA       -30.6750  -19.2210   39.1350 C.3    59  ILE59       0.1692
      3  C        -31.9590  -19.4090   38.3460 C.2    59  ILE59       0.2592
      4  O        -32.2320  -20.5220   37.8750 O.2    59  ILE59      -0.2718
      5  CB       -30.5750  -20.2910   40.2410 C.3    59  ILE59       0.0266
      6  CG1      -31.7950  -20.2190   41.1600 C.3    59  ILE59       0.0019
      7  CG2      -29.2880  -20.1180   41.0320 C.3    59  ILE59       0.0020
      8  CD1      -31.7760  -21.2310   42.2840 C.3    59  ILE59       0.0001
      9  N        -32.7620  -18.3570   38.1930 N.am   60  ASP60      -0.1960
     10  CA       -34.0090  -18.4420   37.4430 C.3    60  ASP60       0.1840
     11  C        -33.9600  -17.5510   36.2070 C.2    60  ASP60       0.2622
     12  O        -32.9190  -17.4440   35.5500 O.2    60  ASP60      -0.2715
     13  CB       -35.1980  -18.0640   38.3330 C.3    60  ASP60       0.1450
     14  CG       -35.0680  -16.6710   38.9310 C.2    60  ASP60       0.3671
     15  OD1      -33.9970  -16.0460   38.7780 O.co2  60  ASP60      -0.2456
     16  OD2      -36.0440  -16.2000   39.5520 O.co2  60  ASP60      -0.2456
     17  N        -35.0810  -16.9060   35.8880 N.am   61  ASP61      -0.1971
     18  CA       -35.1960  -16.0440   34.7210 C.3    61  ASP61       0.1709
     19  C        -35.0570  -14.5650   35.0690 C.2    61  ASP61       0.2293
     20  O        -35.4490  -13.7100   34.2670 O.2    61  ASP61      -0.2864
     21  CB       -36.5280  -16.2950   34.0180 C.3    61  ASP61       0.1436
     22  CG       -37.7210  -15.9520   34.8900 C.2    61  ASP61       0.3671
     23  OD1      -37.5830  -15.9900   36.1310 O.co2  61  ASP61      -0.2456
     24  OD2      -38.7970  -15.6450   34.3350 O.co2  61  ASP61      -0.2456
     25  N        -36.6950  -12.8400   37.3030 N.3    63  SER63      -0.1217
     26  CA       -38.0150  -12.2610   37.5050 C.3    63  SER63       0.1889
     27  C        -38.3320  -12.0130   38.9730 C.2    63  SER63       0.2288
     28  O        -39.4420  -11.5710   39.2870 O.2    63  SER63      -0.2866
     29  CB       -39.0900  -13.1650   36.8900 C.3    63  SER63       0.2089
     30  OG       -39.0780  -14.4500   37.4860 O.3    63  SER63      -0.2183
     31  N        -41.9420   -6.7730   31.2100 N.3    79  ASP79      -0.1225
     32  CA       -42.8160   -7.9220   31.3750 C.3    79  ASP79       0.1805
     33  C        -42.2820   -9.0830   30.5360 C.2    79  ASP79       0.2597
     34  O        -41.2250   -8.9920   29.9080 O.2    79  ASP79      -0.2718
     35  CB       -44.2650   -7.5640   31.0260 C.3    79  ASP79       0.1424
     36  CG       -44.4460   -7.1030   29.5820 C.2    79  ASP79       0.3668
     37  OD1      -43.5580   -7.3340   28.7360 O.co2  79  ASP79      -0.2456
     38  OD2      -45.5030   -6.5030   29.2920 O.co2  79  ASP79      -0.2456
     39  N        -43.0220  -10.1940   30.5190 N.am   80  LYS80      -0.1979
     40  CA       -42.5600  -11.3740   29.7960 C.3    80  LYS80       0.1596
     41  C        -42.5110  -11.1550   28.2890 C.2    80  LYS80       0.2287
     42  O        -41.8430  -11.9230   27.5880 O.2    80  LYS80      -0.2864
     43  CB       -43.4490  -12.5740   30.1210 C.3    80  LYS80       0.0298
     44  CG       -44.9160  -12.3690   29.8030 C.3    80  LYS80       0.0038
     45  CD       -45.7550  -13.4920   30.3850 C.3    80  LYS80       0.0206
     46  CE       -47.2300  -13.2910   30.0940 C.3    80  LYS80       0.1093
     47  NZ       -48.0670  -14.2790   30.8290 N.3    80  LYS80      -0.1314
     48  N        -41.2650   -8.3670   27.0130 N.3    82  GLY82      -0.1225
     49  CA       -40.2400   -7.3700   26.7880 C.3    82  GLY82       0.1811
     50  C        -40.7280   -5.9400   26.7770 C.2    82  GLY82       0.2280
     51  O        -39.9800   -5.0520   26.3540 O.2    82  GLY82      -0.2866
     52  N        -27.1760  -15.6700   34.8280 N.3   105  CYS105     -0.1221
     53  CA       -28.3920  -16.0460   34.1280 C.3   105  CYS105      0.1808
     54  C        -28.1050  -16.3580   32.6600 C.2   105  CYS105      0.2601
     55  O        -27.0000  -16.1510   32.1500 O.2   105  CYS105     -0.2717
     56  CB       -29.4300  -14.9340   34.2380 C.3   105  CYS105      0.0970
     57  SG       -28.8180  -13.3280   33.6910 S.3   105  CYS105     -0.0800
     58  N        -29.1310  -16.8570   31.9780 N.am  106  TRP106     -0.1976
     59  CA       -29.0240  -17.2060   30.5720 C.3   106  TRP106      0.1640
     60  C        -29.2610  -15.9830   29.6910 C.2   106  TRP106      0.2290
     61  O        -29.7720  -14.9500   30.1330 O.2   106  TRP106     -0.2864
     62  CB       -30.0210  -18.3100   30.2150 C.3   106  TRP106      0.0576
     63  CG       -29.6290  -19.6670   30.7190 C.ar  106  TRP106      0.0006
     64  CD1      -29.2770  -19.9970   31.9960 C.ar  106  TRP106      0.0946
     65  CD2      -29.5550  -20.8780   29.9570 C.ar  106  TRP106      0.0152
     66  NE1      -28.9840  -21.3380   32.0740 N.ar  106  TRP106     -0.2442
     67  CE2      -29.1480  -21.9010   30.8360 C.ar  106  TRP106      0.0810
     68  CE3      -29.7920  -21.1960   28.6160 C.ar  106  TRP106      0.0012
     69  CZ2      -28.9720  -23.2190   30.4190 C.ar  106  TRP106      0.0191
     70  CZ3      -29.6160  -22.5050   28.2030 C.ar  106  TRP106      0.0001
     71  CH2      -29.2110  -23.5000   29.1020 C.ar  106  TRP106      0.0015
     72  N        -31.4270  -15.4510   27.5760 N.3   108  ASN108     -0.1225
     73  CA       -32.8330  -15.1570   27.3260 C.3   108  ASN108      0.1785
     74  C        -33.6020  -14.8670   28.6130 C.2   108  ASN108      0.2597
     75  O        -34.7980  -15.1500   28.7030 O.2   108  ASN108     -0.2718
     76  CB       -33.4890  -16.3040   26.5580 C.3   108  ASN108      0.1169
     77  CG       -33.5520  -17.5890   27.3630 C.2   108  ASN108      0.2627
     78  OD1      -32.8300  -17.7590   28.3450 O.2   108  ASN108     -0.2716
     79  ND2      -34.4220  -18.5020   26.9480 N.am  108  ASN108     -0.0877
     80  N        -32.9350  -14.2950   29.6130 N.am  109  CYS109     -0.1956
     81  CA       -33.6220  -13.9590   30.8500 C.3   109  CYS109      0.1843
     82  C        -34.5450  -12.7580   30.6340 C.2   109  CYS109      0.2625
     83  O        -34.5430  -12.1140   29.5810 O.2   109  CYS109     -0.2714
     84  CB       -32.6160  -13.6770   31.9680 C.3   109  CYS109      0.0997
     85  SG       -31.9330  -12.0040   31.9840 S.3   109  CYS109     -0.0797
     86  N        -35.3470  -12.4630   31.6600 N.am  110  ARG110     -0.1977
     87  CA       -36.3560  -11.4140   31.5430 C.3   110  ARG110      0.1597
     88  C        -35.7300  -10.0390   31.3320 C.2   110  ARG110      0.2287
     89  O        -36.2960   -9.2040   30.6160 O.2   110  ARG110     -0.2864
     90  CB       -37.2430  -11.4100   32.7900 C.3   110  ARG110      0.0334
     91  CG       -38.1660  -10.2070   32.9160 C.3   110  ARG110      0.0492
     92  CD       -39.5310  -10.4870   32.3120 C.3   110  ARG110      0.2205
     93  NE       -40.2940  -11.4420   33.1110 N.pl3 110  ARG110     -0.0865
     94  CZ       -41.0770  -11.1060   34.1310 C.cat 110  ARG110      0.5346
     95  NH1      -41.2050   -9.8330   34.4820 N.pl3 110  ARG110      0.1354
     96  NH2      -41.7320  -12.0430   34.8020 N.pl3 110  ARG110      0.1354
@<TRIPOS>BOND
     1    51    50    2
     2    76    73    1
     3    76    77    1
     4    50    49    1
     5    49    48    1
     6    79    77   am
     7    73    72    1
     8    73    74    1
     9    77    78    2
    10    42    41    2
    11    70    68   ar
    12    70    71   ar
    13    41    40    1
    14    74    75    2
    15    74    80   am
    16    68    65   ar
    17    37    36   ar
    18    71    69   ar
    19    38    36   ar
    20    83    82    2
    21    36    35    1
    22    80    81    1
    23    60    61    2
    24    60    59    1
    25    40    43    1
    26    40    39    1
    27    44    43    1
    28    44    45    1
    29    34    33    2
    30    65    63   ar
    31    65    67   ar
    32    46    45    1
    33    46    47    1
    34    62    59    1
    35    62    63    1
    36    69    67   ar
    37    39    33   am
    38    33    32    1
    39    59    58    1
    40    89    88    2
    41    82    81    1
    42    82    86   am
    43    63    64   ar
    44    67    66   ar
    45    81    84    1
    46    35    32    1
    47    31    32    1
    48    88    87    1
    49    87    86    1
    50    87    90    1
    51    84    85    1
    52    58    54   am
    53    64    66   ar
    54    55    54    2
    55    92    91    1
    56    92    93    1
    57    54    53    1
    58    90    91    1
    59    93    94    2
    60    57    56    1
    61    21    18    1
    62    21    22    1
    63    53    56    1
    64    53    52    1
    65    94    95    1
    66    94    96    1
    67    20    19    2
    68    24    22   ar
    69    18    19    1
    70    18    17    1
    71    22    23   ar
    72    12    11    2
    73    17    11   am
    74    11    10    1
    75    29    30    1
    76    29    26    1
    77    25    26    1
    78    10     9    1
    79    10    13    1
    80    26    27    1
    81     4     3    2
    82     9     3   am
    83    13    14    1
    84     3     2    1
    85    15    14   ar
    86    14    16   ar
    87    27    28    2
    88     2     1    1
    89     2     5    1
    90     5     7    1
    91     5     6    1
    92     6     8    1
