@<TRIPOS>MOLECULE
tmp/6mbpB00.pdb
 227 222 0 0 0
SMALL
GASTEIGER

@<TRIPOS>ATOM
      1  N        -63.3390    6.0270   24.2180 N.3   149  TYR149     -0.1241
      2  CA       -63.7900    6.4970   25.5290 C.3   149  TYR149      0.1605
      3  C        -62.6700    7.3150   26.1540 C.2   149  TYR149      0.2264
      4  O        -61.6700    6.7580   26.6110 O.2   149  TYR149     -0.2867
      5  CB       -64.1890    5.3440   26.4480 C.3   149  TYR149      0.0534
      6  CG       -65.0050    5.8350   27.6300 C.ar  149  TYR149     -0.0201
      7  CD1      -66.3910    5.9060   27.5590 C.ar  149  TYR149     -0.0009
      8  CD2      -64.3850    6.2820   28.7930 C.ar  149  TYR149     -0.0009
      9  CE1      -67.1460    6.3820   28.6320 C.ar  149  TYR149      0.0417
     10  CE2      -65.1240    6.7510   29.8690 C.ar  149  TYR149      0.0417
     11  CZ       -66.5030    6.7970   29.7850 C.ar  149  TYR149      0.1957
     12  OH       -67.2360    7.2670   30.8550 O.3   149  TYR149     -0.2866
     13  N        -57.0520    3.6940   41.2460 N.3   156  ASP156     -0.1239
     14  CA       -58.1710    3.1400   41.9910 C.3   156  ASP156      0.1674
     15  C        -58.3580    3.8430   43.3260 C.2   156  ASP156      0.2266
     16  O        -59.4960    4.0610   43.7520 O.2   156  ASP156     -0.2867
     17  CB       -57.9900    1.6300   42.1890 C.3   156  ASP156      0.1410
     18  CG       -56.6240    1.2530   42.7420 C.2   156  ASP156      0.3668
     19  OD1      -55.7890    2.1490   42.9760 O.co2 156  ASP156     -0.2456
     20  OD2      -56.3920    0.0480   42.9450 O.co2 156  ASP156     -0.2456
     21  N        -60.3600    6.9110   42.4760 N.3   159  ALA159     -0.1231
     22  CA       -61.7290    6.6010   42.0850 C.3   159  ALA159      0.1694
     23  C        -62.5950    6.2430   43.2860 C.2   159  ALA159      0.2592
     24  O        -63.7900    6.5560   43.2970 O.2   159  ALA159     -0.2718
     25  CB       -61.7370    5.4610   41.0640 C.3   159  ALA159      0.0304
     26  N        -62.0150    5.6160   44.3110 N.am  160  ASP160     -0.1960
     27  CA       -62.7910    5.2080   45.4780 C.3   160  ASP160      0.1840
     28  C        -63.2430    6.3830   46.3330 C.2   160  ASP160      0.2622
     29  O        -64.0730    6.1850   47.2250 O.2   160  ASP160     -0.2715
     30  CB       -61.9860    4.2330   46.3430 C.3   160  ASP160      0.1450
     31  CG       -61.8370    2.8630   45.7010 C.2   160  ASP160      0.3671
     32  OD1      -62.4650    2.6220   44.6450 O.co2 160  ASP160     -0.2456
     33  OD2      -61.0860    2.0280   46.2510 O.co2 160  ASP160     -0.2456
     34  N        -62.7190    7.5880   46.1000 N.am  161  VAL161     -0.1963
     35  CA       -63.1040    8.7620   46.8710 C.3   161  VAL161      0.1727
     36  C        -63.8110    9.8080   46.0150 C.2   161  VAL161      0.2616
     37  O        -63.9730   10.9470   46.4480 O.2   161  VAL161     -0.2715
     38  CB       -61.8950    9.3830   47.6000 C.3   161  VAL161      0.0290
     39  CG1      -61.2020    8.3410   48.4720 C.3   161  VAL161      0.0023
     40  CG2      -60.9180   10.0080   46.6080 C.3   161  VAL161      0.0023
     41  N        -64.2420    9.4450   44.8110 N.am  162  ARG162     -0.1963
     42  CA       -64.9910   10.3570   43.9570 C.3   162  ARG162      0.1729
     43  C        -66.4840   10.1600   44.1890 C.2   162  ARG162      0.2616
     44  O        -66.9740    9.0270   44.1800 O.2   162  ARG162     -0.2715
     45  CB       -64.6390   10.1340   42.4870 C.3   162  ARG162      0.0348
     46  CG       -63.1760   10.3980   42.1720 C.3   162  ARG162      0.0492
     47  CD       -63.0060   11.2320   40.9200 C.3   162  ARG162      0.2205
     48  NE       -61.6820   11.8480   40.8650 N.pl3 162  ARG162     -0.0865
     49  CZ       -61.1670   12.4160   39.7820 C.cat 162  ARG162      0.5346
     50  NH1      -61.8610   12.4370   38.6510 N.pl3 162  ARG162      0.1354
     51  NH2      -59.9540   12.9570   39.8230 N.pl3 162  ARG162      0.1354
     52  N        -67.2000   11.2690   44.4030 N.am  163  GLU163     -0.1977
     53  CA       -68.6210   11.1880   44.7270 C.3   163  GLU163      0.1602
     54  C        -69.4350   10.6560   43.5520 C.2   163  GLU163      0.2287
     55  O        -70.4020    9.9120   43.7510 O.2   163  GLU163     -0.2864
     56  CB       -69.1400   12.5600   45.1640 C.3   163  GLU163      0.0415
     57  CG       -68.6110   13.0710   46.4890 C.3   163  GLU163      0.1163
     58  CD       -67.1530   13.4530   46.4830 C.2   163  GLU163      0.3649
     59  OE1      -66.6070   13.8060   45.4070 O.co2 163  GLU163     -0.2457
     60  OE2      -66.4800   13.4400   47.5410 O.co2 163  GLU163     -0.2457
     61  N        -69.7120    8.3280   40.2940 N.3   165  ASP165     -0.1225
     62  CA       -69.1130    7.1590   39.6600 C.3   165  ASP165      0.1805
     63  C        -69.8120    6.7600   38.3660 C.2   165  ASP165      0.2598
     64  O        -69.5170    5.6900   37.8230 O.2   165  ASP165     -0.2718
     65  CB       -69.0970    5.9740   40.6330 C.3   165  ASP165      0.1424
     66  CG       -70.4790    5.6280   41.1600 C.2   165  ASP165      0.3668
     67  OD1      -71.4140    6.4330   40.9710 O.co2 165  ASP165     -0.2456
     68  OD2      -70.6270    4.5410   41.7590 O.co2 165  ASP165     -0.2456
     69  N        -70.7130    7.5930   37.8450 N.am  166  SER166     -0.1938
     70  CA       -71.4720    7.2490   36.6480 C.3   166  SER166      0.2055
     71  C        -70.6650    7.3670   35.3590 C.2   166  SER166      0.2643
     72  O        -71.1360    6.9060   34.3140 O.2   166  SER166     -0.2714
     73  CB       -72.7220    8.1290   36.5470 C.3   166  SER166      0.2130
     74  OG       -73.5270    8.0090   37.7090 O.3   166  SER166     -0.2179
     75  N        -69.4750    7.9690   35.3870 N.am  167  TYR167     -0.1959
     76  CA       -68.6920    8.1450   34.1690 C.3   167  TYR167      0.1771
     77  C        -67.3570    7.4130   34.2310 C.2   167  TYR167      0.2619
     78  O        -66.4280    7.7730   33.5040 O.2   167  TYR167     -0.2715
     79  CB       -68.4710    9.6360   33.8840 C.3   167  TYR167      0.0574
     80  CG       -69.7610   10.4000   33.6810 C.ar  167  TYR167     -0.0198
     81  CD1      -70.3370   10.5010   32.4210 C.ar  167  TYR167     -0.0009
     82  CD2      -70.4070   11.0080   34.7470 C.ar  167  TYR167     -0.0009
     83  CE1      -71.5210   11.1990   32.2240 C.ar  167  TYR167      0.0417
     84  CE2      -71.6000   11.7070   34.5630 C.ar  167  TYR167      0.0417
     85  CZ       -72.1470   11.7970   33.2960 C.ar  167  TYR167      0.1957
     86  OH       -73.3300   12.4770   33.0950 O.3   167  TYR167     -0.2866
     87  N        -67.2490    6.3800   35.0640 N.am  168  LEU168     -0.1963
     88  CA       -66.0150    5.6100   35.1880 C.3   168  LEU168      0.1728
     89  C        -65.9930    4.4740   34.1780 C.2   168  LEU168      0.2616
     90  O        -66.9940    3.7760   33.9950 O.2   168  LEU168     -0.2715
     91  CB       -65.8730    5.0260   36.5970 C.3   168  LEU168      0.0311
     92  CG       -65.8510    5.9980   37.7750 C.3   168  LEU168      0.0022
     93  CD1      -65.8180    5.2390   39.0920 C.3   168  LEU168      0.0001
     94  CD2      -64.6520    6.9220   37.6480 C.3   168  LEU168      0.0001
     95  N        -64.8440    4.2880   33.5260 N.am  169  PHE169     -0.1960
     96  CA       -64.5790    3.0980   32.7280 C.3   169  PHE169      0.1771
     97  C        -63.3640    2.3930   33.3130 C.2   169  PHE169      0.2619
     98  O        -62.2560    2.9390   33.2890 O.2   169  PHE169     -0.2715
     99  CB       -64.3460    3.4390   31.2510 C.3   169  PHE169      0.0574
    100  CG       -64.5150    2.2560   30.3300 C.ar  169  PHE169     -0.0200
    101  CD1      -65.6020    2.1770   29.4700 C.ar  169  PHE169     -0.0042
    102  CD2      -63.6050    1.2150   30.3470 C.ar  169  PHE169     -0.0042
    103  CE1      -65.7670    1.0750   28.6430 C.ar  169  PHE169     -0.0003
    104  CE2      -63.7730    0.1030   29.5320 C.ar  169  PHE169     -0.0003
    105  CZ       -64.8540    0.0400   28.6740 C.ar  169  PHE169     -0.0000
    106  N        -63.5680    1.1770   33.8100 N.am  170  ASP170     -0.1971
    107  CA       -62.5110    0.4310   34.4770 C.3   170  ASP170      0.1709
    108  C        -61.5220   -0.1250   33.4600 C.2   170  ASP170      0.2293
    109  O        -61.9210   -0.7200   32.4560 O.2   170  ASP170     -0.2864
    110  CB       -63.0970   -0.7220   35.2940 C.3   170  ASP170      0.1436
    111  CG       -64.0720   -0.2570   36.3550 C.2   170  ASP170      0.3671
    112  OD1      -63.9280    0.8850   36.8350 O.co2 170  ASP170     -0.2456
    113  OD2      -64.9800   -1.0400   36.7080 O.co2 170  ASP170     -0.2456
    114  N        -59.3690   -2.8180   33.9760 N.3   172  ASP172     -0.1239
    115  CA       -59.2950   -3.7620   35.0850 C.3   172  ASP172      0.1674
    116  C        -57.8950   -4.3690   35.2350 C.2   172  ASP172      0.2266
    117  O        -57.0250   -4.2480   34.3670 O.2   172  ASP172     -0.2867
    118  CB       -60.3490   -4.8550   34.9230 C.3   172  ASP172      0.1410
    119  CG       -61.6100   -4.5640   35.7240 C.2   172  ASP172      0.3668
    120  OD1      -61.4860   -4.0800   36.8710 O.co2 172  ASP172     -0.2456
    121  OD2      -62.7220   -4.8070   35.2070 O.co2 172  ASP172     -0.2456
    122  N        -54.5260   -1.0350   39.4020 N.3   178  VAL178     -0.1231
    123  CA       -55.6680   -0.9300   38.5010 C.3   178  VAL178      0.1692
    124  C        -56.0680    0.5350   38.3780 C.2   178  VAL178      0.2592
    125  O        -56.0050    1.2970   39.3500 O.2   178  VAL178     -0.2718
    126  CB       -56.8530   -1.8030   38.9710 C.3   178  VAL178      0.0266
    127  CG1      -57.4850   -1.2440   40.2310 C.3   178  VAL178      0.0020
    128  CG2      -57.8800   -1.9330   37.8690 C.3   178  VAL178      0.0020
    129  N        -56.4720    0.9270   37.1720 N.am  179  TYR179     -0.1962
    130  CA       -56.7600    2.3120   36.8430 C.3   179  TYR179      0.1771
    131  C        -58.1000    2.3880   36.1290 C.2   179  TYR179      0.2619
    132  O        -58.6310    1.3810   35.6590 O.2   179  TYR179     -0.2715
    133  CB       -55.6370    2.9070   35.9690 C.3   179  TYR179      0.0574
    134  CG       -54.3000    2.9420   36.6780 C.ar  179  TYR179     -0.0198
    135  CD1      -53.9010    4.0680   37.3820 C.ar  179  TYR179     -0.0009
    136  CD2      -53.4500    1.8360   36.6700 C.ar  179  TYR179     -0.0009
    137  CE1      -52.6840    4.0980   38.0550 C.ar  179  TYR179      0.0417
    138  CE2      -52.2320    1.8590   37.3360 C.ar  179  TYR179      0.0417
    139  CZ       -51.8580    2.9960   38.0260 C.ar  179  TYR179      0.1957
    140  OH       -50.6560    3.0360   38.6940 O.3   179  TYR179     -0.2866
    141  N        -58.6450    3.5970   36.0380 N.am  180  CYS180     -0.1968
    142  CA       -59.8880    3.7800   35.3060 C.3   180  CYS180      0.1712
    143  C        -59.8840    5.1480   34.6430 C.2   180  CYS180      0.2296
    144  O        -59.1130    6.0400   35.0080 O.2   180  CYS180     -0.2864
    145  CB       -61.1130    3.6250   36.2160 C.3   180  CYS180      0.0983
    146  SG       -61.3970    4.9980   37.3340 S.3   180  CYS180     -0.0798
    147  N        -68.7820   10.0640   26.6180 N.3   191  ARG191     -0.1245
    148  CA       -69.3550   10.1290   27.9550 C.3   191  ARG191      0.1563
    149  C        -70.8760   10.2130   27.9330 C.2   191  ARG191      0.2260
    150  O        -71.5020   10.0960   28.9930 O.2   191  ARG191     -0.2867
    151  CB       -68.7900   11.3250   28.7250 C.3   191  ARG191      0.0307
    152  CG       -69.4710   12.6370   28.3990 C.3   191  ARG191      0.0489
    153  CD       -68.6870   13.8400   28.9110 C.3   191  ARG191      0.2205
    154  NE       -68.7110   14.0230   30.3650 N.pl3 191  ARG191     -0.0865
    155  CZ       -69.7370   14.5090   31.0570 C.cat 191  ARG191      0.5346
    156  NH1      -70.8670   14.8370   30.4430 N.pl3 191  ARG191      0.1354
    157  NH2      -69.6390   14.6580   32.3740 N.pl3 191  ARG191      0.1354
    158  N        -72.8080    8.1790   25.8470 N.3   193  ILE193     -0.1245
    159  CA       -73.3580    6.9500   25.2820 C.3   193  ILE193      0.1561
    160  C        -74.0480    6.1610   26.3870 C.2   193  ILE193      0.2260
    161  O        -73.4380    5.8350   27.4130 O.2   193  ILE193     -0.2867
    162  CB       -72.2550    6.1170   24.6040 C.3   193  ILE193      0.0252
    163  CG1      -71.6590    6.8750   23.4120 C.3   193  ILE193      0.0019
    164  CG2      -72.8060    4.7450   24.1650 C.3   193  ILE193      0.0019
    165  CD1      -70.4420    6.1900   22.7730 C.3   193  ILE193      0.0001
    166  N        -73.5730    0.5970   24.4300 N.3   234  PHE234     -0.1241
    167  CA       -72.7110   -0.5240   24.7880 C.3   234  PHE234      0.1605
    168  C        -73.1350   -1.0390   26.1520 C.2   234  PHE234      0.2264
    169  O        -73.9170   -0.4040   26.8620 O.2   234  PHE234     -0.2867
    170  CB       -71.2180   -0.1530   24.7760 C.3   234  PHE234      0.0534
    171  CG       -70.7930    0.7800   25.8880 C.ar  234  PHE234     -0.0203
    172  CD1      -70.1910    0.2850   27.0400 C.ar  234  PHE234     -0.0042
    173  CD2      -70.9700    2.1510   25.7640 C.ar  234  PHE234     -0.0042
    174  CE1      -69.7860    1.1410   28.0520 C.ar  234  PHE234     -0.0003
    175  CE2      -70.5640    3.0200   26.7710 C.ar  234  PHE234     -0.0003
    176  CZ       -69.9740    2.5150   27.9170 C.ar  234  PHE234     -0.0000
    177  N        -72.7870   -1.6480   29.8300 N.3   236  TYR236     -0.1241
    178  CA       -72.0430   -1.0590   30.9390 C.3   236  TYR236      0.1605
    179  C        -71.4100   -2.1200   31.8320 C.2   236  TYR236      0.2264
    180  O        -70.4220   -1.8370   32.5160 O.2   236  TYR236     -0.2867
    181  CB       -72.9510   -0.1680   31.7840 C.3   236  TYR236      0.0534
    182  CG       -73.2470    1.2110   31.2230 C.ar  236  TYR236     -0.0201
    183  CD1      -72.8510    1.5840   29.9440 C.ar  236  TYR236     -0.0009
    184  CD2      -73.9400    2.1390   31.9860 C.ar  236  TYR236     -0.0009
    185  CE1      -73.1390    2.8590   29.4460 C.ar  236  TYR236      0.0417
    186  CE2      -74.2290    3.3980   31.5040 C.ar  236  TYR236      0.0417
    187  CZ       -73.8310    3.7560   30.2370 C.ar  236  TYR236      0.1957
    188  OH       -74.1420    5.0260   29.7760 O.3   236  TYR236     -0.2866
    189  N        -70.6210   -4.5630   37.2680 N.3   239  ARG239     -0.1231
    190  CA       -70.2450   -3.6990   38.3840 C.3   239  ARG239      0.1694
    191  C        -71.1350   -2.4670   38.4380 C.2   239  ARG239      0.2592
    192  O        -71.5710   -2.0500   39.5190 O.2   239  ARG239     -0.2718
    193  CB       -68.7710   -3.2930   38.2820 C.3   239  ARG239      0.0321
    194  CG       -68.3710   -2.2040   39.2800 C.3   239  ARG239      0.0489
    195  CD       -66.8820   -1.8550   39.2380 C.3   239  ARG239      0.2205
    196  NE       -66.0510   -2.8660   39.8910 N.pl3 239  ARG239     -0.0865
    197  CZ       -65.1780   -3.6470   39.2600 C.cat 239  ARG239      0.5346
    198  NH1      -65.0040   -3.5340   37.9480 N.pl3 239  ARG239      0.1354
    199  NH2      -64.4700   -4.5380   39.9430 N.pl3 239  ARG239      0.1354
    200  N        -71.4280   -1.8780   37.2750 N.am  240  PHE240     -0.1976
    201  CA       -72.3300   -0.7330   37.2260 C.3   240  PHE240      0.1639
    202  C        -73.7060   -1.1010   37.7720 C.2   240  PHE240      0.2290
    203  O        -74.2080   -0.4650   38.7040 O.2   240  PHE240     -0.2864
    204  CB       -72.4320   -0.2140   35.7880 C.3   240  PHE240      0.0560
    205  CG       -73.4670    0.8630   35.6010 C.ar  240  PHE240     -0.0200
    206  CD1      -73.1220    2.2020   35.7190 C.ar  240  PHE240     -0.0042
    207  CD2      -74.7860    0.5370   35.3010 C.ar  240  PHE240     -0.0042
    208  CE1      -74.0730    3.1980   35.5440 C.ar  240  PHE240     -0.0003
    209  CE2      -75.7370    1.5260   35.1280 C.ar  240  PHE240     -0.0003
    210  CZ       -75.3810    2.8570   35.2490 C.ar  240  PHE240     -0.0000
    211  N        -74.4890   -1.7660   41.4110 N.3   243  ILE243     -0.1231
    212  CA       -74.5010   -0.5720   42.2400 C.3   243  ILE243      0.1692
    213  C        -75.6960    0.3150   41.9140 C.2   243  ILE243      0.2591
    214  O        -76.4150    0.7550   42.8110 O.2   243  ILE243     -0.2718
    215  CB       -73.1690    0.1940   42.0760 C.3   243  ILE243      0.0266
    216  CG1      -71.9870   -0.7020   42.4660 C.3   243  ILE243      0.0019
    217  CG2      -73.1800    1.4810   42.8940 C.3   243  ILE243      0.0020
    218  CD1      -70.6210   -0.1070   42.1330 C.3   243  ILE243      0.0001
    219  N        -75.9300    0.5750   40.6240 N.am  244  LYS244     -0.1980
    220  CA       -76.9970    1.4770   40.2040 C.3   244  LYS244      0.1596
    221  C        -78.3520    0.7910   40.1040 C.2   244  LYS244      0.2287
    222  O        -79.3750    1.4830   40.0420 O.2   244  LYS244     -0.2864
    223  CB       -76.6470    2.1180   38.8600 C.3   244  LYS244      0.0298
    224  CG       -75.4010    2.9860   38.9010 C.3   244  LYS244      0.0038
    225  CD       -75.5270    4.0810   39.9450 C.3   244  LYS244      0.0206
    226  CE       -74.3560    5.0480   39.8810 C.3   244  LYS244      0.1093
    227  NZ       -74.4390    6.1360   40.8980 N.3   244  LYS244     -0.1314
@<TRIPOS>BOND
     1   165   163    1
     2   163   162    1
     3   164   162    1
     4     1     2    1
     5   166   167    1
     6   162   159    1
     7   170   167    1
     8   170   171    1
     9   167   168    1
    10   159   158    1
    11   159   160    1
    12     2     3    1
    13     2     5    1
    14   173   171   ar
    15   173   175   ar
    16   171   172   ar
    17   168   169    2
    18     3     4    2
    19   160   161    2
    20     5     6    1
    21   147   148    1
    22   175   176   ar
    23   172   174   ar
    24     7     6   ar
    25     7     9   ar
    26     6     8   ar
    27   176   174   ar
    28   149   148    1
    29   149   150    2
    30   148   151    1
    31   152   151    1
    32   152   153    1
    33     9    11   ar
    34   103   105   ar
    35   103   101   ar
    36   105   104   ar
    37     8    10   ar
    38   153   154    1
    39   185   183   ar
    40   185   187   ar
    41   101   100   ar
    42   104   102   ar
    43   188   187    1
    44    11    10   ar
    45    11    12    1
    46   177   178    1
    47   183   182   ar
    48   187   186   ar
    49   100   102   ar
    50   100    99    1
    51   154   155    2
    52   156   155    1
    53   178   181    1
    54   178   179    1
    55   155   157    1
    56   182   181    1
    57   182   184   ar
    58    99    96    1
    59   186   184   ar
    60   179   180    2
    61    83    81   ar
    62    83    85   ar
    63    81    80   ar
    64   109   108    2
    65    96    97    1
    66    96    95    1
    67    86    85    1
    68    98    97    2
    69    85    84   ar
    70    97   106   am
    71   108   107    1
    72    78    77    2
    73    95    89   am
    74    80    79    1
    75    80    82   ar
    76   106   107    1
    77    79    76    1
    78   114   115    1
    79    90    89    2
    80    76    77    1
    81    76    75    1
    82    89    88    1
    83    77    87   am
    84    72    71    2
    85   117   116    2
    86   107   110    1
    87    84    82   ar
    88   143   144    2
    89   143   142    1
    90   118   115    1
    91   118   119    1
    92    87    88    1
    93   115   116    1
    94   209   210   ar
    95   209   207   ar
    96    88    91    1
    97   121   119   ar
    98   210   208   ar
    99   110   111    1
   100   207   205   ar
   101   142   141    1
   102   142   145    1
   103    71    75   am
   104    71    70    1
   105   208   206   ar
   106   205   206   ar
   107   205   204    1
   108   132   131    2
   109   119   120   ar
   110   204   201    1
   111   133   134    1
   112   133   130    1
   113   141   131   am
   114   131   130    1
   115   145   146    1
   116   111   113   ar
   117   111   112   ar
   118    73    70    1
   119    73    74    1
   120    91    92    1
   121    70    69    1
   122   136   134   ar
   123   136   138   ar
   124   134   135   ar
   125   130   129    1
   126   129   124   am
   127   201   200    1
   128   201   202    1
   129   189   190    1
   130   200   191   am
   131   138   139   ar
   132   135   137   ar
   133    94    92    1
   134   202   203    2
   135    92    93    1
   136    64    63    2
   137    69    63   am
   138   128   126    1
   139   198   197    1
   140   139   137   ar
   141   139   140    1
   142   193   190    1
   143   193   194    1
   144    63    62    1
   145   124   123    1
   146   124   125    2
   147   190   191    1
   148   191   192    2
   149   123   126    1
   150   123   122    1
   151    50    49    1
   152   223   224    1
   153   223   220    1
   154   224   225    1
   155   126   127    1
   156   195   194    1
   157   195   196    1
   158   197   196    2
   159   197   199    1
   160    62    61    1
   161    62    65    1
   162    49    51    1
   163    49    48    2
   164   226   225    1
   165   226   227    1
   166   222   221    2
   167   221   220    1
   168   220   219    1
   169   219   213   am
   170    65    66    1
   171    48    47    1
   172    47    46    1
   173    67    66   ar
   174    25    22    1
   175    66    68   ar
   176    13    14    1
   177   211   212    1
   178   213   212    1
   179   213   214    2
   180    14    17    1
   181    14    15    1
   182   215   212    1
   183   215   216    1
   184   215   217    1
   185    22    21    1
   186    22    23    1
   187   218   216    1
   188    46    45    1
   189    17    18    1
   190    45    42    1
   191    18    20   ar
   192    18    19   ar
   193    23    24    2
   194    23    26   am
   195    15    16    2
   196    54    55    2
   197    54    53    1
   198    42    43    1
   199    42    41    1
   200    44    43    2
   201    43    52   am
   202    26    27    1
   203    52    53    1
   204    32    31   ar
   205    53    56    1
   206    41    36   am
   207    56    57    1
   208    59    58   ar
   209    27    28    1
   210    27    30    1
   211    31    33   ar
   212    31    30    1
   213    36    37    2
   214    36    35    1
   215    34    28   am
   216    34    35    1
   217    28    29    2
   218    58    57    1
   219    58    60   ar
   220    40    38    1
   221    35    38    1
   222    38    39    1
