@<TRIPOS>MOLECULE
tmp/6mbvA00.pdb
 104 103 0 0 0
SMALL
GASTEIGER

@<TRIPOS>ATOM
      1  N        -33.5040    6.2530   11.2240 N.3    89  GLN89      -0.1245
      2  CA       -33.2140    5.1060   10.3750 C.3    89  GLN89       0.1566
      3  C        -33.4670    3.8450   11.1820 C.2    89  GLN89       0.2260
      4  O        -33.4790    3.8800   12.4090 O.2    89  GLN89      -0.2867
      5  CB       -31.7710    5.1110    9.8450 C.3    89  GLN89       0.0367
      6  CG       -30.7090    5.2100   10.9400 C.3    89  GLN89       0.0905
      7  CD       -29.9530    3.9180   11.2100 C.2    89  GLN89       0.2608
      8  OE1      -30.5030    2.8290   11.1060 O.2    89  GLN89      -0.2717
      9  NE2      -28.6910    4.0400   11.5630 N.am   89  GLN89      -0.0878
     10  N        -32.1060   -0.4710   10.9320 N.3    91  HIS91      -0.1241
     11  CA       -31.2140   -1.4080   10.3050 C.3    91  HIS91       0.1621
     12  C        -31.2980   -2.6890   11.1050 C.2    91  HIS91       0.2264
     13  O        -31.9660   -2.7500   12.1430 O.2    91  HIS91      -0.2867
     14  CB       -29.7770   -0.8980   10.2760 C.3    91  HIS91       0.0745
     15  CG       -29.2170   -0.6520   11.6380 C.ar   91  HIS91       0.0817
     16  ND1      -29.3010    0.5790   12.2640 N.ar   91  HIS91      -0.2268
     17  CD2      -28.6010   -1.4830   12.5180 C.ar   91  HIS91       0.1154
     18  CE1      -28.7510    0.4900   13.4620 C.ar   91  HIS91       0.1986
     19  NE2      -28.3150   -0.7440   13.6390 N.ar   91  HIS91      -0.2212
     20  N        -32.8800   -2.6300   14.7890 N.3   116  HIS116     -0.1241
     21  CA       -32.6440   -1.4040   15.5300 C.3   116  HIS116      0.1621
     22  C        -33.3320   -0.2510   14.8300 C.2   116  HIS116      0.2264
     23  O        -32.9520    0.1220   13.7090 O.2   116  HIS116     -0.2867
     24  CB       -31.1530   -1.1300   15.6490 C.3   116  HIS116      0.0745
     25  CG       -30.4570   -2.1150   16.5240 C.ar  116  HIS116      0.0817
     26  ND1      -29.0950   -2.3200   16.4970 N.ar  116  HIS116     -0.2268
     27  CD2      -30.9540   -2.9730   17.4430 C.ar  116  HIS116      0.1154
     28  CE1      -28.7760   -3.2360   17.3890 C.ar  116  HIS116      0.1986
     29  NE2      -29.8850   -3.6490   17.9810 N.ar  116  HIS116     -0.2212
     30  N        -33.6070    3.5700   15.1890 N.3   118  VAL118     -0.1245
     31  CA       -32.7470    4.5570   15.8260 C.3   118  VAL118      0.1561
     32  C        -33.4950    5.8720   15.8610 C.2   118  VAL118      0.2260
     33  O        -33.9320    6.3610   14.8080 O.2   118  VAL118     -0.2867
     34  CB       -31.4270    4.6990   15.0570 C.3   118  VAL118      0.0252
     35  CG1      -30.5450    5.6810   15.7090 C.3   118  VAL118      0.0019
     36  CG2      -30.7250    3.3490   14.9550 C.3   118  VAL118      0.0019
     37  N        -29.2440   14.7380   14.7170 N.3   127  PHE127     -0.1241
     38  CA       -28.6320   13.4820   15.1510 C.3   127  PHE127      0.1605
     39  C        -27.1780   13.6740   15.5480 C.2   127  PHE127      0.2264
     40  O        -26.7060   13.0670   16.5180 O.2   127  PHE127     -0.2867
     41  CB       -28.7330   12.4530   14.0270 C.3   127  PHE127      0.0534
     42  CG       -28.1260   11.1260   14.3610 C.ar  127  PHE127     -0.0203
     43  CD1      -28.8500   10.1630   15.0470 C.ar  127  PHE127     -0.0042
     44  CD2      -26.8370   10.8140   13.9530 C.ar  127  PHE127     -0.0042
     45  CE1      -28.2850    8.9530   15.3410 C.ar  127  PHE127     -0.0003
     46  CE2      -26.2780    9.6080   14.2520 C.ar  127  PHE127     -0.0003
     47  CZ       -26.9990    8.6760   14.9460 C.ar  127  PHE127     -0.0000
     48  N        -32.8870    3.7510   21.0500 N.3   139  VAL139     -0.1245
     49  CA       -32.9200    2.7140   20.0240 C.3   139  VAL139      0.1561
     50  C        -33.8840    1.6530   20.5040 C.2   139  VAL139      0.2260
     51  O        -33.7470    1.1500   21.6220 O.2   139  VAL139     -0.2867
     52  CB       -31.5410    2.1020   19.7330 C.3   139  VAL139      0.0252
     53  CG1      -31.6690    1.0730   18.6240 C.3   139  VAL139      0.0019
     54  CG2      -30.5820    3.1610   19.3250 C.3   139  VAL139      0.0019
     55  N        -24.1200    3.1560   21.0980 N.3   194  LEU194     -0.1231
     56  CA       -24.1100    2.6360   19.7350 C.3   194  LEU194      0.1693
     57  C        -23.3710    1.3080   19.7260 C.2   194  LEU194      0.2593
     58  O        -22.4170    1.1040   20.4780 O.2   194  LEU194     -0.2718
     59  CB       -23.4290    3.6190   18.7710 C.3   194  LEU194      0.0284
     60  CG       -23.9860    5.0480   18.7730 C.3   194  LEU194      0.0019
     61  CD1      -23.1720    5.9250   17.8960 C.3   194  LEU194      0.0001
     62  CD2      -25.3870    5.0470   18.3060 C.3   194  LEU194      0.0001
     63  N        -23.8100    0.3760   18.8880 N.am  195  THR195     -0.1939
     64  CA       -23.0930   -0.8980   18.8490 C.3   195  THR195      0.2028
     65  C        -22.1350   -0.9990   17.6740 C.2   195  THR195      0.2643
     66  O        -21.5630   -2.0720   17.4470 O.2   195  THR195     -0.2714
     67  CB       -24.0490   -2.0920   18.8210 C.3   195  THR195      0.1808
     68  OG1      -24.7560   -2.0690   17.5800 O.3   195  THR195     -0.2208
     69  CG2      -25.0050   -2.0720   19.9990 C.3   195  THR195      0.0379
     70  N        -21.9310    0.0810   16.9310 N.am  196  THR196     -0.1937
     71  CA       -20.8690    0.1700   15.9400 C.3   196  THR196      0.2013
     72  C        -20.0840    1.4220   16.2250 C.2   196  THR196      0.2484
     73  O        -20.6020    2.3740   16.8270 O.2   196  THR196     -0.2729
     74  CB       -21.3690    0.2270   14.4840 C.3   196  THR196      0.1807
     75  OG1      -22.2270    1.3570   14.2780 O.3   196  THR196     -0.2208
     76  CG2      -22.0990   -1.0160   14.1200 C.3   196  THR196      0.0379
     77  N        -18.8360    1.4780   15.8000 N.am  197  PRO197     -0.2715
     78  CA       -18.0790    2.7010   15.9050 C.3   197  PRO197      0.1521
     79  C        -18.9180    3.8690   15.4240 C.2   197  PRO197      0.2440
     80  O        -19.5840    3.7800   14.3830 O.2   197  PRO197     -0.2731
     81  CB       -16.8790    2.4220   14.9920 C.3   197  PRO197      0.0310
     82  CG       -16.6050    1.0030   15.2860 C.3   197  PRO197      0.0237
     83  CD       -18.0230    0.4090   15.2060 C.3   197  PRO197      0.0939
     84  N        -18.8940    4.9940   16.1380 N.am  198  PRO198     -0.2727
     85  CA       -17.9920    5.3660   17.2330 C.3   198  PRO198      0.1402
     86  C        -18.3610    4.8860   18.6320 C.2   198  PRO198      0.2269
     87  O        -17.7110    5.3590   19.5700 O.2   198  PRO198     -0.2865
     88  CB       -18.0320    6.9010   17.1830 C.3   198  PRO198      0.0296
     89  CG       -19.3220    7.2370   16.6060 C.3   198  PRO198      0.0237
     90  CD       -19.7440    6.1100   15.7150 C.3   198  PRO198      0.0939
     91  N        -31.5340    2.2500   25.6390 N.3   205  TRP205     -0.1241
     92  CA       -31.9430    1.0610   24.9300 C.3   205  TRP205      0.1605
     93  C        -33.3060    0.6320   25.4200 C.2   205  TRP205      0.2264
     94  O        -33.5470    0.5750   26.6240 O.2   205  TRP205     -0.2867
     95  CB       -30.9260   -0.0790   25.1430 C.3   205  TRP205      0.0550
     96  CG       -29.8370    0.0260   24.1450 C.ar  205  TRP205      0.0003
     97  CD1      -28.6070    0.6090   24.3110 C.ar  205  TRP205      0.0946
     98  CD2      -29.8900   -0.4170   22.7820 C.ar  205  TRP205      0.0152
     99  NE1      -27.9120    0.5690   23.1410 N.ar  205  TRP205     -0.2442
    100  CE2      -28.6610   -0.0780   22.1920 C.ar  205  TRP205      0.0810
    101  CE3      -30.8610   -1.0660   22.0030 C.ar  205  TRP205      0.0012
    102  CZ2      -28.3820   -0.3440   20.8640 C.ar  205  TRP205      0.0191
    103  CZ3      -30.5840   -1.3450   20.7090 C.ar  205  TRP205      0.0001
    104  CH2      -29.3520   -0.9970   20.1410 C.ar  205  TRP205      0.0015
@<TRIPOS>BOND
     1     5     2    1
     2     5     6    1
     3    14    11    1
     4    14    15    1
     5    11    10    1
     6    11    12    1
     7     2     3    1
     8     2     1    1
     9     6     7    1
    10    12    13    2
    11     8     7    2
    12     3     4    2
    13     7     9   am
    14    15    16   ar
    15    15    17   ar
    16    16    18   ar
    17    17    19   ar
    18    18    19   ar
    19    23    22    2
    20    44    46   ar
    21    44    42   ar
    22    41    42    1
    23    41    38    1
    24    76    74    1
    25    46    47   ar
    26    75    74    1
    27    42    43   ar
    28    80    79    2
    29    74    71    1
    30    37    38    1
    31    20    21    1
    32    33    32    2
    33    22    21    1
    34    47    45   ar
    35    36    34    1
    36    81    82    1
    37    81    78    1
    38    43    45   ar
    39    34    35    1
    40    34    31    1
    41    38    39    1
    42    30    31    1
    43    83    82    1
    44    83    77    1
    45    79    78    1
    46    79    84   am
    47    21    24    1
    48    39    40    2
    49    24    25    1
    50    90    84    1
    51    90    89    1
    52    77    78    1
    53    77    72   am
    54    31    32    1
    55    71    72    1
    56    71    70    1
    57    84    85    1
    58    72    73    2
    59    26    25   ar
    60    26    28   ar
    61    25    27   ar
    62    89    88    1
    63    70    65   am
    64    88    85    1
    65    85    86    1
    66    28    29   ar
    67    27    29   ar
    68    66    65    2
    69    68    67    1
    70    65    64    1
    71    61    60    1
    72    62    60    1
    73    53    52    1
    74    86    87    2
    75    59    60    1
    76    59    56    1
    77    67    64    1
    78    67    69    1
    79    64    63    1
    80    63    57   am
    81    54    52    1
    82    57    56    1
    83    57    58    2
    84    52    49    1
    85    56    55    1
    86    49    50    1
    87    49    48    1
    88   104   103   ar
    89   104   102   ar
    90    50    51    2
    91   103   101   ar
    92   102   100   ar
    93   101    98   ar
    94   100    98   ar
    95   100    99   ar
    96    98    96   ar
    97    99    97   ar
    98    96    97   ar
    99    96    95    1
   100    92    95    1
   101    92    93    1
   102    92    91    1
   103    93    94    2
