@<TRIPOS>MOLECULE
tmp/6mbyA00.pdb
 127 124 0 0 0
SMALL
GASTEIGER

@<TRIPOS>ATOM
      1  N        -29.4210    0.6650    5.8570 N.3    64  ASN64      -0.1240
      2  CA       -30.2100    1.6050    6.6010 C.3    64  ASN64       0.1653
      3  C        -31.3800    2.1110    5.7960 C.2    64  ASN64       0.2266
      4  O        -31.2280    2.5130    4.6550 O.2    64  ASN64      -0.2867
      5  CB       -29.3940    2.8520    6.9580 C.3    64  ASN64       0.1155
      6  CG       -28.1680    2.5510    7.7850 C.2    64  ASN64       0.2627
      7  OD1      -28.1390    1.6140    8.5640 O.2    64  ASN64      -0.2716
      8  ND2      -27.1440    3.3790    7.6230 N.am   64  ASN64      -0.0877
      9  N        -34.8810    8.5080   12.8000 N.3    88  ILE88      -0.1231
     10  CA       -33.9690    8.8840   11.7320 C.3    88  ILE88       0.1692
     11  C        -33.6730    7.7290   10.7820 C.2    88  ILE88       0.2591
     12  O        -33.5900    7.9410    9.5660 O.2    88  ILE88      -0.2718
     13  CB       -32.6640    9.5180   12.2610 C.3    88  ILE88       0.0266
     14  CG1      -31.7010    9.7840   11.1000 C.3    88  ILE88       0.0019
     15  CG2      -31.9870    8.6460   13.3090 C.3    88  ILE88       0.0020
     16  CD1      -30.5400   10.7060   11.4640 C.3    88  ILE88       0.0001
     17  N        -33.5710    6.5050   11.2860 N.am   89  GLN89      -0.1979
     18  CA       -33.3150    5.3850   10.4110 C.3    89  GLN89       0.1601
     19  C        -33.5520    4.1170   11.2010 C.2    89  GLN89       0.2287
     20  O        -33.6210    4.1430   12.4310 O.2    89  GLN89      -0.2864
     21  CB       -31.8860    5.3910    9.8890 C.3    89  GLN89       0.0394
     22  CG       -30.8100    5.4310   10.9690 C.3    89  GLN89       0.0908
     23  CD       -30.0000    4.1630   10.9990 C.2    89  GLN89       0.2608
     24  OE1      -30.4920    3.1110   11.4030 O.2    89  GLN89      -0.2717
     25  NE2      -28.7770    4.2430   10.5050 N.am   89  GLN89      -0.0878
     26  N        -32.1040   -0.1820   10.9560 N.3    91  HIS91      -0.1241
     27  CA       -31.1840   -1.1220   10.3510 C.3    91  HIS91       0.1621
     28  C        -31.2790   -2.3960   11.1630 C.2    91  HIS91       0.2264
     29  O        -31.9210   -2.4360   12.2100 O.2    91  HIS91      -0.2867
     30  CB       -29.7400   -0.6290   10.3400 C.3    91  HIS91       0.0745
     31  CG       -29.1990   -0.3890   11.7040 C.ar   91  HIS91       0.0817
     32  ND1      -29.3040    0.8260   12.3440 N.ar   91  HIS91      -0.2268
     33  CD2      -28.6050   -1.2270   12.5820 C.ar   91  HIS91       0.1154
     34  CE1      -28.7810    0.7260   13.5530 C.ar   91  HIS91       0.1986
     35  NE2      -28.3790   -0.5180   13.7340 N.ar   91  HIS91      -0.2212
     36  N        -32.9560   -2.3750   14.8540 N.3   116  HIS116     -0.1241
     37  CA       -32.7260   -1.1620   15.6270 C.3   116  HIS116      0.1621
     38  C        -33.3960   -0.0060   14.9250 C.2   116  HIS116      0.2264
     39  O        -32.9930    0.3710   13.8190 O.2   116  HIS116     -0.2867
     40  CB       -31.2390   -0.9070   15.7290 C.3   116  HIS116      0.0745
     41  CG       -30.5600   -1.8930   16.6130 C.ar  116  HIS116      0.0817
     42  ND1      -29.1950   -2.1010   16.6090 N.ar  116  HIS116     -0.2268
     43  CD2      -31.0670   -2.7160   17.5550 C.ar  116  HIS116      0.1154
     44  CE1      -28.9050   -3.0180   17.5150 C.ar  116  HIS116      0.1986
     45  NE2      -30.0220   -3.4190   18.0880 N.ar  116  HIS116     -0.2212
     46  N        -33.6880    3.8150   15.2450 N.3   118  VAL118     -0.1245
     47  CA       -32.8430    4.8120   15.8780 C.3   118  VAL118      0.1561
     48  C        -33.5680    6.1420   15.8790 C.2   118  VAL118      0.2260
     49  O        -34.0140    6.6110   14.8220 O.2   118  VAL118     -0.2867
     50  CB       -31.5150    4.9340   15.1280 C.3   118  VAL118      0.0252
     51  CG1      -30.6430    5.9730   15.7910 C.3   118  VAL118      0.0019
     52  CG2      -30.7980    3.5780   15.0430 C.3   118  VAL118      0.0019
     53  N        -29.2290   15.2090   14.8450 N.3   127  PHE127     -0.1241
     54  CA       -28.6700   13.9320   15.2730 C.3   127  PHE127      0.1605
     55  C        -27.2180   14.0730   15.6920 C.2   127  PHE127      0.2264
     56  O        -26.7880   13.4700   16.6790 O.2   127  PHE127     -0.2867
     57  CB       -28.7970   12.9340   14.1150 C.3   127  PHE127      0.0534
     58  CG       -28.2120   11.5960   14.4020 C.ar  127  PHE127     -0.0203
     59  CD1      -28.9700   10.6300   15.0170 C.ar  127  PHE127     -0.0042
     60  CD2      -26.9090   11.2960   14.0370 C.ar  127  PHE127     -0.0042
     61  CE1      -28.4530    9.3990   15.2920 C.ar  127  PHE127     -0.0003
     62  CE2      -26.3760   10.0620   14.3090 C.ar  127  PHE127     -0.0003
     63  CZ       -27.1520    9.1000   14.9430 C.ar  127  PHE127     -0.0000
     64  N        -25.9260   12.8310   19.4800 N.3   131  VAL131     -0.1245
     65  CA       -25.0170   11.7380   19.8300 C.3   131  VAL131      0.1561
     66  C        -23.9310   12.1710   20.8060 C.2   131  VAL131      0.2260
     67  O        -23.2520   11.3150   21.3840 O.2   131  VAL131     -0.2867
     68  CB       -24.3890   11.0300   18.6060 C.3   131  VAL131      0.0252
     69  CG1      -25.4670   10.4430   17.7320 C.3   131  VAL131      0.0019
     70  CG2      -23.4930   11.9700   17.8340 C.3   131  VAL131      0.0019
     71  N        -32.9650    4.0050   21.0980 N.3   139  VAL139     -0.1245
     72  CA       -33.0000    2.9500   20.0910 C.3   139  VAL139      0.1561
     73  C        -33.9660    1.8880   20.5600 C.2   139  VAL139      0.2260
     74  O        -33.8370    1.3680   21.6800 O.2   139  VAL139     -0.2867
     75  CB       -31.6270    2.3470   19.7730 C.3   139  VAL139      0.0252
     76  CG1      -31.7550    1.3210   18.6400 C.3   139  VAL139      0.0019
     77  CG2      -30.6860    3.4250   19.3590 C.3   139  VAL139      0.0019
     78  N        -24.1610    3.3910   21.1350 N.3   194  LEU194     -0.1231
     79  CA       -24.1850    2.8480   19.7860 C.3   194  LEU194      0.1693
     80  C        -23.4090    1.5500   19.8140 C.2   194  LEU194      0.2593
     81  O        -22.4250    1.4020   20.5600 O.2   194  LEU194     -0.2718
     82  CB       -23.4820    3.7800   18.8040 C.3   194  LEU194      0.0284
     83  CG       -23.9330    5.2310   18.7410 C.3   194  LEU194      0.0019
     84  CD1      -23.0710    6.0260   17.7490 C.3   194  LEU194      0.0001
     85  CD2      -25.4070    5.3140   18.4030 C.3   194  LEU194      0.0001
     86  N        -23.8150    0.6010   18.9750 N.am  195  THR195     -0.1939
     87  CA       -23.1220   -0.6800   18.9280 C.3   195  THR195      0.2028
     88  C        -22.1600   -0.7740   17.7650 C.2   195  THR195      0.2643
     89  O        -21.5470   -1.8270   17.5730 O.2   195  THR195     -0.2714
     90  CB       -24.1010   -1.8350   18.8570 C.3   195  THR195      0.1808
     91  OG1      -24.7750   -1.7920   17.5990 O.3   195  THR195     -0.2208
     92  CG2      -25.0990   -1.8000   20.0320 C.3   195  THR195      0.0379
     93  N        -21.9800    0.3110   17.0130 N.am  196  THR196     -0.1937
     94  CA       -20.9570    0.4440   15.9960 C.3   196  THR196      0.2013
     95  C        -20.1300    1.6760   16.3010 C.2   196  THR196      0.2484
     96  O        -20.6210    2.6280   16.9180 O.2   196  THR196     -0.2729
     97  CB       -21.5640    0.6140   14.5980 C.3   196  THR196      0.1807
     98  OG1      -22.4930    1.7120   14.5840 O.3   196  THR196     -0.2208
     99  CG2      -22.2580   -0.6450   14.1780 C.3   196  THR196      0.0379
    100  N        -18.8700    1.6910   15.8920 N.am  197  PRO197     -0.2715
    101  CA       -18.0990    2.9110   16.0210 C.3   197  PRO197      0.1521
    102  C        -18.8750    4.0860   15.4550 C.2   197  PRO197      0.2440
    103  O        -19.4770    3.9950   14.3730 O.2   197  PRO197     -0.2731
    104  CB       -16.8310    2.5990   15.2070 C.3   197  PRO197      0.0310
    105  CG       -16.6780    1.1410   15.3210 C.3   197  PRO197      0.0237
    106  CD       -18.1070    0.6110   15.2470 C.3   197  PRO197      0.0939
    107  N        -18.8560    5.2320   16.1370 N.am  198  PRO198     -0.2727
    108  CA       -17.9910    5.6230   17.2610 C.3   198  PRO198      0.1402
    109  C        -18.3660    5.1560   18.6800 C.2   198  PRO198      0.2269
    110  O        -17.7120    5.5620   19.6400 O.2   198  PRO198     -0.2865
    111  CB       -18.0350    7.1540   17.1880 C.3   198  PRO198      0.0296
    112  CG       -19.3640    7.4650   16.6620 C.3   198  PRO198      0.0237
    113  CD       -19.6180    6.3820   15.6230 C.3   198  PRO198      0.0939
    114  N        -31.5650    2.5430   25.6550 N.3   205  TRP205     -0.1241
    115  CA       -31.9890    1.3440   24.9570 C.3   205  TRP205      0.1605
    116  C        -33.3560    0.9230   25.4430 C.2   205  TRP205      0.2264
    117  O        -33.6010    0.8290   26.6430 O.2   205  TRP205     -0.2867
    118  CB       -30.9910    0.1970   25.1570 C.3   205  TRP205      0.0550
    119  CG       -29.8990    0.3020   24.1710 C.ar  205  TRP205      0.0003
    120  CD1      -28.6810    0.8820   24.3500 C.ar  205  TRP205      0.0946
    121  CD2      -29.9440   -0.1330   22.8130 C.ar  205  TRP205      0.0152
    122  NE1      -27.9740    0.8430   23.1820 N.ar  205  TRP205     -0.2442
    123  CE2      -28.7130    0.1970   22.2300 C.ar  205  TRP205      0.0810
    124  CE3      -30.9060   -0.7960   22.0360 C.ar  205  TRP205      0.0012
    125  CZ2      -28.4330   -0.0710   20.9100 C.ar  205  TRP205      0.0191
    126  CZ3      -30.6160   -1.0710   20.7340 C.ar  205  TRP205      0.0001
    127  CH2      -29.3990   -0.7400   20.1860 C.ar  205  TRP205      0.0015
@<TRIPOS>BOND
     1     4     3    2
     2     3     2    1
     3     1     2    1
     4     2     5    1
     5     5     6    1
     6     8     6   am
     7     6     7    2
     8    12    11    2
     9    21    18    1
    10    21    22    1
    11    30    27    1
    12    30    31    1
    13    27    26    1
    14    27    28    1
    15    18    19    1
    16    18    17    1
    17    25    23   am
    18    11    17   am
    19    11    10    1
    20    22    23    1
    21    23    24    2
    22    14    16    1
    23    14    13    1
    24    28    29    2
    25    19    20    2
    26    31    32   ar
    27    31    33   ar
    28    10    13    1
    29    10     9    1
    30    13    15    1
    31    32    34   ar
    32    33    35   ar
    33    34    35   ar
    34    39    38    2
    35    60    62   ar
    36    60    58   ar
    37    57    58    1
    38    57    54    1
    39    99    97    1
    40    62    63   ar
    41   103   102    2
    42    58    59   ar
    43    98    97    1
    44    97    94    1
    45    49    48    2
    46    53    54    1
    47    36    37    1
    48    38    37    1
    49    63    61   ar
    50    59    61   ar
    51    52    50    1
    52    50    51    1
    53    50    47    1
    54   104   105    1
    55   104   101    1
    56    46    47    1
    57   106   105    1
    58   106   100    1
    59    54    55    1
    60   102   101    1
    61   102   107   am
    62   113   107    1
    63   113   112    1
    64    37    40    1
    65    55    56    2
    66    40    41    1
    67    47    48    1
    68   100   101    1
    69   100    95   am
    70    94    95    1
    71    94    93    1
    72   107   108    1
    73    95    96    2
    74    42    41   ar
    75    42    44   ar
    76    41    43   ar
    77   112   111    1
    78    93    88   am
    79   111   108    1
    80   108   109    1
    81    44    45   ar
    82    43    45   ar
    83    89    88    2
    84    91    90    1
    85    69    68    1
    86    84    83    1
    87    88    87    1
    88    70    68    1
    89    85    83    1
    90    68    65    1
    91    76    75    1
    92   109   110    2
    93    83    82    1
    94    82    79    1
    95    90    87    1
    96    90    92    1
    97    87    86    1
    98    86    80   am
    99    77    75    1
   100    64    65    1
   101    75    72    1
   102    79    80    1
   103    79    78    1
   104    80    81    2
   105    65    66    1
   106    72    73    1
   107    72    71    1
   108   127   126   ar
   109   127   125   ar
   110    73    74    2
   111   126   124   ar
   112    66    67    2
   113   125   123   ar
   114   124   121   ar
   115   123   121   ar
   116   123   122   ar
   117   121   119   ar
   118   122   120   ar
   119   119   120   ar
   120   119   118    1
   121   115   118    1
   122   115   116    1
   123   115   114    1
   124   116   117    2
