@<TRIPOS>MOLECULE
tmp/6mc0A00.pdb
 113 107 0 0 0
SMALL
GASTEIGER

@<TRIPOS>ATOM
      1  N        -34.8260   -5.6100    0.0340 N.3     7  LYS7       -0.1245
      2  CA       -33.7350   -4.6500    0.1760 C.3     7  LYS7        0.1561
      3  C        -34.0640   -3.3410   -0.5280 C.2     7  LYS7        0.2260
      4  O        -33.7810   -2.2580   -0.0040 O.2     7  LYS7       -0.2867
      5  CB       -32.4300   -5.2460   -0.3540 C.3     7  LYS7        0.0271
      6  CG       -31.9030   -6.3660    0.5080 C.3     7  LYS7        0.0035
      7  CD       -30.7320   -7.0690   -0.1480 C.3     7  LYS7        0.0206
      8  CE       -30.2350   -8.2080    0.7500 C.3     7  LYS7        0.1093
      9  NZ       -29.1290   -8.9350    0.0750 N.3     7  LYS7       -0.1314
     10  N        -21.9430   -0.0280    3.4560 N.3    28  THR28      -0.1203
     11  CA       -21.4500   -1.0240    2.5090 C.3    28  THR28       0.1994
     12  C        -22.3940   -2.2120    2.4660 C.2    28  THR28       0.2618
     13  O        -23.1800   -2.4440    3.3810 O.2    28  THR28      -0.2717
     14  CB       -20.0500   -1.5540    2.8520 C.3    28  THR28       0.1784
     15  OG1      -20.1370   -2.4150    3.9910 O.3    28  THR28      -0.2211
     16  CG2      -19.1080   -0.4290    3.1550 C.3    28  THR28       0.0376
     17  N        -22.3300   -2.9500    1.3690 N.am   29  GLY29      -0.1942
     18  CA       -23.0500   -4.2040    1.2500 C.3    29  GLY29       0.2014
     19  C        -24.1820   -4.1100    0.2410 C.2    29  GLY29       0.2640
     20  O        -24.4340   -3.0680   -0.3700 O.2    29  GLY29      -0.2714
     21  N        -24.8820   -5.2410    0.1070 N.am   30  SER30      -0.1935
     22  CA       -25.8340   -5.3980   -0.9830 C.3    30  SER30       0.2055
     23  C        -27.0840   -4.5490   -0.7590 C.2    30  SER30       0.2644
     24  O        -27.6620   -4.0270   -1.7220 O.2    30  SER30      -0.2714
     25  CB       -26.1950   -6.8770   -1.1430 C.3    30  SER30       0.2130
     26  OG       -26.9330   -7.3500   -0.0240 O.3    30  SER30      -0.2179
     27  N        -27.5290   -4.4040    0.4960 N.am   31  THR31      -0.1936
     28  CA       -28.6720   -3.5290    0.7640 C.3    31  THR31       0.2028
     29  C        -28.3130   -2.0740    0.4690 C.2    31  THR31       0.2642
     30  O        -29.0670   -1.3520   -0.2000 O.2    31  THR31      -0.2714
     31  CB       -29.1460   -3.6910    2.2140 C.3    31  THR31       0.1808
     32  OG1      -29.3720   -5.0770    2.4940 O.3    31  THR31      -0.2208
     33  CG2      -30.4620   -2.9070    2.4520 C.3    31  THR31       0.0379
     34  N        -27.1560   -1.6350    0.9580 N.am   32  VAL32      -0.1977
     35  CA       -26.6720   -0.2820    0.6800 C.3    32  VAL32       0.1596
     36  C        -26.5380   -0.0510   -0.8250 C.2    32  VAL32       0.2287
     37  O        -26.8080    1.0490   -1.3220 O.2    32  VAL32      -0.2864
     38  CB       -25.3440   -0.0550    1.4220 C.3    32  VAL32       0.0276
     39  CG1      -24.4980    1.0110    0.7510 C.3    32  VAL32       0.0022
     40  CG2      -25.6390    0.2870    2.8850 C.3    32  VAL32       0.0022
     41  N        -26.7130    2.6110    6.3300 N.3    81  ASP81      -0.1225
     42  CA       -25.8920    1.4090    6.2500 C.3    81  ASP81       0.1805
     43  C        -26.7540    0.2080    6.6030 C.2    81  ASP81       0.2598
     44  O        -27.7950    0.3380    7.2460 O.2    81  ASP81      -0.2718
     45  CB       -24.6770    1.5150    7.1890 C.3    81  ASP81       0.1424
     46  CG       -23.5470    0.5320    6.8490 C.2    81  ASP81       0.3668
     47  OD1      -23.6820   -0.3090    5.9140 O.co2  81  ASP81      -0.2456
     48  OD2      -22.4990    0.6210    7.5390 O.co2  81  ASP81      -0.2456
     49  N        -26.3140   -0.9650    6.1580 N.am   82  GLY82      -0.1942
     50  CA       -26.9340   -2.2130    6.5470 C.3    82  GLY82       0.2014
     51  C        -26.3090   -2.7500    7.8210 C.2    82  GLY82       0.2639
     52  O        -25.5320   -2.0750    8.5020 O.2    82  GLY82      -0.2714
     53  N        -26.6670   -3.9940    8.1430 N.am   83  ALA83      -0.1963
     54  CA       -26.0980   -4.6910    9.2920 C.3    83  ALA83       0.1728
     55  C        -26.2970   -6.1900    9.1010 C.2    83  ALA83       0.2616
     56  O        -27.1840   -6.6280    8.3650 O.2    83  ALA83      -0.2715
     57  CB       -26.7310   -4.2210   10.6190 C.3    83  ALA83       0.0334
     58  N        -25.4460   -6.9710    9.7550 N.am   84  ASP84      -0.1971
     59  CA       -25.6190   -8.4180    9.7260 C.3    84  ASP84       0.1709
     60  C        -26.6480   -8.8740   10.7560 C.2    84  ASP84       0.2293
     61  O        -27.4250   -9.8010   10.4960 O.2    84  ASP84      -0.2864
     62  CB       -24.2700   -9.0990    9.9540 C.3    84  ASP84       0.1436
     63  CG       -23.2230   -8.6540    8.9420 C.2    84  ASP84       0.3671
     64  OD1      -23.4230   -8.9300    7.7550 O.co2  84  ASP84      -0.2456
     65  OD2      -22.2110   -8.0150    9.3170 O.co2  84  ASP84      -0.2456
     66  N        -21.9490   -5.8480   12.7350 N.3    94  LYS94      -0.1231
     67  CA       -21.5790   -5.5100   11.3710 C.3    94  LYS94       0.1693
     68  C        -20.2430   -6.1740   11.0350 C.2    94  LYS94       0.2593
     69  O        -19.6120   -6.8360   11.8800 O.2    94  LYS94      -0.2718
     70  CB       -21.5430   -3.9840   11.1940 C.3    94  LYS94       0.0285
     71  CG       -22.9570   -3.3560   11.1650 C.3    94  LYS94       0.0035
     72  CD       -22.9390   -1.8160   11.1930 C.3    94  LYS94       0.0206
     73  CE       -22.1720   -1.2440   10.0030 C.3    94  LYS94       0.1093
     74  NZ       -22.7720   -1.7640    8.7240 N.3    94  LYS94      -0.1314
     75  N        -19.8220   -6.0180    9.7820 N.am   95  GLY95      -0.1942
     76  CA       -18.5200   -6.4900    9.3450 C.3    95  GLY95       0.2014
     77  C        -18.5170   -7.7700    8.5370 C.2    95  GLY95       0.2639
     78  O        -17.4320   -8.2430    8.1750 O.2    95  GLY95      -0.2714
     79  N        -19.6790   -8.3650    8.2630 N.am   96  GLY96      -0.1939
     80  CA       -19.7190   -9.4910    7.3440 C.3    96  GLY96       0.2014
     81  C        -18.9980   -9.1930    6.0430 C.2    96  GLY96       0.2639
     82  O        -18.2740  -10.0380    5.5140 O.2    96  GLY96      -0.2714
     83  N        -19.1480   -7.9680    5.5350 N.am   97  GLY97      -0.1939
     84  CA       -18.4770   -7.5760    4.3180 C.3    97  GLY97       0.2014
     85  C        -17.0840   -7.0360    4.5090 C.2    97  GLY97       0.2639
     86  O        -16.4500   -6.6420    3.5300 O.2    97  GLY97      -0.2714
     87  N        -16.5910   -6.9860    5.7450 N.am   98  GLY98      -0.1939
     88  CA       -15.2090   -6.6190    5.9910 C.3    98  GLY98       0.2014
     89  C        -14.9160   -5.1380    6.0670 C.2    98  GLY98       0.2638
     90  O        -13.7360   -4.7650    6.1330 O.2    98  GLY98      -0.2714
     91  N        -15.9360   -4.2720    6.0870 N.am   99  ALA99      -0.1977
     92  CA       -15.7050   -2.8330    6.0720 C.3    99  ALA99       0.1597
     93  C        -16.0060   -2.1770    7.4180 C.2    99  ALA99       0.2287
     94  O        -16.1060   -0.9520    7.4920 O.2    99  ALA99      -0.2864
     95  CB       -16.5240   -2.1730    4.9630 C.3    99  ALA99       0.0319
     96  N        -16.7210    1.8420    8.4530 N.3   103  GLU103     -0.1245
     97  CA       -18.1360    1.9790    8.7920 C.3   103  GLU103      0.1567
     98  C        -18.3070    2.6120   10.1680 C.2   103  GLU103      0.2260
     99  O        -19.0740    3.5700   10.3300 O.2   103  GLU103     -0.2867
    100  CB       -18.8370    0.6160    8.7250 C.3   103  GLU103      0.0388
    101  CG       -18.9540    0.0740    7.2880 C.3   103  GLU103      0.1160
    102  CD       -19.5060   -1.3380    7.2070 C.2   103  GLU103      0.3649
    103  OE1      -19.2910   -2.1410    8.1310 O.co2 103  GLU103     -0.2457
    104  OE2      -20.1680   -1.6420    6.2010 O.co2 103  GLU103     -0.2457
    105  N        -32.4630   -9.8690    9.0970 N.3   121  LYS121     -0.1245
    106  CA       -31.3900   -9.3470    9.9460 C.3   121  LYS121      0.1561
    107  C        -31.8460   -9.0160   11.3600 C.2   121  LYS121      0.2260
    108  O        -30.9990   -8.6920   12.1990 O.2   121  LYS121     -0.2867
    109  CB       -30.7580   -8.0760    9.3550 C.3   121  LYS121      0.0271
    110  CG       -30.3540   -8.1630    7.8830 C.3   121  LYS121      0.0035
    111  CD       -29.2480   -9.1880    7.6650 C.3   121  LYS121      0.0206
    112  CE       -28.7970   -9.2050    6.2090 C.3   121  LYS121      0.1093
    113  NZ       -28.3330   -7.8290    5.8360 N.3   121  LYS121     -0.1314
@<TRIPOS>BOND
     1    24    23    2
     2    37    36    2
     3    25    22    1
     4    25    26    1
     5    22    23    1
     6    22    21    1
     7    36    35    1
     8    23    27   am
     9     3     4    2
    10     3     2    1
    11    20    19    2
    12     5     2    1
    13     5     6    1
    14    30    29    2
    15     7     6    1
    16     7     8    1
    17     1     2    1
    18     9     8    1
    19    21    19   am
    20    19    18    1
    21    29    28    1
    22    29    34   am
    23    27    28    1
    24    35    34    1
    25    35    38    1
    26    39    38    1
    27    28    31    1
    28    18    17    1
    29    17    12   am
    30    38    40    1
    31    31    33    1
    32    31    32    1
    33    12    11    1
    34    12    13    2
    35    11    14    1
    36    11    10    1
    37    14    16    1
    38    14    15    1
    39    86    85    2
    40    84    85    1
    41    84    83    1
    42    85    87   am
    43    95    92    1
    44    82    81    2
    45    83    81   am
    46    87    88    1
    47   113   112    1
    48    47    46   ar
    49    88    89    1
    50    81    80    1
    51    89    91   am
    52    89    90    2
    53    92    91    1
    54    92    93    1
    55    49    50    1
    56    49    43   am
    57   104   102   ar
    58   112   111    1
    59    42    41    1
    60    42    43    1
    61    42    45    1
    62    50    51    1
    63    43    44    2
    64    46    45    1
    65    46    48   ar
    66   102   101    1
    67   102   103   ar
    68   101   100    1
    69    80    79    1
    70    93    94    2
    71   111   110    1
    72    64    63   ar
    73    51    53   am
    74    51    52    2
    75   110   109    1
    76    53    54    1
    77    78    77    2
    78    79    77   am
    79    56    55    2
    80    96    97    1
    81    77    76    1
    82    74    73    1
    83   100    97    1
    84    97    98    1
    85    63    65   ar
    86    63    62    1
    87   105   106    1
    88    55    54    1
    89    55    58   am
    90    54    57    1
    91    76    75    1
    92   109   106    1
    93    59    58    1
    94    59    62    1
    95    59    60    1
    96    75    68   am
    97   106   107    1
    98    73    72    1
    99    98    99    2
   100    61    60    2
   101    68    67    1
   102    68    69    2
   103    71    72    1
   104    71    70    1
   105    70    67    1
   106   107   108    2
   107    67    66    1
