@<TRIPOS>MOLECULE
tmp/6mckE00.pdb
 151 140 0 0 0
SMALL
GASTEIGER

@<TRIPOS>ATOM
      1  N         -6.1760    3.0460   55.2010 N.3   242  GLN242     -0.1231
      2  CA        -7.5090    3.2360   55.7340 C.3   242  GLN242      0.1698
      3  C         -7.7240    4.7260   56.0230 C.2   242  GLN242      0.2592
      4  O         -8.1100    5.1070   57.1270 O.2   242  GLN242     -0.2718
      5  CB        -7.6990    2.3570   56.9700 C.3   242  GLN242      0.0381
      6  CG        -7.5950    0.8680   56.6660 C.3   242  GLN242      0.0905
      7  CD        -8.4750    0.0340   57.5660 C.2   242  GLN242      0.2608
      8  OE1       -8.5810    0.2790   58.7670 O.2   242  GLN242     -0.2717
      9  NE2       -9.1210   -0.9650   56.9850 N.am  242  GLN242     -0.0878
     10  N         -7.4620    5.5570   55.0090 N.am  243  VAL243     -0.1980
     11  CA        -7.8910    6.9380   55.0150 C.3   243  VAL243      0.1595
     12  C         -9.0240    7.0530   53.9890 C.2   243  VAL243      0.2287
     13  O         -8.8290    6.8020   52.8010 O.2   243  VAL243     -0.2864
     14  CB        -6.7350    7.9300   54.7550 C.3   243  VAL243      0.0276
     15  CG1       -6.1090    7.7790   53.3790 C.3   243  VAL243      0.0022
     16  CG2       -7.1670    9.3750   54.9650 C.3   243  VAL243      0.0022
     17  N        -12.5000   11.4900   55.2930 N.3   247  ASP247     -0.1225
     18  CA       -11.4710   11.9190   56.2500 C.3   247  ASP247      0.1805
     19  C        -10.8220   13.2080   55.7270 C.2   247  ASP247      0.2597
     20  O        -10.5190   14.1240   56.5080 O.2   247  ASP247     -0.2718
     21  CB       -10.4300   10.8190   56.4970 C.3   247  ASP247      0.1424
     22  CG       -10.8560    9.7310   57.4730 C.2   247  ASP247      0.3668
     23  OD1      -11.9010    9.9030   58.1230 O.co2 247  ASP247     -0.2456
     24  OD2      -10.1310    8.7210   57.5840 O.co2 247  ASP247     -0.2456
     25  N        -10.6280   13.2620   54.4010 N.am  248  ILE248     -0.1980
     26  CA       -10.1250   14.4360   53.6890 C.3   248  ILE248      0.1595
     27  C        -11.3190   15.2970   53.2700 C.2   248  ILE248      0.2287
     28  O        -11.7560   15.2560   52.1140 O.2   248  ILE248     -0.2864
     29  CB        -9.2430   14.0160   52.4930 C.3   248  ILE248      0.0276
     30  CG1       -8.1110   13.0910   52.9570 C.3   248  ILE248      0.0022
     31  CG2       -8.7290   15.2340   51.7250 C.3   248  ILE248      0.0022
     32  CD1       -7.1000   12.7430   51.9010 C.3   248  ILE248      0.0001
     33  N        -11.1860   19.8210   49.3190 N.3   251  LEU251     -0.1245
     34  CA       -10.3240   19.4200   48.2080 C.3   251  LEU251      0.1561
     35  C        -11.1330   18.4790   47.2970 C.2   251  LEU251      0.2260
     36  O        -10.8570   17.2820   47.2130 O.2   251  LEU251     -0.2867
     37  CB        -9.0490   18.7540   48.7550 C.3   251  LEU251      0.0270
     38  CG        -7.9710   19.7070   49.2980 C.3   251  LEU251      0.0019
     39  CD1       -6.9600   18.9940   50.1860 C.3   251  LEU251      0.0001
     40  CD2       -7.2350   20.4010   48.1630 C.3   251  LEU251      0.0001
     41  N          4.4030   22.6150   50.2970 N.3   289  PRO289     -0.2102
     42  CA         4.8870   21.4660   51.0690 C.3   289  PRO289      0.1504
     43  C          4.0070   21.0710   52.2610 C.2   289  PRO289      0.2576
     44  O          4.0800   19.9340   52.7270 O.2   289  PRO289     -0.2718
     45  CB         6.2420   21.9230   51.6460 C.3   289  PRO289      0.0282
     46  CG         6.6240   23.1290   50.8150 C.3   289  PRO289      0.0208
     47  CD         5.3020   23.7730   50.4600 C.3   289  PRO289      0.0893
     48  N          3.2190   22.0270   52.7560 N.am  290  GLY290     -0.1943
     49  CA         2.2830   21.7790   53.8410 C.3   290  GLY290      0.2014
     50  C          0.9300   21.3260   53.3240 C.2   290  GLY290      0.2639
     51  O         -0.0060   22.1110   53.1710 O.2   290  GLY290     -0.2714
     52  N          0.8450   20.0270   53.0450 N.am  291  CYS291     -0.1953
     53  CA        -0.3830   19.3820   52.6210 C.3   291  CYS291      0.1843
     54  C         -0.2120   17.8610   52.6790 C.2   291  CYS291      0.2626
     55  O          0.8910   17.3410   52.9310 O.2   291  CYS291     -0.2714
     56  CB        -0.7940   19.8250   51.2210 C.3   291  CYS291      0.0997
     57  SG        -2.0770   21.0980   51.2190 S.3   291  CYS291     -0.0797
     58  N         -1.3220   17.1530   52.4590 N.am  292  GLY292     -0.1954
     59  CA        -1.3370   15.7140   52.5260 C.3   292  GLY292      0.1869
     60  C         -1.3590   15.1200   51.1380 C.2   292  GLY292      0.2309
     61  O         -2.2990   14.4100   50.7610 O.2   292  GLY292     -0.2863
     62  N         -1.6110   11.6980   51.6220 N.3   295  LEU295     -0.1231
     63  CA        -2.8790   11.2860   52.1550 C.3   295  LEU295      0.1693
     64  C         -3.9320   11.2490   51.0550 C.2   295  LEU295      0.2591
     65  O         -4.8170   10.4280   51.1520 O.2   295  LEU295     -0.2718
     66  CB        -3.2960   12.2480   53.2670 C.3   295  LEU295      0.0284
     67  CG        -2.6780   11.9370   54.6290 C.3   295  LEU295      0.0019
     68  CD1       -1.2180   12.3790   54.6910 C.3   295  LEU295      0.0001
     69  CD2       -3.4880   12.5720   55.7440 C.3   295  LEU295      0.0001
     70  N         -3.8400   12.1580   50.0680 N.am  296  LEU296     -0.1980
     71  CA        -4.7710   12.1370   48.9190 C.3   296  LEU296      0.1596
     72  C         -4.5630   10.8460   48.1320 C.2   296  LEU296      0.2287
     73  O         -5.5250   10.1310   47.7670 O.2   296  LEU296     -0.2864
     74  CB        -4.5160   13.3060   47.9660 C.3   296  LEU296      0.0297
     75  CG        -4.6190   14.7300   48.5160 C.3   296  LEU296      0.0022
     76  CD1       -5.2660   15.6380   47.4820 C.3   296  LEU296      0.0001
     77  CD2       -5.3920   14.8170   49.8250 C.3   296  LEU296      0.0001
     78  N         -2.3490   20.3630   43.9640 N.3   405  ILE405     -0.1245
     79  CA        -2.8440   20.0710   45.2900 C.3   405  ILE405      0.1561
     80  C         -2.5030   21.2820   46.1400 C.2   405  ILE405      0.2260
     81  O         -1.3830   21.4090   46.6440 O.2   405  ILE405     -0.2867
     82  CB        -2.2510   18.7750   45.8820 C.3   405  ILE405      0.0252
     83  CG1       -2.9190   17.5200   45.3060 C.3   405  ILE405      0.0019
     84  CG2       -2.3450   18.7900   47.4080 C.3   405  ILE405      0.0019
     85  CD1       -2.8160   17.3620   43.8050 C.3   405  ILE405      0.0001
     86  N         -5.0130   23.7940   52.0970 N.3   408  PRO408     -0.2116
     87  CA        -6.2790   23.2550   52.5840 C.3   408  PRO408      0.1372
     88  C         -7.3760   24.3280   52.6810 C.2   408  PRO408      0.2244
     89  O         -7.0730   25.4880   53.0170 O.2   408  PRO408     -0.2868
     90  CB        -5.8960   22.6900   53.9650 C.3   408  PRO408      0.0268
     91  CG        -4.6820   23.4940   54.3920 C.3   408  PRO408      0.0207
     92  CD        -3.9310   23.7130   53.0960 C.3   408  PRO408      0.0892
     93  N        -11.2430   21.3740   55.1160 N.3   412  SER412     -0.1217
     94  CA       -10.0270   20.5860   55.2020 C.3   412  SER412      0.1889
     95  C         -9.1710   21.0200   56.4090 C.2   412  SER412      0.2288
     96  O         -8.5550   20.1700   57.0600 O.2   412  SER412     -0.2866
     97  CB        -9.2560   20.6680   53.9090 C.3   412  SER412      0.2089
     98  OG       -10.1210   20.6630   52.7800 O.3   412  SER412     -0.2183
     99  N        -10.8230   19.4280   59.0780 N.3   415  ALA415     -0.1231
    100  CA       -10.4470   18.0110   58.9400 C.3   415  ALA415      0.1694
    101  C         -9.0810   17.7540   59.5910 C.2   415  ALA415      0.2591
    102  O         -8.9340   16.7680   60.3080 O.2   415  ALA415     -0.2718
    103  CB       -10.4610   17.5790   57.4880 C.3   415  ALA415      0.0304
    104  N         -8.1040   18.6410   59.3570 N.am  416  ILE416     -0.1980
    105  CA        -6.7160   18.4180   59.7860 C.3   416  ILE416      0.1595
    106  C         -6.5720   18.7240   61.2780 C.2   416  ILE416      0.2287
    107  O         -5.8340   18.0320   61.9600 O.2   416  ILE416     -0.2864
    108  CB        -5.7000   19.2250   58.9550 C.3   416  ILE416      0.0276
    109  CG1       -5.7370   18.8330   57.4810 C.3   416  ILE416      0.0022
    110  CG2       -4.2930   19.0820   59.5250 C.3   416  ILE416      0.0022
    111  CD1       -5.1640   19.8910   56.5720 C.3   416  ILE416      0.0001
    112  N         -7.8750   15.6130   62.6270 N.3   419  ALA419     -0.1231
    113  CA        -6.9130   14.5400   62.4920 C.3   419  ALA419      0.1694
    114  C         -5.7970   14.6800   63.5330 C.2   419  ALA419      0.2592
    115  O         -5.4510   13.7050   64.1950 O.2   419  ALA419     -0.2718
    116  CB        -6.3560   14.5230   61.0980 C.3   419  ALA419      0.0304
    117  N         -5.2540   15.8950   63.6680 N.am  420  ASN420     -0.1974
    118  CA        -4.1230   16.1980   64.5640 C.3   420  ASN420      0.1688
    119  C         -4.5430   16.0450   66.0330 C.2   420  ASN420      0.2292
    120  O         -3.6810   15.8070   66.8970 O.2   420  ASN420     -0.2864
    121  CB        -3.5480   17.6050   64.3340 C.3   420  ASN420      0.1181
    122  CG        -2.4600   17.6430   63.2780 C.2   420  ASN420      0.2629
    123  OD1       -1.4810   16.9060   63.3640 O.2   420  ASN420     -0.2716
    124  ND2       -2.6100   18.5110   62.2890 N.am  420  ASN420     -0.0877
    125  N         -7.1640   13.8910   66.9360 N.3   422  ARG422     -0.1245
    126  CA        -8.0990   12.7520   66.9560 C.3   422  ARG422      0.1563
    127  C         -8.1400   12.1430   68.3580 C.2   422  ARG422      0.2260
    128  O         -9.1570   12.2310   69.0250 O.2   422  ARG422     -0.2867
    129  CB        -7.7310   11.6700   65.9380 C.3   422  ARG422      0.0307
    130  CG        -8.5300   10.3810   66.0940 C.3   422  ARG422      0.0489
    131  CD        -8.1770    9.3360   65.0560 C.3   422  ARG422      0.2205
    132  NE        -8.4490    9.7970   63.6950 N.pl3 422  ARG422     -0.0865
    133  CZ        -7.5510   10.3410   62.8710 C.cat 422  ARG422      0.5346
    134  NH1       -6.2930   10.4830   63.2610 N.pl3 422  ARG422      0.1354
    135  NH2       -7.9260   10.7320   61.6630 N.pl3 422  ARG422      0.1354
    136  N         -1.2850   22.7210   56.3610 N.3   444  GLY444     -0.1210
    137  CA        -1.4610   21.6820   57.3430 C.3   444  GLY444      0.1956
    138  C         -0.4250   21.7990   58.4490 C.2   444  GLY444      0.2611
    139  O         -0.7580   21.8480   59.6410 O.2   444  GLY444     -0.2717
    140  N          0.8420   21.9120   58.0430 N.am  445  ALA445     -0.1979
    141  CA         1.9800   21.9420   58.9710 C.3   445  ALA445      0.1597
    142  C          1.7540   22.9390   60.1130 C.2   445  ALA445      0.2287
    143  O          2.1260   22.6650   61.2550 O.2   445  ALA445     -0.2864
    144  CB         3.2440   22.2770   58.2250 C.3   445  ALA445      0.0319
    145  N         -0.9740   21.8040   62.4310 N.3   448  THR448     -0.1218
    146  CA        -0.3040   20.7730   63.1490 C.3   448  THR448      0.1862
    147  C          0.5290   21.3850   64.2780 C.2   448  THR448      0.2287
    148  O          0.3200   21.0560   65.4370 O.2   448  THR448     -0.2866
    149  CB         0.5240   19.9390   62.1720 C.3   448  THR448      0.1770
    150  OG1       -0.3870   19.6050   61.1290 O.3   448  THR448     -0.2211
    151  CG2        1.1280   18.7050   62.7980 C.3   448  THR448      0.0375
@<TRIPOS>BOND
     1    85    83    1
     2    78    79    1
     3    79    82    1
     4    79    80    1
     5    83    82    1
     6    82    84    1
     7    80    81    2
     8    36    35    2
     9    35    34    1
    10    76    75    1
    11    73    72    2
    12    74    75    1
    13    74    71    1
    14    72    71    1
    15    40    38    1
    16    34    37    1
    17    34    33    1
    18    75    77    1
    19    37    38    1
    20    71    70    1
    21    38    39    1
    22    70    64   am
    23    41    47    1
    24    41    42    1
    25    47    46    1
    26    61    60    2
    27    46    45    1
    28    64    65    2
    29    64    63    1
    30    42    45    1
    31    42    43    1
    32    60    59    1
    33    57    56    1
    34    56    53    1
    35    62    63    1
    36    31    29    1
    37    32    30    1
    38    86    87    1
    39    86    92    1
    40    28    27    2
    41    63    66    1
    42    43    44    2
    43    43    48   am
    44    58    59    1
    45    58    54   am
    46    29    30    1
    47    29    26    1
    48    87    88    1
    49    87    90    1
    50    53    54    1
    51    53    52    1
    52    54    55    2
    53    88    89    2
    54    48    49    1
    55    98    97    1
    56    13    12    2
    57    52    50   am
    58    92    91    1
    59    51    50    2
    60    66    67    1
    61    27    26    1
    62    50    49    1
    63    15    14    1
    64    26    25    1
    65    97    94    1
    66    90    91    1
    67    12    11    1
    68    25    19   am
    69    67    68    1
    70    67    69    1
    71    14    16    1
    72    14    11    1
    73    10    11    1
    74    10     3   am
    75    93    94    1
    76     1     2    1
    77    94    95    1
    78    17    18    1
    79    19    18    1
    80    19    20    2
    81     2     3    1
    82     2     5    1
    83     3     4    2
    84    18    21    1
    85   136   137    1
    86    95    96    2
    87    21    22    1
    88   111   109    1
    89     6     5    1
    90     6     7    1
    91     9     7   am
    92   137   138    1
    93    22    24   ar
    94    22    23   ar
    95   109   108    1
    96   103   100    1
    97     7     8    2
    98   140   138   am
    99   140   141    1
   100   144   141    1
   101   138   139    2
   102   100    99    1
   103   100   101    1
   104   108   110    1
   105   108   105    1
   106   141   142    1
   107   104   101   am
   108   104   105    1
   109   101   102    2
   110   105   106    1
   111   142   143    2
   112   116   113    1
   113   150   149    1
   114   106   107    2
   115   135   133    1
   116   149   151    1
   117   149   146    1
   118   124   122   am
   119   145   146    1
   120   113   112    1
   121   113   114    1
   122   133   134    1
   123   133   132    2
   124   146   147    1
   125   122   123    2
   126   122   121    1
   127   114   117   am
   128   114   115    2
   129   117   118    1
   130   132   131    1
   131   147   148    2
   132   121   118    1
   133   118   119    1
   134   131   130    1
   135   129   130    1
   136   129   126    1
   137   119   120    2
   138   125   126    1
   139   126   127    1
   140   127   128    2
