@<TRIPOS>MOLECULE
tmp/6mcoD11.pdb
 92 89 0 0 0
SMALL
GASTEIGER

@<TRIPOS>ATOM
      1  N        153.0530  175.7520  139.0220 N.3   168  PRO168     -0.2116
      2  CA       151.7830  175.0510  138.8000 C.3   168  PRO168      0.1372
      3  C        151.7580  174.3470  137.4530 C.2   168  PRO168      0.2244
      4  O        151.7000  175.0000  136.4060 O.2   168  PRO168     -0.2868
      5  CB       150.7380  176.1740  138.8660 C.3   168  PRO168      0.0268
      6  CG       151.4440  177.3430  139.4900 C.3   168  PRO168      0.0207
      7  CD       152.8730  177.2110  139.0810 C.3   168  PRO168      0.0892
      8  N        145.6460  173.8500  136.8600 N.3   208  ARG208     -0.1245
      9  CA       146.8770  174.3150  137.4880 C.3   208  ARG208      0.1563
     10  C        146.6260  174.6110  138.9590 C.2   208  ARG208      0.2260
     11  O        145.8100  175.4870  139.2740 O.2   208  ARG208     -0.2867
     12  CB       147.4010  175.5600  136.7830 C.3   208  ARG208      0.0307
     13  CG       148.1130  175.2620  135.4880 C.3   208  ARG208      0.0489
     14  CD       148.4910  176.5280  134.7520 C.3   208  ARG208      0.2205
     15  NE       149.1710  176.2180  133.5000 N.pl3 208  ARG208     -0.0865
     16  CZ       148.5480  175.8310  132.3920 C.cat 208  ARG208      0.5346
     17  NH1      147.2270  175.7030  132.3790 N.pl3 208  ARG208      0.1354
     18  NH2      149.2460  175.5650  131.2970 N.pl3 208  ARG208      0.1354
     19  N        147.1860  176.6330  141.2630 N.3   210  VAL210     -0.1245
     20  CA       147.7490  177.9490  141.5430 C.3   210  VAL210      0.1561
     21  C        147.2370  178.4070  142.9050 C.2   210  VAL210      0.2260
     22  O        146.0570  178.7290  143.0600 O.2   210  VAL210     -0.2867
     23  CB       147.3880  178.9590  140.4480 C.3   210  VAL210      0.0252
     24  CG1      147.8270  180.3560  140.8510 C.3   210  VAL210      0.0019
     25  CG2      148.0200  178.5570  139.1240 C.3   210  VAL210      0.0019
     26  N        144.4340  183.2800  139.3240 N.3   217  LEU217     -0.1231
     27  CA       145.3310  183.4010  138.1860 C.3   217  LEU217      0.1693
     28  C        145.3580  182.1070  137.3860 C.2   217  LEU217      0.2592
     29  O        145.1890  181.0140  137.9350 O.2   217  LEU217     -0.2718
     30  CB       146.7590  183.7420  138.6340 C.3   217  LEU217      0.0284
     31  CG       147.0910  185.1410  139.1540 C.3   217  LEU217      0.0019
     32  CD1      146.4560  185.4150  140.5110 C.3   217  LEU217      0.0001
     33  CD2      148.5990  185.3070  139.2290 C.3   217  LEU217      0.0001
     34  N        145.5820  182.2500  136.0770 N.am  218  ASN218     -0.1974
     35  CA       145.7990  181.1180  135.1720 C.3   218  ASN218      0.1688
     36  C        144.6660  180.0970  135.2530 C.2   218  ASN218      0.2292
     37  O        144.8750  178.8980  135.0520 O.2   218  ASN218     -0.2864
     38  CB       147.1520  180.4490  135.4440 C.3   218  ASN218      0.1181
     39  CG       148.3300  181.3060  135.0010 C.2   218  ASN218      0.2629
     40  OD1      148.1670  182.4770  134.6650 O.2   218  ASN218     -0.2716
     41  ND2      149.5240  180.7220  135.0020 N.am  218  ASN218     -0.0877
     42  N        150.8520  185.6000  146.0540 N.3   330  PHE330     -0.1227
     43  CA       150.9810  184.6680  144.9440 C.3   330  PHE330      0.1736
     44  C        152.4600  184.4590  144.6630 C.2   330  PHE330      0.2595
     45  O        153.2740  185.3600  144.8760 O.2   330  PHE330     -0.2718
     46  CB       150.2700  185.1880  143.6910 C.3   330  PHE330      0.0547
     47  CG       150.9750  186.3350  143.0320 C.ar  330  PHE330     -0.0202
     48  CD1      150.9650  187.5950  143.6050 C.ar  330  PHE330     -0.0042
     49  CD2      151.6510  186.1530  141.8380 C.ar  330  PHE330     -0.0042
     50  CE1      151.6180  188.6530  143.0000 C.ar  330  PHE330     -0.0003
     51  CE2      152.3020  187.2060  141.2270 C.ar  330  PHE330     -0.0003
     52  CZ       152.2860  188.4570  141.8090 C.ar  330  PHE330     -0.0000
     53  N        152.7940  183.2700  144.1750 N.am  331  ASN331     -0.1960
     54  CA       154.1750  182.9210  143.8820 C.3   331  ASN331      0.1819
     55  C        154.5610  183.3670  142.4770 C.2   331  ASN331      0.2621
     56  O        153.7450  183.3430  141.5530 O.2   331  ASN331     -0.2715
     57  CB       154.3890  181.4130  144.0190 C.3   331  ASN331      0.1195
     58  CG       155.8150  181.0020  143.7330 C.2   331  ASN331      0.2630
     59  OD1      156.2280  180.9050  142.5770 O.2   331  ASN331     -0.2716
     60  ND2      156.5810  180.7590  144.7890 N.am  331  ASN331     -0.0877
     61  N        155.8210  183.7730  142.3230 N.am  332  CYS332     -0.1968
     62  CA       156.3720  184.1170  141.0140 C.3   332  CYS332      0.1712
     63  C        157.8800  183.9340  141.0580 C.2   332  CYS332      0.2296
     64  O        158.5440  184.4890  141.9380 O.2   332  CYS332     -0.2864
     65  CB       156.0220  185.5490  140.6080 C.3   332  CYS332      0.0983
     66  SG       154.7650  185.6560  139.3320 S.3   332  CYS332     -0.0798
     67  N        157.7810  187.7700  135.8530 N.3   394  CYS394     -0.1221
     68  CA       156.7160  186.8350  135.5190 C.3   394  CYS394      0.1808
     69  C        155.5410  187.6050  134.9290 C.2   394  CYS394      0.2602
     70  O        155.5910  188.8270  134.7590 O.2   394  CYS394     -0.2717
     71  CB       156.2820  186.0330  136.7480 C.3   394  CYS394      0.0970
     72  SG       155.4960  187.0280  138.0310 S.3   394  CYS394     -0.0800
     73  N        154.4730  186.8700  134.6240 N.am  395  SER395     -0.1938
     74  CA       153.2410  187.4110  134.0650 C.3   395  SER395      0.2055
     75  C        152.1860  186.3160  134.0860 C.2   395  SER395      0.2644
     76  O        152.5080  185.1320  133.9530 O.2   395  SER395     -0.2714
     77  CB       153.4450  187.9260  132.6340 C.3   395  SER395      0.2130
     78  OG       153.9000  186.8910  131.7800 O.3   395  SER395     -0.2179
     79  N        150.9270  186.7180  134.2530 N.am  396  SER396     -0.1935
     80  CA       149.8390  185.7570  134.3620 C.3   396  SER396      0.2055
     81  C        148.5350  186.4040  133.9190 C.2   396  SER396      0.2643
     82  O        148.3800  187.6260  133.9560 O.2   396  SER396     -0.2714
     83  CB       149.6960  185.2300  135.7960 C.3   396  SER396      0.2130
     84  OG       150.9020  184.6490  136.2630 O.3   396  SER396     -0.2179
     85  N        147.5940  185.5640  133.4940 N.am  397  ASN397     -0.1971
     86  CA       146.2310  186.0070  133.2370 C.3   397  ASN397      0.1688
     87  C        145.4060  185.8020  134.5020 C.2   397  ASN397      0.2292
     88  O        145.4780  184.7390  135.1270 O.2   397  ASN397     -0.2864
     89  CB       145.5930  185.2380  132.0770 C.3   397  ASN397      0.1181
     90  CG       146.5770  184.8910  130.9720 C.2   397  ASN397      0.2629
     91  OD1      147.7920  184.9200  131.1650 O.2   397  ASN397     -0.2716
     92  ND2      146.0440  184.5520  129.8000 N.am  397  ASN397     -0.0877
@<TRIPOS>BOND
     1    92    90   am
     2    90    91    2
     3    90    89    1
     4    18    16    1
     5    78    77    1
     6    89    86    1
     7    17    16    1
     8    16    15    2
     9    77    74    1
    10    86    85    1
    11    86    87    1
    12    85    81   am
    13    15    14    1
    14    81    82    2
    15    81    80    1
    16    76    75    2
    17    74    75    1
    18    74    73    1
    19    75    79   am
    20    79    80    1
    21    80    83    1
    22    87    88    2
    23    73    69   am
    24    40    39    2
    25    14    13    1
    26    70    69    2
    27    69    68    1
    28    39    41   am
    29    39    38    1
    30    37    36    2
    31    35    36    1
    32    35    38    1
    33    35    34    1
    34    13    12    1
    35    68    67    1
    36    68    71    1
    37    83    84    1
    38    34    28   am
    39     4     3    2
    40    71    72    1
    41    12     9    1
    42     8     9    1
    43    28    29    2
    44    28    27    1
    45     3     2    1
    46     9    10    1
    47    72    66    1
    48    27    30    1
    49    27    26    1
    50    30    31    1
    51     2     5    1
    52     2     1    1
    53     5     6    1
    54    10    11    2
    55     1     7    1
    56     7     6    1
    57    25    23    1
    58    31    33    1
    59    31    32    1
    60    66    65    1
    61    23    24    1
    62    23    20    1
    63    65    62    1
    64    62    63    1
    65    62    61    1
    66    63    64    2
    67    51    52   ar
    68    51    49   ar
    69    19    20    1
    70    20    21    1
    71    56    55    2
    72    52    50   ar
    73    49    47   ar
    74    61    55   am
    75    55    54    1
    76    59    58    2
    77    21    22    2
    78    50    48   ar
    79    47    48   ar
    80    47    46    1
    81    46    43    1
    82    58    57    1
    83    58    60   am
    84    54    57    1
    85    54    53    1
    86    53    44   am
    87    44    45    2
    88    44    43    1
    89    43    42    1
