@<TRIPOS>MOLECULE
tmp/6mcoD06.pdb
 81 76 0 0 0
SMALL
GASTEIGER

@<TRIPOS>ATOM
      1  N        170.8600  195.5890  160.8990 N.3   101  ASN101     -0.1225
      2  CA       171.0030  196.9450  160.3960 C.3   101  ASN101      0.1785
      3  C        170.1530  197.0990  159.1410 C.2   101  ASN101      0.2597
      4  O        169.7240  196.1150  158.5340 O.2   101  ASN101     -0.2718
      5  CB       172.4690  197.2720  160.0820 C.3   101  ASN101      0.1169
      6  CG       173.4110  196.8590  161.1960 C.2   101  ASN101      0.2627
      7  OD1      173.0510  196.8910  162.3730 O.2   101  ASN101     -0.2716
      8  ND2      174.6250  196.4660  160.8280 N.am  101  ASN101     -0.0877
      9  N        169.9080  198.3450  158.7540 N.am  102  ASN102     -0.1960
     10  CA       169.1420  198.6110  157.5470 C.3   102  ASN102      0.1819
     11  C        170.0700  198.7680  156.3430 C.2   102  ASN102      0.2621
     12  O        171.2910  198.8850  156.4710 O.2   102  ASN102     -0.2715
     13  CB       168.2710  199.8540  157.7230 C.3   102  ASN102      0.1195
     14  CG       166.9100  199.5320  158.3070 C.2   102  ASN102      0.2630
     15  OD1      166.7620  199.3740  159.5180 O.2   102  ASN102     -0.2716
     16  ND2      165.9060  199.4350  157.4430 N.am  102  ASN102     -0.0877
     17  N        169.4650  198.7670  155.1540 N.am  103  VAL103     -0.1963
     18  CA       170.2360  198.8650  153.9220 C.3   103  VAL103      0.1727
     19  C        170.7690  200.2850  153.7510 C.2   103  VAL103      0.2616
     20  O        170.1420  201.2680  154.1700 O.2   103  VAL103     -0.2715
     21  CB       169.3810  198.4350  152.7170 C.3   103  VAL103      0.0290
     22  CG1      169.1590  196.9300  152.7430 C.3   103  VAL103      0.0023
     23  CG2      168.0480  199.1690  152.7240 C.3   103  VAL103      0.0023
     24  N        171.9400  200.3930  153.1230 N.am  104  ASN104     -0.1972
     25  CA       172.6450  201.6640  152.9830 C.3   104  ASN104      0.1688
     26  C        172.2590  202.3200  151.6610 C.2   104  ASN104      0.2292
     27  O        172.5640  201.7950  150.5840 O.2   104  ASN104     -0.2864
     28  CB       174.1560  201.4510  153.0650 C.3   104  ASN104      0.1181
     29  CG       174.6120  201.0060  154.4440 C.2   104  ASN104      0.2629
     30  OD1      174.0150  201.3740  155.4560 O.2   104  ASN104     -0.2716
     31  ND2      175.6770  200.2120  154.4880 N.am  104  ASN104     -0.0877
     32  N        169.3270  194.0590  157.0610 N.3   115  ASN115     -0.1240
     33  CA       170.6280  193.3910  157.0320 C.3   115  ASN115      0.1653
     34  C        170.9070  192.9210  158.4530 C.2   115  ASN115      0.2266
     35  O        171.2280  193.7390  159.3190 O.2   115  ASN115     -0.2867
     36  CB       171.7260  194.3300  156.5340 C.3   115  ASN115      0.1155
     37  CG       173.1050  193.6750  156.5070 C.2   115  ASN115      0.2627
     38  OD1      173.2950  192.5610  156.9960 O.2   115  ASN115     -0.2716
     39  ND2      174.0780  194.3750  155.9330 N.am  115  ASN115     -0.0877
     40  N        172.8060  190.3200  161.3550 N.3   117  SER117     -0.1217
     41  CA       174.0060  189.5730  161.6970 C.3   117  SER117      0.1889
     42  C        173.7400  188.7620  162.9550 C.2   117  SER117      0.2288
     43  O        173.0860  189.2380  163.8880 O.2   117  SER117     -0.2866
     44  CB       175.2070  190.5030  161.9080 C.3   117  SER117      0.2089
     45  OG       175.5110  191.2180  160.7230 O.3   117  SER117     -0.2183
     46  N        176.2880  187.0340  158.4530 N.3   132  TYR132     -0.1241
     47  CA       175.3720  188.1040  158.0940 C.3   132  TYR132      0.1605
     48  C        174.4250  187.6210  157.0050 C.2   132  TYR132      0.2264
     49  O        174.7830  186.7790  156.1750 O.2   132  TYR132     -0.2867
     50  CB       176.1260  189.3600  157.6210 C.3   132  TYR132      0.0534
     51  CG       176.7240  189.2540  156.2320 C.ar  132  TYR132     -0.0201
     52  CD1      177.9380  188.6140  156.0220 C.ar  132  TYR132     -0.0009
     53  CD2      176.0770  189.8070  155.1320 C.ar  132  TYR132     -0.0009
     54  CE1      178.4880  188.5190  154.7550 C.ar  132  TYR132      0.0417
     55  CE2      176.6190  189.7160  153.8620 C.ar  132  TYR132      0.0417
     56  CZ       177.8230  189.0720  153.6800 C.ar  132  TYR132      0.1957
     57  OH       178.3650  188.9800  152.4180 O.3   132  TYR132     -0.2866
     58  N        170.4970  188.9720  154.8050 N.3   134  LEU134     -0.1245
     59  CA       169.5040  190.0070  154.5320 C.3   134  LEU134      0.1561
     60  C        168.1290  189.3490  154.4870 C.2   134  LEU134      0.2260
     61  O        167.7470  188.7560  153.4740 O.2   134  LEU134     -0.2867
     62  CB       169.8160  190.7360  153.2260 C.3   134  LEU134      0.0270
     63  CG       171.0670  191.6180  153.1580 C.3   134  LEU134      0.0019
     64  CD1      172.3320  190.7940  152.9530 C.3   134  LEU134      0.0001
     65  CD2      170.9240  192.6610  152.0590 C.3   134  LEU134      0.0001
     66  N        174.3090  189.8840  149.5360 N.3   276  ASP276     -0.1225
     67  CA       174.2800  191.3080  149.2400 C.3   276  ASP276      0.1805
     68  C        173.6010  191.5600  147.8950 C.2   276  ASP276      0.2597
     69  O        173.6730  190.7430  146.9710 O.2   276  ASP276     -0.2718
     70  CB       175.6970  191.8870  149.2470 C.3   276  ASP276      0.1424
     71  CG       176.7220  190.9390  148.6430 C.2   276  ASP276      0.3668
     72  OD1      176.3350  189.8410  148.1750 O.co2 276  ASP276     -0.2456
     73  OD2      177.9180  191.2910  148.6360 O.co2 276  ASP276     -0.2456
     74  N        172.9130  192.6900  147.8060 N.am  277  ILE277     -0.1980
     75  CA       172.1970  193.0670  146.5950 C.3   277  ILE277      0.1595
     76  C        173.1640  193.7260  145.6220 C.2   277  ILE277      0.2287
     77  O        174.1560  194.3510  146.0170 O.2   277  ILE277     -0.2864
     78  CB       171.0190  193.9990  146.9350 C.3   277  ILE277      0.0276
     79  CG1      170.2610  193.4720  148.1550 C.3   277  ILE277      0.0022
     80  CG2      170.0780  194.1380  145.7470 C.3   277  ILE277      0.0022
     81  CD1      169.1470  194.3780  148.5980 C.3   277  ILE277      0.0001
@<TRIPOS>BOND
     1    76    77    2
     2    76    75    1
     3    80    78    1
     4    75    78    1
     5    75    74    1
     6    78    79    1
     7    69    68    2
     8    74    68   am
     9    68    67    1
    10    79    81    1
    11    72    71   ar
    12    73    71   ar
    13    71    70    1
    14    67    70    1
    15    67    66    1
    16    27    26    2
    17    26    25    1
    18    65    63    1
    19    57    56    1
    20    21    23    1
    21    21    22    1
    22    21    18    1
    23    64    63    1
    24    25    28    1
    25    25    24    1
    26    28    29    1
    27    24    19   am
    28    63    62    1
    29    62    59    1
    30    61    60    2
    31    56    55   ar
    32    56    54   ar
    33    19    18    1
    34    19    20    2
    35    55    53   ar
    36    18    17    1
    37    29    31   am
    38    29    30    2
    39    60    59    1
    40    59    58    1
    41    54    52   ar
    42    53    51   ar
    43    17    11   am
    44    39    37   am
    45    52    51   ar
    46    49    48    2
    47    51    50    1
    48    11    12    2
    49    11    10    1
    50    37    36    1
    51    37    38    2
    52    36    33    1
    53    48    47    1
    54    33    32    1
    55    33    34    1
    56    16    14   am
    57    10    13    1
    58    10     9    1
    59    50    47    1
    60    13    14    1
    61    47    46    1
    62    14    15    2
    63    34    35    2
    64     4     3    2
    65     9     3   am
    66     3     2    1
    67     5     2    1
    68     5     6    1
    69     2     1    1
    70    45    44    1
    71     8     6   am
    72     6     7    2
    73    40    41    1
    74    41    44    1
    75    41    42    1
    76    42    43    2
