@<TRIPOS>MOLECULE
tmp/6md1A00.pdb
 139 129 0 0 0
SMALL
GASTEIGER

@<TRIPOS>ATOM
      1  N          4.1210   59.5550   10.2270 N.3    22  LEU22      -0.1245
      2  CA         4.8340   58.8700    9.1470 C.3    22  LEU22       0.1561
      3  C          5.0950   57.4260    9.5780 C.2    22  LEU22       0.2260
      4  O          6.0450   57.1460   10.3150 O.2    22  LEU22      -0.2867
      5  CB         6.1220   59.6000    8.7850 C.3    22  LEU22       0.0270
      6  CG         6.9440   58.9180    7.6760 C.3    22  LEU22       0.0019
      7  CD1        6.0630   58.4410    6.5200 C.3    22  LEU22       0.0001
      8  CD2        8.0610   59.8280    7.1550 C.3    22  LEU22       0.0001
      9  N         22.3370   70.9470    9.4240 N.3    63  ILE63      -0.1245
     10  CA        21.7170   69.6220    9.3830 C.3    63  ILE63       0.1561
     11  C         21.5340   69.0870   10.7970 C.2    63  ILE63       0.2260
     12  O         20.4840   68.5340   11.1420 O.2    63  ILE63      -0.2867
     13  CB        22.5630   68.6550    8.5350 C.3    63  ILE63       0.0252
     14  CG1       22.6220   69.0930    7.0710 C.3    63  ILE63       0.0019
     15  CG2       22.0490   67.2280    8.6720 C.3    63  ILE63       0.0019
     16  CD1       23.7350   68.3900    6.3030 C.3    63  ILE63       0.0001
     17  N         18.6120   70.5980   12.4250 N.3    66  GLY66      -0.1210
     18  CA        17.3640   70.1110   11.8590 C.3    66  GLY66       0.1956
     19  C         17.0150   68.7310   12.3780 C.2    66  GLY66       0.2612
     20  O         15.8680   68.4620   12.7500 O.2    66  GLY66      -0.2717
     21  N         18.0090   67.8370   12.4110 N.am   67  CYS67      -0.1970
     22  CA        17.8330   66.5340   13.0410 C.3    67  CYS67       0.1712
     23  C         17.4750   66.6790   14.5160 C.2    67  CYS67       0.2296
     24  O         16.7210   65.8610   15.0630 O.2    67  CYS67      -0.2864
     25  CB        19.1100   65.7100   12.8560 C.3    67  CYS67       0.0983
     26  SG        19.3300   64.3130   13.9600 S.3    67  CYS67      -0.0798
     27  N         15.7060   69.2550   15.9130 N.3    69  PHE69      -0.1227
     28  CA        14.3040   69.6360   16.0190 C.3    69  PHE69       0.1736
     29  C         13.3850   68.4640   15.7070 C.2    69  PHE69       0.2595
     30  O         12.3220   68.3300   16.3270 O.2    69  PHE69      -0.2718
     31  CB        14.0020   70.8200   15.0920 C.3    69  PHE69       0.0547
     32  CG        12.5640   70.8850   14.6470 C.ar   69  PHE69      -0.0202
     33  CD1       11.5850   71.3630   15.5050 C.ar   69  PHE69      -0.0042
     34  CD2       12.1880   70.4530   13.3740 C.ar   69  PHE69      -0.0042
     35  CE1       10.2530   71.4150   15.1060 C.ar   69  PHE69      -0.0003
     36  CE2       10.8600   70.4980   12.9710 C.ar   69  PHE69      -0.0003
     37  CZ         9.8900   70.9790   13.8390 C.ar   69  PHE69      -0.0000
     38  N         13.7850   67.5950   14.7740 N.am   70  ARG70      -0.1980
     39  CA        12.9670   66.4300   14.4670 C.3    70  ARG70       0.1597
     40  C         12.9180   65.4450   15.6350 C.2    70  ARG70       0.2287
     41  O         11.8850   64.8030   15.8550 O.2    70  ARG70      -0.2864
     42  CB        13.4870   65.7510   13.1940 C.3    70  ARG70       0.0334
     43  CG        12.8650   64.3930   12.9200 C.3    70  ARG70       0.0492
     44  CD        11.3460   64.4880   12.8750 C.3    70  ARG70       0.2205
     45  NE        10.6980   63.1830   12.9920 N.pl3  70  ARG70      -0.0865
     46  CZ         9.4790   62.9700   13.4810 C.cat  70  ARG70       0.5346
     47  NH1        8.7500   63.9770   13.9310 N.pl3  70  ARG70       0.1354
     48  NH2        8.9890   61.7350   13.5370 N.pl3  70  ARG70       0.1354
     49  N         10.4240   66.7580   18.0230 N.3    73  GLU73      -0.1245
     50  CA         9.0730   66.4290   17.5820 C.3    73  GLU73       0.1567
     51  C          8.7790   64.9480   17.8010 C.2    73  GLU73       0.2260
     52  O          7.6520   64.5770   18.1620 O.2    73  GLU73      -0.2867
     53  CB         8.8760   66.8240   16.1150 C.3    73  GLU73       0.0388
     54  CG         7.4120   67.0460   15.7350 C.3    73  GLU73       0.1160
     55  CD         7.2170   67.5690   14.2990 C.2    73  GLU73       0.3649
     56  OE1        8.1690   68.1480   13.7180 O.co2  73  GLU73      -0.2457
     57  OE2        6.1090   67.3800   13.7450 O.co2  73  GLU73      -0.2457
     58  N         13.1880   55.3040   13.4610 N.3   112  LEU112     -0.1245
     59  CA        14.0210   55.8720   12.4150 C.3   112  LEU112      0.1561
     60  C         14.5040   54.8110   11.4360 C.2   112  LEU112      0.2260
     61  O         14.7300   55.1150   10.2620 O.2   112  LEU112     -0.2867
     62  CB        15.2070   56.5910   13.0470 C.3   112  LEU112      0.0270
     63  CG        16.2620   57.1760   12.1230 C.3   112  LEU112      0.0019
     64  CD1       15.6310   58.2490   11.2930 C.3   112  LEU112      0.0001
     65  CD2       17.4310   57.7060   12.9380 C.3   112  LEU112      0.0001
     66  N         12.4210   54.5720    8.3830 N.3   115  LEU115     -0.1245
     67  CA        12.6110   55.6140    7.3900 C.3   115  LEU115      0.1561
     68  C         13.9210   55.4530    6.6410 C.2   115  LEU115      0.2260
     69  O         14.2770   56.3200    5.8240 O.2   115  LEU115     -0.2867
     70  CB        12.5550   57.0000    8.0450 C.3   115  LEU115      0.0270
     71  CG        11.4850   57.3790    9.0770 C.3   115  LEU115      0.0019
     72  CD1       11.5190   58.9110    9.3610 C.3   115  LEU115      0.0001
     73  CD2       10.1140   56.9700    8.6240 C.3   115  LEU115      0.0001
     74  N         18.0090   58.1530    4.2430 N.3   121  VAL121     -0.1231
     75  CA        16.9700   58.3110    5.2570 C.3   121  VAL121      0.1692
     76  C         15.9430   59.3400    4.7950 C.2   121  VAL121      0.2592
     77  O         16.3020   60.4270    4.3360 O.2   121  VAL121     -0.2718
     78  CB        17.5750   58.7170    6.6190 C.3   121  VAL121      0.0266
     79  CG1       18.3320   60.0430    6.5160 C.3   121  VAL121      0.0020
     80  CG2       16.4920   58.7810    7.6890 C.3   121  VAL121      0.0020
     81  N         14.6630   59.0030    4.9240 N.am  122  LEU122     -0.1966
     82  CA        13.6230   59.9710    4.6240 C.3   122  LEU122      0.1728
     83  C         13.6960   61.1280    5.6130 C.2   122  LEU122      0.2616
     84  O         14.1000   60.9530    6.7660 O.2   122  LEU122     -0.2715
     85  CB        12.2500   59.3140    4.6950 C.3   122  LEU122      0.0311
     86  CG        11.8950   58.3290    3.5820 C.3   122  LEU122      0.0022
     87  CD1       10.5170   57.7250    3.8620 C.3   122  LEU122      0.0001
     88  CD2       11.9190   59.0270    2.2310 C.3   122  LEU122      0.0001
     89  N         13.3170   62.3230    5.1510 N.am  123  ILE123     -0.1963
     90  CA        13.2720   63.5100    5.9970 C.3   123  ILE123      0.1727
     91  C         12.0710   64.3630    5.6170 C.2   123  ILE123      0.2617
     92  O         11.4100   64.1360    4.6000 O.2   123  ILE123     -0.2715
     93  CB        14.5570   64.3540    5.9190 C.3   123  ILE123      0.0290
     94  CG1       14.8130   64.8030    4.4770 C.3   123  ILE123      0.0022
     95  CG2       15.7320   63.5970    6.5490 C.3   123  ILE123      0.0023
     96  CD1       16.0170   65.7360    4.3350 C.3   123  ILE123      0.0001
     97  N         11.8030   65.3520    6.4650 N.am  124  SER124     -0.1936
     98  CA        10.6910   66.2930    6.3310 C.3   124  SER124      0.2055
     99  C          9.3920   65.5750    5.9740 C.2   124  SER124      0.2643
    100  O          8.7940   65.7860    4.9170 O.2   124  SER124     -0.2714
    101  CB        11.0210   67.3750    5.3090 C.3   124  SER124      0.2130
    102  OG        10.0960   68.4440    5.3880 O.3   124  SER124     -0.2179
    103  N          8.9750   64.6900    6.8730 N.am  125  GLU125     -0.1963
    104  CA         7.7360   63.9230    6.7320 C.3   125  GLU125      0.1733
    105  C          7.7090   63.0780    5.4580 C.2   125  GLU125      0.2616
    106  O          6.6360   62.6980    4.9830 O.2   125  GLU125     -0.2715
    107  CB         6.5030   64.8400    6.7740 C.3   125  GLU125      0.0429
    108  CG         6.4080   65.7240    8.0180 C.3   125  GLU125      0.1163
    109  CD         5.5470   66.9670    7.8060 C.2   125  GLU125      0.3649
    110  OE1        4.3090   66.8300    7.6590 O.co2 125  GLU125     -0.2457
    111  OE2        6.1160   68.0810    7.7850 O.co2 125  GLU125     -0.2457
    112  N          8.8660   62.7610    4.8950 N.am  126  GLY126     -0.1955
    113  CA         8.9430   61.9390    3.7100 C.3   126  GLY126      0.1869
    114  C          9.1080   62.7110    2.4130 C.2   126  GLY126      0.2309
    115  O          9.3080   62.0810    1.3680 O.2   126  GLY126     -0.2863
    116  N         17.6980   62.1250    2.3640 N.3   130  MET130     -0.1245
    117  CA        19.0950   62.4790    2.5290 C.3   130  MET130      0.1570
    118  C         19.9090   61.1960    2.4780 C.2   130  MET130      0.2261
    119  O         19.6140   60.2450    3.2110 O.2   130  MET130     -0.2867
    120  CB        19.2880   63.2220    3.8540 C.3   130  MET130      0.0387
    121  CG        20.6800   63.7450    4.1210 C.3   130  MET130      0.0595
    122  SD        20.6640   65.1190    5.2970 S.3   130  MET130     -0.1393
    123  CE        19.6460   66.3290    4.4610 C.3   130  MET130      0.0692
    124  N         25.6580   62.3560    4.5700 N.3   135  LEU135     -0.1245
    125  CA        25.7490   62.4620    6.0500 C.3   135  LEU135      0.1561
    126  C         27.1240   61.9810    6.5240 C.2   135  LEU135      0.2260
    127  O         27.6570   62.6130    7.4070 O.2   135  LEU135     -0.2867
    128  CB        24.6420   61.5990    6.6640 C.3   135  LEU135      0.0270
    129  CG        23.2040   62.0390    6.4280 C.3   135  LEU135      0.0019
    130  CD1       22.2730   60.9610    6.8600 C.3   135  LEU135      0.0001
    131  CD2       22.8620   63.2870    7.1890 C.3   135  LEU135      0.0001
    132  N         25.2870   59.6440   12.0590 N.3   146  MET146     -0.1245
    133  CA        24.1870   58.8010   11.6110 C.3   146  MET146      0.1570
    134  C         24.6100   57.3960   11.2070 C.2   146  MET146      0.2261
    135  O         23.7580   56.5020   11.1790 O.2   146  MET146     -0.2867
    136  CB        23.4590   59.4750   10.4510 C.3   146  MET146      0.0387
    137  CG        22.7480   60.7580   10.8870 C.3   146  MET146      0.0595
    138  SD        21.4550   60.4620   12.1290 S.3   146  MET146     -0.1393
    139  CE        20.4070   59.3490   11.2180 C.3   146  MET146      0.0692
@<TRIPOS>BOND
     1   115   114    2
     2    88    86    1
     3   116   117    1
     4   114   113    1
     5   118   117    1
     6   118   119    2
     7   117   120    1
     8    86    87    1
     9    86    85    1
    10   113   112    1
    11   120   121    1
    12   121   122    1
    13    74    75    1
    14    96    94    1
    15    77    76    2
    16   123   122    1
    17    94    93    1
    18   124   125    1
    19    92    91    2
    20    82    85    1
    21    82    81    1
    22    82    83    1
    23    76    81   am
    24    76    75    1
    25   112   105   am
    26   100    99    2
    27   106   105    2
    28    89    83   am
    29    89    90    1
    30    75    78    1
    31   101   102    1
    32   101    98    1
    33   105   104    1
    34    83    84    2
    35    91    90    1
    36    91    97   am
    37    69    68    2
    38    93    90    1
    39    93    95    1
    40    99    98    1
    41    99   103   am
    42   125   126    1
    43   125   128    1
    44    16    14    1
    45    98    97    1
    46   129   128    1
    47   129   130    1
    48   129   131    1
    49    79    78    1
    50     7     6    1
    51   126   127    2
    52    78    80    1
    53    68    67    1
    54   104   107    1
    55   104   103    1
    56   107   108    1
    57    14    13    1
    58     8     6    1
    59    67    70    1
    60    67    66    1
    61   110   109   ar
    62     6     5    1
    63   111   109   ar
    64   109   108    1
    65    70    71    1
    66    13    15    1
    67    13    10    1
    68    73    71    1
    69     5     2    1
    70    71    72    1
    71     2     3    1
    72     2     1    1
    73    10     9    1
    74    10    11    1
    75     3     4    2
    76    61    60    2
    77   136   137    1
    78   136   133    1
    79    11    12    2
    80   137   138    1
    81   135   134    2
    82   134   133    1
    83   139   138    1
    84    64    63    1
    85    60    59    1
    86   133   132    1
    87    18    19    1
    88    18    17    1
    89    63    65    1
    90    63    62    1
    91    19    21   am
    92    19    20    2
    93    21    22    1
    94    59    62    1
    95    59    58    1
    96    25    22    1
    97    25    26    1
    98    44    43    1
    99    44    45    1
   100    43    42    1
   101    36    34   ar
   102    36    37   ar
   103    45    46    2
   104    22    23    1
   105    42    39    1
   106    34    32   ar
   107    46    48    1
   108    46    47    1
   109    56    55   ar
   110    57    55   ar
   111    37    35   ar
   112    55    54    1
   113    39    38    1
   114    39    40    1
   115    23    24    2
   116    32    31    1
   117    32    33   ar
   118    38    29   am
   119    31    28    1
   120    35    33   ar
   121    40    41    2
   122    29    28    1
   123    29    30    2
   124    54    53    1
   125    27    28    1
   126    53    50    1
   127    50    51    1
   128    50    49    1
   129    51    52    2
