@<TRIPOS>MOLECULE
tmp/6md7A00.pdb
 160 154 0 0 0
SMALL
GASTEIGER

@<TRIPOS>ATOM
      1  N         31.7280   46.8220    7.6680 N.3   105  THR105     -0.1218
      2  CA        31.6820   45.4570    7.0940 C.3   105  THR105      0.1862
      3  C         30.3640   44.6670    7.3250 C.2   105  THR105      0.2287
      4  O         29.9890   43.9450    6.4200 O.2   105  THR105     -0.2866
      5  CB        32.8810   44.5890    7.5080 C.3   105  THR105      0.1770
      6  OG1       33.0570   44.6330    8.9140 O.3   105  THR105     -0.2211
      7  CG2       34.1630   45.0050    6.8250 C.3   105  THR105      0.0375
      8  N         27.2310   45.9940    7.8980 N.3   107  GLU107     -0.1231
      9  CA        26.0760   46.7940    7.5520 C.3   107  GLU107      0.1699
     10  C         25.4110   46.1770    6.3390 C.2   107  GLU107      0.2592
     11  O         26.1010   45.7660    5.4040 O.2   107  GLU107     -0.2718
     12  CB        26.4910   48.2570    7.2790 C.3   107  GLU107      0.0402
     13  CG        27.0740   48.9370    8.5100 C.3   107  GLU107      0.1161
     14  CD        26.0850   49.3530    9.5890 C.2   107  GLU107      0.3649
     15  OE1       24.8590   49.2560    9.3600 O.co2 107  GLU107     -0.2457
     16  OE2       26.5390   49.7900   10.6670 O.co2 107  GLU107     -0.2457
     17  N         24.0640   46.0900    6.3520 N.am  108  ARG108     -0.1980
     18  CA        23.2960   45.5340    5.2420 C.3   108  ARG108      0.1597
     19  C         23.5350   46.2960    3.9340 C.2   108  ARG108      0.2287
     20  O         23.4310   45.7140    2.8600 O.2   108  ARG108     -0.2864
     21  CB        21.7730   45.6110    5.5460 C.3   108  ARG108      0.0334
     22  CG        21.3030   44.8720    6.8200 C.3   108  ARG108      0.0492
     23  CD        19.7860   44.9570    6.9250 C.3   108  ARG108      0.2205
     24  NE        19.1720   44.3130    5.7640 N.pl3 108  ARG108     -0.0865
     25  CZ        17.9350   44.5340    5.3310 C.cat 108  ARG108      0.5346
     26  NH1       17.1440   45.3990    5.9650 N.pl3 108  ARG108      0.1354
     27  NH2       17.4840   43.9050    4.2500 N.pl3 108  ARG108      0.1354
     28  N         26.3600   48.0440    3.1050 N.3   110  PHE110     -0.1227
     29  CA        27.7720   48.1550    2.7050 C.3   110  PHE110      0.1736
     30  C         28.2340   47.0180    1.7960 C.2   110  PHE110      0.2595
     31  O         28.0970   45.8450    2.1600 O.2   110  PHE110     -0.2718
     32  CB        28.6690   48.2890    3.9360 C.3   110  PHE110      0.0547
     33  CG        30.1040   48.5980    3.5820 C.ar  110  PHE110     -0.0202
     34  CD1       30.4570   49.8410    3.0490 C.ar  110  PHE110     -0.0042
     35  CD2       31.0980   47.6420    3.7500 C.ar  110  PHE110     -0.0042
     36  CE1       31.7760   50.1120    2.6740 C.ar  110  PHE110     -0.0003
     37  CE2       32.4250   47.9210    3.4070 C.ar  110  PHE110     -0.0003
     38  CZ        32.7550   49.1590    2.8710 C.ar  110  PHE110     -0.0000
     39  N         28.8040   47.3570    0.6200 N.am  111  HIS111     -0.1975
     40  CA        29.2580   46.3450   -0.3350 C.3   111  HIS111      0.1656
     41  C         30.7800   46.3610   -0.6680 C.2   111  HIS111      0.2291
     42  O         31.2070   45.6290   -1.5550 O.2   111  HIS111     -0.2864
     43  CB        28.4150   46.4200   -1.6000 C.3   111  HIS111      0.0771
     44  CG        27.0160   45.9610   -1.3530 C.ar  111  HIS111      0.0820
     45  ND1       26.6760   44.6280   -1.4360 N.ar  111  HIS111     -0.2267
     46  CD2       25.9370   46.6600   -0.9360 C.ar  111  HIS111      0.1154
     47  CE1       25.3970   44.5600   -1.1170 C.ar  111  HIS111      0.1986
     48  NE2       24.9100   45.7540   -0.8080 N.ar  111  HIS111     -0.2212
     49  N         18.0510   49.1770    2.5960 N.3   207  PRO207     -0.2102
     50  CA        19.2630   48.6840    1.9120 C.3   207  PRO207      0.1504
     51  C         18.8650   47.7890    0.7460 C.2   207  PRO207      0.2576
     52  O         17.8390   47.1020    0.8290 O.2   207  PRO207     -0.2718
     53  CB        19.9850   47.8570    2.9890 C.3   207  PRO207      0.0282
     54  CG        19.3740   48.2440    4.2840 C.3   207  PRO207      0.0208
     55  CD        17.9720   48.6750    3.9870 C.3   207  PRO207      0.0893
     56  N         19.6360   47.8240   -0.3550 N.am  208  LEU208     -0.1966
     57  CA        19.3450   46.9900   -1.5260 C.3   208  LEU208      0.1728
     58  C         19.4440   45.4990   -1.1660 C.2   208  LEU208      0.2616
     59  O         20.4330   45.0790   -0.5680 O.2   208  LEU208     -0.2715
     60  CB        20.3140   47.3100   -2.6840 C.3   208  LEU208      0.0311
     61  CG        20.1450   46.4860   -3.9630 C.3   208  LEU208      0.0022
     62  CD1       18.8900   46.8890   -4.7260 C.3   208  LEU208      0.0001
     63  CD2       21.3730   46.5820   -4.8400 C.3   208  LEU208      0.0001
     64  N         18.4320   44.7030   -1.5520 N.am  209  ASN209     -0.1958
     65  CA        18.4660   43.2720   -1.2800 C.3   209  ASN209      0.1819
     66  C         19.4040   42.5930   -2.2720 C.2   209  ASN209      0.2622
     67  O         19.1880   42.6950   -3.4770 O.2   209  ASN209     -0.2715
     68  CB        17.0720   42.6370   -1.3400 C.3   209  ASN209      0.1195
     69  CG        17.0970   41.1820   -0.9080 C.2   209  ASN209      0.2630
     70  OD1       17.8090   40.3590   -1.4760 O.2   209  ASN209     -0.2716
     71  ND2       16.3550   40.8440    0.1310 N.am  209  ASN209     -0.0877
     72  N         20.4350   41.8890   -1.7670 N.am  210  THR210     -0.1937
     73  CA        21.3800   41.1540   -2.6170 C.3   210  THR210      0.2028
     74  C         21.4310   39.6700   -2.2110 C.2   210  THR210      0.2642
     75  O         22.2420   38.9070   -2.7550 O.2   210  THR210     -0.2714
     76  CB        22.7690   41.8090   -2.5820 C.3   210  THR210      0.1808
     77  OG1       23.2400   41.8290   -1.2300 O.3   210  THR210     -0.2208
     78  CG2       22.7800   43.2290   -3.1890 C.3   210  THR210      0.0379
     79  N         20.5690   39.2590   -1.2430 N.am  211  THR211     -0.1950
     80  CA        20.5610   37.8810   -0.7270 C.3   211  THR211      0.1897
     81  C         19.4450   37.0320   -1.3200 C.2   211  THR211      0.2313
     82  O         19.5730   35.8110   -1.3650 O.2   211  THR211     -0.2863
     83  CB        20.5520   37.8550    0.8000 C.3   211  THR211      0.1794
     84  OG1       19.3880   38.5210    1.2700 O.3   211  THR211     -0.2208
     85  CG2       21.8280   38.4460    1.4210 C.3   211  THR211      0.0378
     86  N         30.4380   36.6890    6.2020 N.3   233  GLU233     -0.1231
     87  CA        30.0370   38.0890    6.0230 C.3   233  GLU233      0.1699
     88  C         28.5160   38.2230    6.0500 C.2   233  GLU233      0.2592
     89  O         27.9940   39.0950    6.7390 O.2   233  GLU233     -0.2718
     90  CB        30.5650   38.6720    4.7060 C.3   233  GLU233      0.0402
     91  CG        31.9870   39.2040    4.7900 C.3   233  GLU233      0.1161
     92  CD        32.2980   40.3600    3.8510 C.2   233  GLU233      0.3649
     93  OE1       31.4340   40.7200    3.0170 O.co2 233  GLU233     -0.2457
     94  OE2       33.4170   40.9110    3.9550 O.co2 233  GLU233     -0.2457
     95  N         27.8120   37.3650    5.2980 N.am  234  GLU234     -0.1979
     96  CA        26.3500   37.4010    5.2700 C.3   234  GLU234      0.1602
     97  C         25.7470   37.0600    6.6510 C.2   234  GLU234      0.2287
     98  O         24.8220   37.7500    7.0740 O.2   234  GLU234     -0.2864
     99  CB        25.8320   36.4550    4.2010 C.3   234  GLU234      0.0415
    100  CG        24.3540   36.6120    3.8780 C.3   234  GLU234      0.1163
    101  CD        23.9300   35.6770    2.7580 C.2   234  GLU234      0.3649
    102  OE1       23.3490   34.6090    3.0520 O.co2 234  GLU234     -0.2457
    103  OE2       24.2230   35.9910    1.5840 O.co2 234  GLU234     -0.2457
    104  N         26.2030   39.8710    9.0900 N.3   237  THR237     -0.1203
    105  CA        25.3660   41.0070    8.7160 C.3   237  THR237      0.1994
    106  C         23.9470   40.7560    9.2800 C.2   237  THR237      0.2617
    107  O         23.3220   41.6910    9.7670 O.2   237  THR237     -0.2717
    108  CB        25.3970   41.2320    7.2100 C.3   237  THR237      0.1784
    109  OG1       26.7430   41.5350    6.8400 O.3   237  THR237     -0.2211
    110  CG2       24.4290   42.3370    6.7570 C.3   237  THR237      0.0376
    111  N         23.4710   39.4890    9.2330 N.am  238  LEU238     -0.1979
    112  CA        22.1730   39.0610    9.8220 C.3   238  LEU238      0.1596
    113  C         22.2840   39.1670   11.3550 C.2   238  LEU238      0.2287
    114  O         21.3410   39.5970   12.0150 O.2   238  LEU238     -0.2864
    115  CB        21.8480   37.5930    9.3970 C.3   238  LEU238      0.0297
    116  CG        20.7120   36.8450   10.1070 C.3   238  LEU238      0.0022
    117  CD1       19.3500   37.5410    9.9370 C.3   238  LEU238      0.0001
    118  CD2       20.6220   35.4170    9.6530 C.3   238  LEU238      0.0001
    119  N         21.5230   42.5210   12.8750 N.3   241  GLN241     -0.1245
    120  CA        20.0850   42.8550   12.9460 C.3   241  GLN241      0.1566
    121  C         19.3450   42.3130   14.1910 C.2   241  GLN241      0.2260
    122  O         18.1550   42.6090   14.3880 O.2   241  GLN241     -0.2867
    123  CB        19.3540   42.3840   11.6800 C.3   241  GLN241      0.0367
    124  CG        19.8820   43.0160   10.3910 C.3   241  GLN241      0.0905
    125  CD        19.6450   44.5060   10.4200 C.2   241  GLN241      0.2608
    126  OE1       18.5100   44.9820   10.4190 O.2   241  GLN241     -0.2717
    127  NE2       20.7100   45.2630   10.4750 N.am  241  GLN241     -0.0878
    128  N         15.2000   33.5760    0.1320 N.3   460  ASP460     -0.1239
    129  CA        16.0790   34.5330    0.7910 C.3   460  ASP460      0.1674
    130  C         16.3380   33.9860    2.1950 C.2   460  ASP460      0.2266
    131  O         15.4930   34.1220    3.0820 O.2   460  ASP460     -0.2867
    132  CB        15.4060   35.9210    0.8140 C.3   460  ASP460      0.1410
    133  CG        16.2980   37.0770    1.2150 C.2   460  ASP460      0.3668
    134  OD1       17.3900   36.8280    1.7780 O.co2 460  ASP460     -0.2456
    135  OD2       15.8940   38.2250    1.0050 O.co2 460  ASP460     -0.2456
    136  N         18.6390   34.7720    4.7570 N.3   462  PRO462     -0.2102
    137  CA        18.6140   35.6900    5.9130 C.3   462  PRO462      0.1504
    138  C         17.2560   36.3070    6.1830 C.2   462  PRO462      0.2575
    139  O         16.9220   36.4350    7.3590 O.2   462  PRO462     -0.2718
    140  CB        19.6980   36.7300    5.6040 C.3   462  PRO462      0.0282
    141  CG        19.9770   36.5900    4.1770 C.3   462  PRO462      0.0208
    142  CD        19.6420   35.2020    3.7580 C.3   462  PRO462      0.0893
    143  N         16.4360   36.5950    5.1360 N.am  463  LYS463     -0.1980
    144  CA        15.0940   37.1310    5.3740 C.3   463  LYS463      0.1596
    145  C         14.2270   36.1510    6.1660 C.2   463  LYS463      0.2287
    146  O         13.5500   36.5620    7.1070 O.2   463  LYS463     -0.2864
    147  CB        14.3870   37.5270    4.0700 C.3   463  LYS463      0.0298
    148  CG        13.0570   38.2720    4.2740 C.3   463  LYS463      0.0038
    149  CD        12.3750   38.6340    2.9390 C.3   463  LYS463      0.0206
    150  CE        12.6650   40.0610    2.5200 C.3   463  LYS463      0.1093
    151  NZ        11.9260   40.4580    1.2800 N.3   463  LYS463     -0.1314
    152  N         15.4410   35.9700    9.8630 N.3   466  GLN466     -0.1245
    153  CA        15.0420   37.1560   10.6300 C.3   466  GLN466      0.1566
    154  C         13.5650   37.0390   10.9880 C.2   466  GLN466      0.2260
    155  O         13.1870   37.3010   12.1350 O.2   466  GLN466     -0.2867
    156  CB        15.3090   38.4620    9.8590 C.3   466  GLN466      0.0367
    157  CG        15.0570   39.7570   10.7000 C.3   466  GLN466      0.0905
    158  CD        16.0940   40.0220   11.7960 C.2   466  GLN466      0.2608
    159  OE1       16.9440   39.1770   12.1370 O.2   466  GLN466     -0.2717
    160  NE2       16.0380   41.2090   12.3950 N.am  466  GLN466     -0.0878
@<TRIPOS>BOND
     1    63    61    1
     2    62    61    1
     3    61    60    1
     4    67    66    2
     5    78    76    1
     6    75    74    2
     7    60    57    1
     8    73    76    1
     9    73    74    1
    10    73    72    1
    11    76    77    1
    12    66    72   am
    13    66    65    1
    14    74    79   am
    15    43    44    1
    16    43    40    1
    17    42    41    2
    18    64    65    1
    19    64    58   am
    20    57    58    1
    21    57    56    1
    22    70    69    2
    23    45    44   ar
    24    45    47   ar
    25    82    81    2
    26    44    46   ar
    27    68    65    1
    28    68    69    1
    29    81    80    1
    30    79    80    1
    31    58    59    2
    32    47    48   ar
    33    46    48   ar
    34    69    71   am
    35    80    83    1
    36    41    40    1
    37    56    51   am
    38    40    39    1
    39   128   129    1
    40    39    30   am
    41    51    52    2
    42    51    50    1
    43   129   132    1
    44   129   130    1
    45    83    84    1
    46    83    85    1
    47   132   133    1
    48   135   133   ar
    49   133   134   ar
    50   151   150    1
    51   103   101   ar
    52    30    31    2
    53    30    29    1
    54    50    49    1
    55    50    53    1
    56   130   131    2
    57   150   149    1
    58    49    55    1
    59    36    38   ar
    60    36    34   ar
    61    29    28    1
    62    29    32    1
    63   101   102   ar
    64   101   100    1
    65    20    19    2
    66    38    37   ar
    67   149   148    1
    68    53    54    1
    69    93    92   ar
    70    34    33   ar
    71    37    35   ar
    72    33    35   ar
    73    33    32    1
    74   142   141    1
    75   142   136    1
    76    92    94   ar
    77    92    91    1
    78   100    99    1
    79    19    18    1
    80    55    54    1
    81   147   148    1
    82   147   144    1
    83   141   140    1
    84    99    96    1
    85    27    25    1
    86    90    91    1
    87    90    87    1
    88   136   137    1
    89   143   144    1
    90   143   138   am
    91    18    21    1
    92    18    17    1
    93    96    95    1
    94    96    97    1
    95    95    88   am
    96    25    24    2
    97    25    26    1
    98   144   145    1
    99    11    10    2
   100    21    22    1
   101   140   137    1
   102    24    23    1
   103   137   138    1
   104    87    88    1
   105    87    86    1
   106    88    89    2
   107   145   146    2
   108   138   139    2
   109    10    17   am
   110    10     9    1
   111     4     3    2
   112    97    98    2
   113   110   108    1
   114    22    23    1
   115     7     5    1
   116   109   108    1
   117     2     3    1
   118     2     5    1
   119     2     1    1
   120   108   105    1
   121    12     9    1
   122    12    13    1
   123     5     6    1
   124     9     8    1
   125    13    14    1
   126   105   104    1
   127   105   106    1
   128   111   106   am
   129   111   112    1
   130   106   107    2
   131    15    14   ar
   132   115   112    1
   133   115   116    1
   134    14    16   ar
   135   118   116    1
   136   112   113    1
   137   156   153    1
   138   156   157    1
   139   152   153    1
   140   117   116    1
   141   124   125    1
   142   124   123    1
   143   126   125    2
   144   125   127   am
   145   153   154    1
   146   157   158    1
   147   154   155    2
   148   113   114    2
   149   123   120    1
   150   158   159    2
   151   158   160   am
   152   119   120    1
   153   120   121    1
   154   121   122    2
