@<TRIPOS>MOLECULE
tmp/6md9A00.pdb
 164 158 0 0 0
SMALL
GASTEIGER

@<TRIPOS>ATOM
      1  N         31.6430   46.9080    7.4560 N.3    92  THR92      -0.1218
      2  CA        31.6310   45.5520    6.8700 C.3    92  THR92       0.1862
      3  C         30.3570   44.7200    7.0590 C.2    92  THR92       0.2287
      4  O         29.9830   44.0060    6.1290 O.2    92  THR92      -0.2866
      5  CB        32.8240   44.7210    7.3640 C.3    92  THR92       0.1770
      6  OG1       32.9650   44.9170    8.7670 O.3    92  THR92      -0.2211
      7  CG2       34.1240   45.0570    6.6320 C.3    92  THR92       0.0375
      8  N         27.2190   45.8830    7.7120 N.3    94  GLU94      -0.1231
      9  CA        26.0280   46.6900    7.4560 C.3    94  GLU94       0.1699
     10  C         25.3840   46.1650    6.1780 C.2    94  GLU94       0.2592
     11  O         26.0950   45.8550    5.2250 O.2    94  GLU94      -0.2718
     12  CB        26.4010   48.1740    7.2940 C.3    94  GLU94       0.0402
     13  CG        26.8760   48.8450    8.5760 C.3    94  GLU94       0.1161
     14  CD        25.8320   49.2320    9.6100 C.2    94  GLU94       0.3649
     15  OE1       24.6270   48.9800    9.3890 O.co2  94  GLU94      -0.2457
     16  OE2       26.2300   49.7850   10.6580 O.co2  94  GLU94      -0.2457
     17  N         24.0530   46.0660    6.1510 N.am   95  ARG95      -0.1980
     18  CA        23.2770   45.5550    5.0130 C.3    95  ARG95       0.1597
     19  C         23.5070   46.3000    3.6890 C.2    95  ARG95       0.2287
     20  O         23.4130   45.6810    2.6370 O.2    95  ARG95      -0.2864
     21  CB        21.7790   45.5780    5.3410 C.3    95  ARG95       0.0334
     22  CG        21.3440   44.5810    6.4130 C.3    95  ARG95       0.0492
     23  CD        19.8740   44.7610    6.7050 C.3    95  ARG95       0.2205
     24  NE        19.0540   44.3470    5.5680 N.pl3  95  ARG95      -0.0865
     25  CZ        17.8160   44.7660    5.3410 C.cat  95  ARG95       0.5346
     26  NH1       17.2470   45.6460    6.1520 N.pl3  95  ARG95       0.1354
     27  NH2       17.1450   44.3250    4.2890 N.pl3  95  ARG95       0.1354
     28  N         26.4450   48.0440    2.8480 N.3    97  PHE97      -0.1227
     29  CA        27.8480   48.1430    2.4340 C.3    97  PHE97       0.1736
     30  C         28.2630   47.0290    1.4640 C.2    97  PHE97       0.2595
     31  O         28.1460   45.8470    1.7840 O.2    97  PHE97      -0.2718
     32  CB        28.7890   48.2340    3.6350 C.3    97  PHE97       0.0547
     33  CG        30.2210   48.5600    3.2750 C.ar   97  PHE97      -0.0202
     34  CD1       30.5570   49.8030    2.7440 C.ar   97  PHE97      -0.0042
     35  CD2       31.2400   47.6480    3.5160 C.ar   97  PHE97      -0.0042
     36  CE1       31.8810   50.1140    2.4330 C.ar   97  PHE97      -0.0003
     37  CE2       32.5730   47.9650    3.2110 C.ar   97  PHE97      -0.0003
     38  CZ        32.8830   49.2000    2.6750 C.ar   97  PHE97      -0.0000
     39  N         28.7660   47.4240    0.2860 N.am   98  HIS98      -0.1961
     40  CA        29.1590   46.5080   -0.7760 C.3    98  HIS98       0.1787
     41  C         30.6570   46.4770   -1.0850 C.2    98  HIS98       0.2620
     42  O         31.0700   45.6980   -1.9510 O.2    98  HIS98      -0.2715
     43  CB        28.3460   46.8040   -2.0370 C.3    98  HIS98       0.0785
     44  CG        26.9210   46.3810   -1.8950 C.ar   98  HIS98       0.0821
     45  ND1       26.4680   45.1920   -2.4350 N.ar   98  HIS98      -0.2267
     46  CD2       25.9150   46.9540   -1.1940 C.ar   98  HIS98       0.1154
     47  CE1       25.1980   45.0980   -2.0790 C.ar   98  HIS98       0.1986
     48  NE2       24.8180   46.1430   -1.3470 N.ar   98  HIS98      -0.2212
     49  N         31.4470   47.2680   -0.3580 N.am   99  GLY99      -0.1954
     50  CA        32.8930   47.3450   -0.5270 C.3    99  GLY99       0.1869
     51  C         33.2720   47.6500   -1.9570 C.2    99  GLY99       0.2309
     52  O         32.8130   48.6530   -2.5060 O.2    99  GLY99      -0.2863
     53  N         17.8640   49.0040    2.3780 N.3   186  PRO186     -0.2102
     54  CA        19.0820   48.5810    1.6600 C.3   186  PRO186      0.1504
     55  C         18.7120   47.7030    0.4690 C.2   186  PRO186      0.2576
     56  O         17.6680   47.0420    0.5170 O.2   186  PRO186     -0.2718
     57  CB        19.8430   47.7520    2.7010 C.3   186  PRO186      0.0282
     58  CG        19.3050   48.1920    4.0190 C.3   186  PRO186      0.0208
     59  CD        17.8580   48.4840    3.7630 C.3   186  PRO186      0.0893
     60  N         19.5320   47.7210   -0.6050 N.am  187  LEU187     -0.1966
     61  CA        19.2860   46.9000   -1.7970 C.3   187  LEU187      0.1728
     62  C         19.3360   45.4310   -1.4190 C.2   187  LEU187      0.2616
     63  O         20.2680   45.0170   -0.7260 O.2   187  LEU187     -0.2715
     64  CB        20.3050   47.2080   -2.9200 C.3   187  LEU187      0.0311
     65  CG        20.3770   46.2210   -4.1240 C.3   187  LEU187      0.0022
     66  CD1       19.1470   46.3030   -5.0050 C.3   187  LEU187      0.0001
     67  CD2       21.6120   46.4500   -4.9410 C.3   187  LEU187      0.0001
     68  N         18.3210   44.6490   -1.8430 N.am  188  ASN188     -0.1958
     69  CA        18.2940   43.2150   -1.5620 C.3   188  ASN188      0.1819
     70  C         19.0730   42.4450   -2.6150 C.2   188  ASN188      0.2622
     71  O         18.6250   42.3410   -3.7590 O.2   188  ASN188     -0.2715
     72  CB        16.8630   42.6750   -1.4400 C.3   188  ASN188      0.1195
     73  CG        16.8200   41.2170   -1.0340 C.2   188  ASN188      0.2630
     74  OD1       17.2630   40.3270   -1.7560 O.2   188  ASN188     -0.2716
     75  ND2       16.3330   40.9380    0.1550 N.am  188  ASN188     -0.0877
     76  N         20.2100   41.8540   -2.2060 N.am  189  THR189     -0.1937
     77  CA        21.0630   41.0480   -3.0780 C.3   189  THR189      0.2028
     78  C         21.0920   39.5630   -2.6370 C.2   189  THR189      0.2642
     79  O         21.6190   38.7230   -3.3730 O.2   189  THR189     -0.2714
     80  CB        22.4910   41.6370   -3.1410 C.3   189  THR189      0.1808
     81  OG1       23.0490   41.6740   -1.8260 O.3   189  THR189     -0.2208
     82  CG2       22.5440   43.0270   -3.8010 C.3   189  THR189      0.0379
     83  N         20.5410   39.2470   -1.4470 N.am  190  THR190     -0.1950
     84  CA        20.5530   37.8770   -0.8990 C.3   190  THR190      0.1897
     85  C         19.5500   36.9540   -1.5810 C.2   190  THR190      0.2313
     86  O         19.7760   35.7410   -1.6340 O.2   190  THR190     -0.2863
     87  CB        20.3940   37.8680    0.6320 C.3   190  THR190      0.1794
     88  OG1       19.1880   38.5310    1.0020 O.3   190  THR190     -0.2208
     89  CG2       21.5820   38.4920    1.3480 C.3   190  THR190      0.0378
     90  N         30.6720   36.1690    6.0360 N.3   212  GLU212     -0.1231
     91  CA        30.3380   37.5790    5.7700 C.3   212  GLU212      0.1699
     92  C         28.8190   37.8170    5.7750 C.2   212  GLU212      0.2592
     93  O         28.3440   38.7620    6.4110 O.2   212  GLU212     -0.2718
     94  CB        30.9570   38.0320    4.4390 C.3   212  GLU212      0.0402
     95  CG        32.2570   38.8030    4.5950 C.3   212  GLU212      0.1161
     96  CD        32.1020   40.2060    5.1530 C.2   212  GLU212      0.3649
     97  OE1       31.6080   41.0910    4.4170 O.co2 212  GLU212     -0.2457
     98  OE2       32.4690   40.4170    6.3330 O.co2 212  GLU212     -0.2457
     99  N         28.0630   36.9150    5.1190 N.am  213  GLU213     -0.1979
    100  CA        26.5970   36.9710    5.0690 C.3   213  GLU213      0.1602
    101  C         25.9360   36.6520    6.4330 C.2   213  GLU213      0.2287
    102  O         24.9800   37.3230    6.8120 O.2   213  GLU213     -0.2864
    103  CB        26.0840   36.0080    4.0120 C.3   213  GLU213      0.0415
    104  CG        24.7290   36.3840    3.4660 C.3   213  GLU213      0.1163
    105  CD        24.2790   35.4080    2.4060 C.2   213  GLU213      0.3649
    106  OE1       23.8420   34.2990    2.7810 O.co2 213  GLU213     -0.2457
    107  OE2       24.4130   35.7280    1.2040 O.co2 213  GLU213     -0.2457
    108  N         26.3410   39.6840    8.7710 N.3   216  THR216     -0.1203
    109  CA        25.4840   40.8390    8.4130 C.3   216  THR216      0.1994
    110  C         24.0620   40.6040    8.9800 C.2   216  THR216      0.2617
    111  O         23.4100   41.5440    9.4460 O.2   216  THR216     -0.2717
    112  CB        25.4800   41.1040    6.8800 C.3   216  THR216      0.1784
    113  OG1       26.8160   41.2110    6.4000 O.3   216  THR216     -0.2211
    114  CG2       24.7140   42.3560    6.5080 C.3   216  THR216      0.0376
    115  N         23.5950   39.3410    8.9240 N.am  217  LEU217     -0.1979
    116  CA        22.3020   38.8890    9.4810 C.3   217  LEU217      0.1596
    117  C         22.3250   39.0350   11.0010 C.2   217  LEU217      0.2287
    118  O         21.3570   39.5290   11.5840 O.2   217  LEU217     -0.2864
    119  CB        22.0370   37.4110    9.0680 C.3   217  LEU217      0.0297
    120  CG        20.8850   36.6440    9.7220 C.3   217  LEU217      0.0022
    121  CD1       19.5540   37.2050    9.3070 C.3   217  LEU217      0.0001
    122  CD2       20.9780   35.1830    9.3940 C.3   217  LEU217      0.0001
    123  N         21.5220   42.4160   12.6860 N.3   220  GLN220     -0.1245
    124  CA        20.1130   42.8010   12.6820 C.3   220  GLN220      0.1566
    125  C         19.3280   42.2070   13.8480 C.2   220  GLN220      0.2260
    126  O         18.1050   42.3880   13.9350 O.2   220  GLN220     -0.2867
    127  CB        19.4770   42.4680   11.3270 C.3   220  GLN220      0.0367
    128  CG        20.0850   43.2500   10.1590 C.3   220  GLN220      0.0905
    129  CD        19.9030   44.7450   10.2930 C.2   220  GLN220      0.2608
    130  OE1       18.7770   45.2630   10.3000 O.2   220  GLN220     -0.2717
    131  NE2       21.0070   45.4700   10.4190 N.am  220  GLN220     -0.0878
    132  N         15.1990   33.3800   -0.2520 N.3   432  ASP432     -0.1239
    133  CA        15.9510   34.3730    0.4890 C.3   432  ASP432      0.1674
    134  C         16.2170   33.8470    1.9290 C.2   432  ASP432      0.2266
    135  O         15.4330   34.0790    2.8520 O.2   432  ASP432     -0.2867
    136  CB        15.1830   35.7230    0.4620 C.3   432  ASP432      0.1410
    137  CG        16.0420   36.9210    0.7460 C.2   432  ASP432      0.3668
    138  OD1       17.2140   36.7320    1.1220 O.co2 432  ASP432     -0.2456
    139  OD2       15.5450   38.0390    0.6050 O.co2 432  ASP432     -0.2456
    140  N         18.6130   34.5820    4.5020 N.3   434  PRO434     -0.2102
    141  CA        18.6560   35.4800    5.6910 C.3   434  PRO434      0.1504
    142  C         17.3480   36.2060    5.9810 C.2   434  PRO434      0.2575
    143  O         17.0340   36.3980    7.1450 O.2   434  PRO434     -0.2718
    144  CB        19.7770   36.4590    5.3690 C.3   434  PRO434      0.0282
    145  CG        19.8860   36.4360    3.8970 C.3   434  PRO434      0.0208
    146  CD        19.5240   35.0630    3.4410 C.3   434  PRO434      0.0893
    147  N         16.5720   36.5800    4.9300 N.am  435  LYS435     -0.1980
    148  CA        15.2730   37.2160    5.1360 C.3   435  LYS435      0.1596
    149  C         14.3730   36.2650    5.8800 C.2   435  LYS435      0.2287
    150  O         13.6740   36.6770    6.8090 O.2   435  LYS435     -0.2864
    151  CB        14.6050   37.6790    3.8350 C.3   435  LYS435      0.0298
    152  CG        13.4070   38.6170    4.0720 C.3   435  LYS435      0.0038
    153  CD        12.7550   39.0560    2.7740 C.3   435  LYS435      0.0206
    154  CE        11.3310   39.4960    2.9700 C.3   435  LYS435      0.1093
    155  NZ        10.5880   39.5330    1.6810 N.3   435  LYS435     -0.1314
    156  N         15.6920   35.8470    9.5780 N.3   438  GLN438     -0.1245
    157  CA        15.3010   37.0830   10.2870 C.3   438  GLN438      0.1566
    158  C         13.8290   37.0810   10.6720 C.2   438  GLN438      0.2260
    159  O         13.4870   37.4630   11.7820 O.2   438  GLN438     -0.2867
    160  CB        15.6550   38.3260    9.4220 C.3   438  GLN438      0.0367
    161  CG        15.5490   39.6900   10.1430 C.3   438  GLN438      0.0905
    162  CD        16.4590   39.8640   11.3470 C.2   438  GLN438      0.2608
    163  OE1       17.2580   38.9980   11.7100 O.2   438  GLN438     -0.2717
    164  NE2       16.3590   41.0050   11.9940 N.am  438  GLN438     -0.0878
@<TRIPOS>BOND
     1    66    65    1
     2    67    65    1
     3    65    64    1
     4    82    80    1
     5    71    70    2
     6    79    78    2
     7    80    77    1
     8    80    81    1
     9    77    78    1
    10    77    76    1
    11    64    61    1
    12    78    83   am
    13    70    76   am
    14    70    69    1
    15    52    51    2
    16    45    47   ar
    17    45    44   ar
    18    47    48   ar
    19    43    44    1
    20    43    40    1
    21    51    50    1
    22    42    41    2
    23    44    46   ar
    24    68    69    1
    25    68    62   am
    26    61    62    1
    27    61    60    1
    28    74    73    2
    29    86    85    2
    30    85    84    1
    31    69    72    1
    32    83    84    1
    33    72    73    1
    34    62    63    2
    35    48    46   ar
    36    41    40    1
    37    41    49   am
    38    73    75   am
    39    84    87    1
    40    40    39    1
    41    60    55   am
    42    50    49    1
    43   132   133    1
    44    39    30   am
    45   136   133    1
    46   136   137    1
    47    55    56    2
    48    55    54    1
    49   133   134    1
    50   139   137   ar
    51    87    88    1
    52    87    89    1
    53   137   138   ar
    54   107   105   ar
    55    30    31    2
    56    30    29    1
    57    54    53    1
    58    54    57    1
    59   155   154    1
    60   134   135    2
    61    53    59    1
    62   105   106   ar
    63   105   104    1
    64    36    38   ar
    65    36    34   ar
    66    29    28    1
    67    29    32    1
    68    20    19    2
    69    38    37   ar
    70    57    58    1
    71    34    33   ar
    72   153   154    1
    73   153   152    1
    74    37    35   ar
    75    33    35   ar
    76    33    32    1
    77   146   145    1
    78   146   140    1
    79   104   103    1
    80    19    18    1
    81    59    58    1
    82   151   152    1
    83   151   148    1
    84   145   144    1
    85   103   100    1
    86    27    25    1
    87    97    96   ar
    88    94    95    1
    89    94    91    1
    90   140   141    1
    91    95    96    1
    92   147   148    1
    93   147   142   am
    94    18    21    1
    95    18    17    1
    96   100    99    1
    97   100   101    1
    98    99    92   am
    99   148   149    1
   100    96    98   ar
   101    11    10    2
   102    25    24    2
   103    25    26    1
   104    21    22    1
   105   144   141    1
   106    24    23    1
   107   141   142    1
   108    91    92    1
   109    91    90    1
   110    92    93    2
   111   149   150    2
   112   142   143    2
   113     4     3    2
   114    17    10   am
   115    10     9    1
   116   113   112    1
   117    22    23    1
   118   101   102    2
   119   114   112    1
   120     7     5    1
   121     2     3    1
   122     2     5    1
   123     2     1    1
   124   112   109    1
   125    12     9    1
   126    12    13    1
   127     5     6    1
   128     9     8    1
   129   109   108    1
   130   109   110    1
   131    13    14    1
   132   115   110   am
   133   115   116    1
   134   110   111    2
   135   119   116    1
   136   119   120    1
   137   121   120    1
   138    15    14   ar
   139   122   120    1
   140   160   161    1
   141   160   157    1
   142   116   117    1
   143   156   157    1
   144    14    16   ar
   145   161   162    1
   146   128   129    1
   147   128   127    1
   148   157   158    1
   149   129   130    2
   150   129   131   am
   151   158   159    2
   152   117   118    2
   153   127   124    1
   154   162   163    2
   155   162   164   am
   156   124   123    1
   157   124   125    1
   158   125   126    2
