@<TRIPOS>MOLECULE
tmp/6mdaA00.pdb
 157 151 0 0 0
SMALL
GASTEIGER

@<TRIPOS>ATOM
      1  N         27.2610   45.7240    7.5620 N.3    94  GLU94      -0.1231
      2  CA        26.1030   46.5410    7.2120 C.3    94  GLU94       0.1699
      3  C         25.5020   46.0090    5.8930 C.2    94  GLU94       0.2592
      4  O         26.2530   45.6870    4.9690 O.2    94  GLU94      -0.2718
      5  CB        26.4950   48.0480    7.1220 C.3    94  GLU94       0.0402
      6  CG        26.8990   48.6540    8.4680 C.3    94  GLU94       0.1161
      7  CD        25.7790   49.0420    9.4270 C.2    94  GLU94       0.3649
      8  OE1       24.6380   48.5650    9.2480 O.co2  94  GLU94      -0.2457
      9  OE2       26.0390   49.8360   10.3580 O.co2  94  GLU94      -0.2457
     10  N         24.1620   45.8910    5.8240 N.am   95  ARG95      -0.1980
     11  CA        23.4420   45.3600    4.6660 C.3    95  ARG95       0.1597
     12  C         23.6990   46.1230    3.3740 C.2    95  ARG95       0.2287
     13  O         23.7000   45.5310    2.2920 O.2    95  ARG95      -0.2864
     14  CB        21.9360   45.3210    4.9490 C.3    95  ARG95       0.0334
     15  CG        21.4750   44.1920    5.8470 C.3    95  ARG95       0.0492
     16  CD        20.0930   44.4750    6.3880 C.3    95  ARG95       0.2205
     17  NE        19.0260   44.2140    5.4130 N.pl3  95  ARG95      -0.0865
     18  CZ        17.7520   44.5360    5.6150 C.cat  95  ARG95       0.5346
     19  NH1       17.3850   45.1520    6.7260 N.pl3  95  ARG95       0.1354
     20  NH2       16.8380   44.2530    4.7010 N.pl3  95  ARG95       0.1354
     21  N         26.5350   47.9220    2.8630 N.3    97  PHE97      -0.1227
     22  CA        27.9580   48.0200    2.5180 C.3    97  PHE97       0.1736
     23  C         28.4330   46.9130    1.5680 C.2    97  PHE97       0.2595
     24  O         28.4690   45.7380    1.9400 O.2    97  PHE97      -0.2718
     25  CB        28.8730   48.1330    3.7450 C.3    97  PHE97       0.0547
     26  CG        30.2830   48.5380    3.3830 C.ar   97  PHE97      -0.0202
     27  CD1       30.5920   49.8640    3.0890 C.ar   97  PHE97      -0.0042
     28  CD2       31.2970   47.5920    3.3000 C.ar   97  PHE97      -0.0042
     29  CE1       31.8970   50.2380    2.7480 C.ar   97  PHE97      -0.0003
     30  CE2       32.6070   47.9710    2.9720 C.ar   97  PHE97      -0.0003
     31  CZ        32.8980   49.2950    2.7110 C.ar   97  PHE97      -0.0000
     32  N         28.8540   47.3310    0.3620 N.am   98  HIS98      -0.1975
     33  CA        29.3410   46.4680   -0.7200 C.3    98  HIS98       0.1656
     34  C         30.8500   46.5420   -1.0230 C.2    98  HIS98       0.2291
     35  O         31.3350   45.7200   -1.8030 O.2    98  HIS98      -0.2864
     36  CB        28.5520   46.7420   -1.9930 C.3    98  HIS98       0.0771
     37  CG        27.1720   46.1870   -1.9420 C.ar   98  HIS98       0.0820
     38  ND1       26.8960   44.9140   -2.3950 N.ar   98  HIS98      -0.2267
     39  CD2       26.0400   46.7310   -1.4460 C.ar   98  HIS98       0.1154
     40  CE1       25.6000   44.7380   -2.1960 C.ar   98  HIS98       0.1986
     41  NE2       25.0430   45.8090   -1.6430 N.ar   98  HIS98      -0.2212
     42  N         18.2210   48.7850    2.4360 N.3   186  PRO186     -0.2102
     43  CA        19.4230   48.3800    1.6820 C.3   186  PRO186      0.1504
     44  C         19.0470   47.5500    0.4520 C.2   186  PRO186      0.2576
     45  O         17.9360   46.9820    0.3930 O.2   186  PRO186     -0.2718
     46  CB        20.2090   47.5460    2.6950 C.3   186  PRO186      0.0282
     47  CG        19.6660   47.9450    4.0300 C.3   186  PRO186      0.0208
     48  CD        18.2350   48.2300    3.8040 C.3   186  PRO186      0.0893
     49  N         19.9500   47.5220   -0.5550 N.am  187  LEU187     -0.1966
     50  CA        19.7100   46.7470   -1.7730 C.3   187  LEU187      0.1728
     51  C         19.6590   45.2630   -1.3680 C.2   187  LEU187      0.2616
     52  O         20.5290   44.8150   -0.6250 O.2   187  LEU187     -0.2715
     53  CB        20.7970   47.0340   -2.8280 C.3   187  LEU187      0.0311
     54  CG        20.7110   46.2230   -4.1190 C.3   187  LEU187      0.0022
     55  CD1       19.5200   46.6320   -4.9800 C.3   187  LEU187      0.0001
     56  CD2       21.9560   46.3400   -4.8750 C.3   187  LEU187      0.0001
     57  N         18.6020   44.5360   -1.7790 N.am  188  ASN188     -0.1958
     58  CA        18.4040   43.1370   -1.3650 C.3   188  ASN188      0.1819
     59  C         19.1840   42.1550   -2.2120 C.2   188  ASN188      0.2622
     60  O         18.6010   41.4690   -3.0510 O.2   188  ASN188     -0.2715
     61  CB        16.9100   42.7940   -1.3150 C.3   188  ASN188      0.1195
     62  CG        16.5460   41.5690   -0.5020 C.2   188  ASN188      0.2630
     63  OD1       17.1870   41.2050    0.4940 O.2   188  ASN188     -0.2716
     64  ND2       15.4600   40.9360   -0.8900 N.am  188  ASN188     -0.0877
     65  N         20.5060   42.0850   -1.9980 N.am  189  THR189     -0.1937
     66  CA        21.3780   41.2160   -2.7840 C.3   189  THR189      0.2028
     67  C         21.2830   39.7390   -2.4370 C.2   189  THR189      0.2642
     68  O         21.6390   38.9040   -3.2810 O.2   189  THR189     -0.2714
     69  CB        22.8320   41.6750   -2.7340 C.3   189  THR189      0.1808
     70  OG1       23.1730   42.0440   -1.4050 O.3   189  THR189     -0.2208
     71  CG2       23.1180   42.8010   -3.7140 C.3   189  THR189      0.0379
     72  N         20.8260   39.4080   -1.2020 N.am  190  THR190     -0.1950
     73  CA        20.7470   38.0060   -0.7560 C.3   190  THR190      0.1897
     74  C         19.5590   37.2660   -1.3740 C.2   190  THR190      0.2313
     75  O         19.5960   36.0310   -1.4210 O.2   190  THR190     -0.2863
     76  CB        20.8050   37.8680    0.7560 C.3   190  THR190      0.1794
     77  OG1       19.6970   38.5100    1.3420 O.3   190  THR190     -0.2208
     78  CG2       22.0930   38.3840    1.3400 C.3   190  THR190      0.0378
     79  N         29.8910   32.3660   -2.3020 N.3   204  LEU204     -0.1245
     80  CA        29.9400   32.4480   -0.8430 C.3   204  LEU204      0.1561
     81  C         31.0780   31.6220   -0.2560 C.2   204  LEU204      0.2260
     82  O         31.6080   32.0060    0.7830 O.2   204  LEU204     -0.2867
     83  CB        28.5880   32.1250   -0.1950 C.3   204  LEU204      0.0270
     84  CG        27.4570   33.1410   -0.4480 C.3   204  LEU204      0.0019
     85  CD1       26.1130   32.6290    0.0690 C.3   204  LEU204      0.0001
     86  CD2       27.7860   34.5110    0.1490 C.3   204  LEU204      0.0001
     87  N         32.9790   34.4310    2.1640 N.3   209  GLY209     -0.1225
     88  CA        31.7560   35.1490    1.8000 C.3   209  GLY209      0.1811
     89  C         30.5820   34.8230    2.7120 C.2   209  GLY209      0.2280
     90  O         29.8020   35.7170    3.0500 O.2   209  GLY209     -0.2866
     91  N         30.7130   36.9150    5.9250 N.3   212  GLU212     -0.1231
     92  CA        30.2200   38.2920    5.7940 C.3   212  GLU212      0.1699
     93  C         28.6980   38.3310    5.7660 C.2   212  GLU212      0.2592
     94  O         28.0890   39.1910    6.4030 O.2   212  GLU212     -0.2718
     95  CB        30.7940   39.0030    4.5670 C.3   212  GLU212      0.0402
     96  CG        30.7600   40.5180    4.7360 C.3   212  GLU212      0.1161
     97  CD        31.1480   41.3810    3.5510 C.2   212  GLU212      0.3649
     98  OE1       32.1640   41.0730    2.8830 O.co2 212  GLU212     -0.2457
     99  OE2       30.4470   42.3910    3.3110 O.co2 212  GLU212     -0.2457
    100  N         28.0800   37.4050    5.0270 N.am  213  GLU213     -0.1979
    101  CA        26.6300   37.3650    4.9460 C.3   213  GLU213      0.1602
    102  C         25.9660   37.0700    6.3010 C.2   213  GLU213      0.2287
    103  O         25.0090   37.7420    6.6530 O.2   213  GLU213     -0.2864
    104  CB        26.1720   36.4070    3.8730 C.3   213  GLU213      0.0415
    105  CG        24.7390   36.6810    3.4760 C.3   213  GLU213      0.1163
    106  CD        24.2470   35.8060    2.3540 C.2   213  GLU213      0.3649
    107  OE1       23.3980   34.9230    2.6140 O.co2 213  GLU213     -0.2457
    108  OE2       24.7250   35.9970    1.2130 O.co2 213  GLU213     -0.2457
    109  N         26.3270   40.0230    8.8910 N.3   216  THR216     -0.1203
    110  CA        25.4470   41.1100    8.4570 C.3   216  THR216      0.1994
    111  C         24.0020   40.8080    8.9600 C.2   216  THR216      0.2617
    112  O         23.2680   41.7270    9.3340 O.2   216  THR216     -0.2717
    113  CB        25.5380   41.3030    6.9180 C.3   216  THR216      0.1784
    114  OG1       26.8990   41.5680    6.5260 O.3   216  THR216     -0.2211
    115  CG2       24.6390   42.4110    6.4140 C.3   216  THR216      0.0376
    116  N         23.6160   39.5130    8.9860 N.am  217  LEU217     -0.1979
    117  CA        22.3210   39.0730    9.5270 C.3   217  LEU217      0.1596
    118  C         22.3540   39.2060   11.0450 C.2   217  LEU217      0.2287
    119  O         21.3900   39.6900   11.6370 O.2   217  LEU217     -0.2864
    120  CB        22.0460   37.6190    9.1080 C.3   217  LEU217      0.0297
    121  CG        20.9020   36.8770    9.7990 C.3   217  LEU217      0.0022
    122  CD1       19.5200   37.4500    9.4020 C.3   217  LEU217      0.0001
    123  CD2       21.0180   35.3870    9.5430 C.3   217  LEU217      0.0001
    124  N         21.5540   42.5930   12.7070 N.3   220  GLN220     -0.1245
    125  CA        20.1410   42.9630   12.6950 C.3   220  GLN220      0.1566
    126  C         19.3920   42.3820   13.9110 C.2   220  GLN220      0.2260
    127  O         18.1810   42.5870   14.0210 O.2   220  GLN220     -0.2867
    128  CB        19.4960   42.4540   11.3940 C.3   220  GLN220      0.0367
    129  CG        20.1110   43.0090   10.1020 C.3   220  GLN220      0.0905
    130  CD        19.7150   44.4470    9.8900 C.2   220  GLN220      0.2608
    131  OE1       18.5720   44.7620    9.5580 O.2   220  GLN220     -0.2717
    132  NE2       20.6400   45.3510   10.0900 N.am  220  GLN220     -0.0878
    133  N         18.8400   34.7620    4.6800 N.3   434  PRO434     -0.2102
    134  CA        18.7710   35.6320    5.8760 C.3   434  PRO434      0.1504
    135  C         17.4400   36.3570    6.0760 C.2   434  PRO434      0.2575
    136  O         17.0710   36.5490    7.2190 O.2   434  PRO434     -0.2718
    137  CB        19.9240   36.6140    5.6730 C.3   434  PRO434      0.0282
    138  CG        20.1280   36.6470    4.2030 C.3   434  PRO434      0.0208
    139  CD        19.8940   35.2390    3.7520 C.3   434  PRO434      0.0893
    140  N         16.6910   36.7170    5.0060 N.am  435  LYS435     -0.1980
    141  CA        15.3830   37.3540    5.2380 C.3   435  LYS435      0.1596
    142  C         14.4790   36.3550    5.9660 C.2   435  LYS435      0.2287
    143  O         13.7600   36.7390    6.8940 O.2   435  LYS435     -0.2864
    144  CB        14.7120   37.8750    3.9420 C.3   435  LYS435      0.0298
    145  CG        13.3490   38.6300    4.1710 C.3   435  LYS435      0.0038
    146  CD        12.5210   38.7330    2.8870 C.3   435  LYS435      0.0206
    147  CE        11.1240   39.2840    3.0560 C.3   435  LYS435      0.1093
    148  NZ        10.1620   38.6740    2.0810 N.3   435  LYS435     -0.1314
    149  N         15.7340   35.9750    9.7210 N.3   438  GLN438     -0.1245
    150  CA        15.2850   37.2010   10.4100 C.3   438  GLN438      0.1566
    151  C         13.7600   37.1910   10.7140 C.2   438  GLN438      0.2260
    152  O         13.3570   37.6220   11.7930 O.2   438  GLN438     -0.2867
    153  CB        15.6550   38.4470    9.5740 C.3   438  GLN438      0.0367
    154  CG        15.4050   39.7900   10.2900 C.3   438  GLN438      0.0905
    155  CD        16.4050   40.1180   11.3830 C.2   438  GLN438      0.2608
    156  OE1       17.3080   39.3360   11.7240 O.2   438  GLN438     -0.2717
    157  NE2       16.2510   41.2870   11.9740 N.am  438  GLN438     -0.0878
@<TRIPOS>BOND
     1    55    54    1
     2    56    54    1
     3    54    53    1
     4    71    69    1
     5    68    67    2
     6    60    59    2
     7    53    50    1
     8    66    69    1
     9    66    67    1
    10    66    65    1
    11    69    70    1
    12    67    72   am
    13    38    40   ar
    14    38    37   ar
    15    79    80    1
    16    59    65   am
    17    59    58    1
    18    40    41   ar
    19    36    37    1
    20    36    33    1
    21    37    39   ar
    22    35    34    2
    23    57    51   am
    24    57    58    1
    25    50    51    1
    26    50    49    1
    27    41    39   ar
    28    75    74    2
    29    74    73    1
    30    51    52    2
    31    58    61    1
    32    61    62    1
    33    72    73    1
    34    34    33    1
    35    64    62   am
    36    80    81    1
    37    80    83    1
    38    73    76    1
    39    33    32    1
    40    49    44   am
    41    62    63    2
    42    84    83    1
    43    84    85    1
    44    84    86    1
    45    81    82    2
    46    32    23   am
    47    45    44    2
    48    44    43    1
    49    76    78    1
    50    76    77    1
    51   108   106   ar
    52    23    24    2
    53    23    22    1
    54    43    42    1
    55    43    46    1
    56    88    87    1
    57    88    89    1
    58   148   147    1
    59    13    12    2
    60   106   107   ar
    61   106   105    1
    62    42    48    1
    63    22    21    1
    64    22    25    1
    65    46    47    1
    66    31    29   ar
    67    31    30   ar
    68    89    90    2
    69    29    27   ar
    70    98    97   ar
    71   146   147    1
    72   146   145    1
    73    30    28   ar
    74    27    26   ar
    75    28    26   ar
    76    99    97   ar
    77    12    11    1
    78    26    25    1
    79   105   104    1
    80    97    96    1
    81   139   138    1
    82   139   133    1
    83    48    47    1
    84   104   101    1
    85   144   145    1
    86   144   141    1
    87   138   137    1
    88    95    96    1
    89    95    92    1
    90    11    14    1
    91    11    10    1
    92   133   134    1
    93    20    18    1
    94   101   100    1
    95   101   102    1
    96    14    15    1
    97     4     3    2
    98   140   141    1
    99   140   135   am
   100   100    93   am
   101   141   142    1
   102    17    18    2
   103    17    16    1
   104    18    19    1
   105   137   134    1
   106    93    92    1
   107    93    94    2
   108    92    91    1
   109    10     3   am
   110    15    16    1
   111   134   135    1
   112     3     2    1
   113   142   143    2
   114   135   136    2
   115   102   103    2
   116   115   113    1
   117   114   113    1
   118   113   110    1
   119     5     2    1
   120     5     6    1
   121     2     1    1
   122   110   109    1
   123   110   111    1
   124     6     7    1
   125   111   116   am
   126   111   112    2
   127   116   117    1
   128   120   117    1
   129   120   121    1
   130     8     7   ar
   131   122   121    1
   132     7     9   ar
   133   117   118    1
   134   123   121    1
   135   131   130    2
   136   153   154    1
   137   153   150    1
   138   149   150    1
   139   130   132   am
   140   130   129    1
   141   129   128    1
   142   154   155    1
   143   150   151    1
   144   151   152    2
   145   118   119    2
   146   155   156    2
   147   155   157   am
   148   128   125    1
   149   125   124    1
   150   125   126    1
   151   126   127    2
