@<TRIPOS>MOLECULE
tmp/6mdbA00.pdb
 164 157 0 0 0
SMALL
GASTEIGER

@<TRIPOS>ATOM
      1  N         31.7600   46.6970    7.3780 N.3   103  THR103     -0.1218
      2  CA        31.7120   45.3310    6.8190 C.3   103  THR103      0.1862
      3  C         30.4360   44.5040    7.1340 C.2   103  THR103      0.2287
      4  O         30.0410   43.7030    6.2880 O.2   103  THR103     -0.2866
      5  CB        32.9510   44.5200    7.2070 C.3   103  THR103      0.1770
      6  OG1       33.1140   44.5550    8.6180 O.3   103  THR103     -0.2211
      7  CG2       34.2080   45.0140    6.5310 C.3   103  THR103      0.0375
      8  N         27.2660   45.7180    7.6120 N.3   105  GLU105     -0.1231
      9  CA        26.0660   46.4830    7.2690 C.3   105  GLU105      0.1699
     10  C         25.4480   45.8790    6.0140 C.2   105  GLU105      0.2592
     11  O         26.1870   45.4270    5.1170 O.2   105  GLU105     -0.2718
     12  CB        26.4040   47.9630    7.0420 C.3   105  GLU105      0.0402
     13  CG        27.0050   48.6620    8.2470 C.3   105  GLU105      0.1161
     14  CD        26.0820   49.0750    9.3800 C.2   105  GLU105      0.3649
     15  OE1       24.8420   49.0100    9.2140 O.co2 105  GLU105     -0.2457
     16  OE2       26.6110   49.4760   10.4420 O.co2 105  GLU105     -0.2457
     17  N         24.0970   45.8440    5.9440 N.am  106  ARG106     -0.1980
     18  CA        23.4020   45.2740    4.7800 C.3   106  ARG106      0.1597
     19  C         23.6480   46.1030    3.5400 C.2   106  ARG106      0.2287
     20  O         23.5570   45.5750    2.4410 O.2   106  ARG106     -0.2864
     21  CB        21.8850   45.1670    5.0100 C.3   106  ARG106      0.0334
     22  CG        21.4370   44.4410    6.2820 C.3   106  ARG106      0.0492
     23  CD        19.9100   44.3850    6.3840 C.3   106  ARG106      0.2205
     24  NE        19.3290   43.8760    5.1360 N.pl3 106  ARG106     -0.0865
     25  CZ        18.0870   44.1090    4.7260 C.cat 106  ARG106      0.5346
     26  NH1       17.2490   44.8090    5.4860 N.pl3 106  ARG106      0.1354
     27  NH2       17.6730   43.6450    3.5530 N.pl3 106  ARG106      0.1354
     28  N         26.6130   47.8590    2.8170 N.3   108  PHE108     -0.1227
     29  CA        28.0230   47.9730    2.3930 C.3   108  PHE108      0.1736
     30  C         28.4830   46.8700    1.4120 C.2   108  PHE108      0.2595
     31  O         28.5190   45.6920    1.7650 O.2   108  PHE108     -0.2718
     32  CB        28.9730   48.0720    3.6030 C.3   108  PHE108      0.0547
     33  CG        30.3910   48.4130    3.2180 C.ar  108  PHE108     -0.0202
     34  CD1       30.6960   49.6390    2.6350 C.ar  108  PHE108     -0.0042
     35  CD2       31.4230   47.5090    3.4330 C.ar  108  PHE108     -0.0042
     36  CE1       32.0100   49.9460    2.2530 C.ar  108  PHE108     -0.0003
     37  CE2       32.7430   47.8290    3.0870 C.ar  108  PHE108     -0.0003
     38  CZ        33.0290   49.0480    2.5000 C.ar  108  PHE108     -0.0000
     39  N         28.9000   47.2820    0.1980 N.am  109  HIS109     -0.1975
     40  CA        29.3110   46.3650   -0.8670 C.3   109  HIS109      0.1656
     41  C         30.8060   46.3750   -1.2290 C.2   109  HIS109      0.2291
     42  O         31.1790   45.7400   -2.2210 O.2   109  HIS109     -0.2864
     43  CB        28.4600   46.6090   -2.1050 C.3   109  HIS109      0.0771
     44  CG        27.1000   46.0290   -1.9500 C.ar  109  HIS109      0.0820
     45  ND1       26.8320   44.7270   -2.3210 N.ar  109  HIS109     -0.2267
     46  CD2       25.9950   46.5590   -1.3770 C.ar  109  HIS109      0.1154
     47  CE1       25.5660   44.5150   -1.9990 C.ar  109  HIS109      0.1986
     48  NE2       25.0200   45.5890   -1.4320 N.ar  109  HIS109     -0.2212
     49  N         18.1540   48.8930    2.4120 N.3   199  PRO199     -0.2102
     50  CA        19.3610   48.4860    1.6670 C.3   199  PRO199      0.1504
     51  C         18.9690   47.6010    0.4910 C.2   199  PRO199      0.2576
     52  O         17.9560   46.9070    0.5760 O.2   199  PRO199     -0.2718
     53  CB        20.1390   47.6420    2.6860 C.3   199  PRO199      0.0282
     54  CG        19.5890   48.0110    4.0030 C.3   199  PRO199      0.0208
     55  CD        18.1380   48.2830    3.7520 C.3   199  PRO199      0.0893
     56  N         19.7780   47.5890   -0.5740 N.am  200  LEU200     -0.1966
     57  CA        19.5270   46.7690   -1.7600 C.3   200  LEU200      0.1728
     58  C         19.5620   45.2740   -1.4320 C.2   200  LEU200      0.2616
     59  O         20.5340   44.7840   -0.8540 O.2   200  LEU200     -0.2715
     60  CB        20.5450   47.0980   -2.8800 C.3   200  LEU200      0.0311
     61  CG        20.4890   46.2210   -4.1570 C.3   200  LEU200      0.0022
     62  CD1       19.2210   46.4470   -4.9460 C.3   200  LEU200      0.0001
     63  CD2       21.6660   46.4770   -5.0340 C.3   200  LEU200      0.0001
     64  N         18.5060   44.5520   -1.8270 N.am  201  ASN201     -0.1958
     65  CA        18.4180   43.1210   -1.5970 C.3   201  ASN201      0.1819
     66  C         19.2310   42.3760   -2.6400 C.2   201  ASN201      0.2622
     67  O         18.8590   42.3530   -3.8260 O.2   201  ASN201     -0.2715
     68  CB        16.9530   42.6470   -1.6050 C.3   201  ASN201      0.1195
     69  CG        16.7610   41.2010   -1.2090 C.2   201  ASN201      0.2630
     70  OD1       17.6550   40.3520   -1.3160 O.2   201  ASN201     -0.2716
     71  ND2       15.5780   40.8850   -0.7370 N.am  201  ASN201     -0.0877
     72  N         20.3280   41.7500   -2.1900 N.am  202  THR202     -0.1937
     73  CA        21.2070   40.9500   -3.0380 C.3   202  THR202      0.2028
     74  C         21.2490   39.4920   -2.5500 C.2   202  THR202      0.2642
     75  O         21.9040   38.6520   -3.1730 O.2   202  THR202     -0.2714
     76  CB        22.6040   41.5880   -3.1640 C.3   202  THR202      0.1808
     77  OG1       23.2050   41.6840   -1.8710 O.3   202  THR202     -0.2208
     78  CG2       22.5790   42.9670   -3.8650 C.3   202  THR202      0.0379
     79  N         20.5570   39.1910   -1.4360 N.am  203  THR203     -0.1950
     80  CA        20.5330   37.8420   -0.8690 C.3   203  THR203      0.1897
     81  C         19.4110   37.0120   -1.4820 C.2   203  THR203      0.2313
     82  O         19.5230   35.7920   -1.5080 O.2   203  THR203     -0.2863
     83  CB        20.5180   37.8680    0.6650 C.3   203  THR203      0.1794
     84  OG1       19.3560   38.5690    1.1030 O.3   203  THR203     -0.2208
     85  CG2       21.7770   38.4980    1.2520 C.3   203  THR203      0.0378
     86  N         32.4760   34.0770    2.0620 N.3   222  GLY222     -0.1225
     87  CA        31.2650   34.8460    1.7660 C.3   222  GLY222      0.1811
     88  C         30.1110   34.4750    2.6780 C.2   222  GLY222      0.2280
     89  O         29.2600   35.3210    2.9680 O.2   222  GLY222     -0.2866
     90  N         30.5140   36.4590    6.0340 N.3   225  GLU225     -0.1231
     91  CA        30.0790   37.8440    5.8990 C.3   225  GLU225      0.1699
     92  C         28.5580   37.9890    5.8640 C.2   225  GLU225      0.2592
     93  O         28.0220   38.8940    6.4900 O.2   225  GLU225     -0.2718
     94  CB        30.7100   38.4690    4.6560 C.3   225  GLU225      0.0402
     95  CG        31.7540   39.5240    4.9670 C.3   225  GLU225      0.1161
     96  CD        31.9350   40.5530    3.8640 C.2   225  GLU225      0.3649
     97  OE1       33.1010   40.9040    3.5660 O.co2 225  GLU225     -0.2457
     98  OE2       30.9150   41.0090    3.2940 O.co2 225  GLU225     -0.2457
     99  N         27.8590   37.1030    5.1280 N.am  226  GLU226     -0.1979
    100  CA        26.3960   37.1360    5.0270 C.3   226  GLU226      0.1602
    101  C         25.7810   36.8460    6.4020 C.2   226  GLU226      0.2287
    102  O         24.9120   37.5980    6.8510 O.2   226  GLU226     -0.2864
    103  CB        25.8930   36.1700    3.9330 C.3   226  GLU226      0.0415
    104  CG        24.5680   36.5610    3.3050 C.3   226  GLU226      0.1163
    105  CD        24.0890   35.6290    2.2080 C.2   226  GLU226      0.3649
    106  OE1       23.6800   34.4950    2.5380 O.co2 226  GLU226     -0.2457
    107  OE2       24.1220   36.0210    1.0190 O.co2 226  GLU226     -0.2457
    108  N         26.3540   39.7410    8.9360 N.3   229  THR229     -0.1203
    109  CA        25.4990   40.8760    8.5990 C.3   229  THR229      0.1994
    110  C         24.0950   40.6220    9.1730 C.2   229  THR229      0.2617
    111  O         23.3770   41.5690    9.4670 O.2   229  THR229     -0.2717
    112  CB        25.5380   41.1670    7.0780 C.3   229  THR229      0.1784
    113  OG1       26.8850   41.3410    6.6920 O.3   229  THR229     -0.2211
    114  CG2       24.7620   42.4190    6.6860 C.3   229  THR229      0.0376
    115  N         23.7150   39.3420    9.3200 N.am  230  LEU230     -0.1979
    116  CA        22.4350   38.9160    9.8740 C.3   230  LEU230      0.1596
    117  C         22.4840   39.0570   11.4030 C.2   230  LEU230      0.2287
    118  O         21.5610   39.6130   12.0100 O.2   230  LEU230     -0.2864
    119  CB        22.1090   37.4740    9.4050 C.3   230  LEU230      0.0297
    120  CG        20.9170   36.7860   10.0180 C.3   230  LEU230      0.0022
    121  CD1       19.6090   37.4860    9.6410 C.3   230  LEU230      0.0001
    122  CD2       20.9110   35.3420    9.6690 C.3   230  LEU230      0.0001
    123  N         21.7650   42.4240   12.8410 N.3   233  GLN233     -0.1245
    124  CA        20.3490   42.8160   12.7890 C.3   233  GLN233      0.1566
    125  C         19.5250   42.2510   13.9550 C.2   233  GLN233      0.2260
    126  O         18.3010   42.4260   13.9840 O.2   233  GLN233     -0.2867
    127  CB        19.7300   42.4590   11.4180 C.3   233  GLN233      0.0367
    128  CG        20.3000   43.2910   10.2620 C.3   233  GLN233      0.0905
    129  CD        20.1110   44.7730   10.4620 C.2   233  GLN233      0.2608
    130  OE1       18.9870   45.2960   10.4530 O.2   233  GLN233     -0.2717
    131  NE2       21.2090   45.4800   10.6630 N.am  233  GLN233     -0.0878
    132  N         15.1610   33.5250   -0.0620 N.3   451  ASP451     -0.1239
    133  CA        16.0120   34.4950    0.6390 C.3   451  ASP451      0.1674
    134  C         16.3050   33.9520    2.0650 C.2   451  ASP451      0.2266
    135  O         15.5090   34.1750    2.9900 O.2   451  ASP451     -0.2867
    136  CB        15.3220   35.8800    0.6650 C.3   451  ASP451      0.1410
    137  CG        16.2230   37.0510    0.9690 C.2   451  ASP451      0.3668
    138  OD1       17.3500   36.8270    1.4750 O.co2 451  ASP451     -0.2456
    139  OD2       15.7960   38.1860    0.7500 O.co2 451  ASP451     -0.2456
    140  N         18.6380   34.6510    4.6520 N.3   453  PRO453     -0.2102
    141  CA        18.6680   35.5540    5.8290 C.3   453  PRO453      0.1504
    142  C         17.3280   36.2000    6.1260 C.2   453  PRO453      0.2575
    143  O         17.0000   36.3740    7.3030 O.2   453  PRO453     -0.2718
    144  CB        19.7040   36.6260    5.4440 C.3   453  PRO453      0.0282
    145  CG        20.4420   36.0750    4.2940 C.3   453  PRO453      0.0208
    146  CD        19.5270   35.1610    3.5750 C.3   453  PRO453      0.0893
    147  N         16.5520   36.5500    5.0740 N.am  454  LYS454     -0.1980
    148  CA        15.2420   37.1560    5.2790 C.3   454  LYS454      0.1596
    149  C         14.3280   36.1870    6.0160 C.2   454  LYS454      0.2287
    150  O         13.5250   36.6210    6.8240 O.2   454  LYS454     -0.2864
    151  CB        14.5850   37.5930    3.9500 C.3   454  LYS454      0.0298
    152  CG        13.4660   38.6360    4.1210 C.3   454  LYS454      0.0038
    153  CD        12.6210   38.7890    2.8670 C.3   454  LYS454      0.0206
    154  CE        11.4060   39.6430    3.1360 C.3   454  LYS454      0.1093
    155  NZ        10.3430   39.4740    2.1020 N.3   454  LYS454     -0.1314
    156  N         15.6700   35.8400    9.8120 N.3   457  GLN457     -0.1245
    157  CA        15.2500   37.0620   10.5230 C.3   457  GLN457      0.1566
    158  C         13.7780   37.0320   10.8940 C.2   457  GLN457      0.2260
    159  O         13.4120   37.3910   11.9960 O.2   457  GLN457     -0.2867
    160  CB        15.5720   38.3300    9.7000 C.3   457  GLN457      0.0367
    161  CG        15.3950   39.6530   10.4970 C.3   457  GLN457      0.0905
    162  CD        16.4490   39.8720   11.5670 C.2   457  GLN457      0.2608
    163  OE1       17.3390   39.0300   11.8160 O.2   457  GLN457     -0.2717
    164  NE2       16.3690   41.0180   12.2280 N.am  457  GLN457     -0.0878
@<TRIPOS>BOND
     1    63    61    1
     2    62    61    1
     3    61    60    1
     4    78    76    1
     5    67    66    2
     6    75    74    2
     7    76    73    1
     8    76    77    1
     9    73    74    1
    10    73    72    1
    11    60    57    1
    12    66    72   am
    13    66    65    1
    14    74    79   am
    15    45    47   ar
    16    45    44   ar
    17    42    41    2
    18    43    44    1
    19    43    40    1
    20    47    48   ar
    21    44    46   ar
    22    64    65    1
    23    64    58   am
    24    57    58    1
    25    57    56    1
    26    68    65    1
    27    68    69    1
    28    82    81    2
    29    81    80    1
    30    79    80    1
    31    58    59    2
    32    48    46   ar
    33    70    69    2
    34    41    40    1
    35    69    71   am
    36    80    83    1
    37    40    39    1
    38    56    51   am
    39   132   133    1
    40    39    30   am
    41    51    52    2
    42    51    50    1
    43   133   136    1
    44   133   134    1
    45    83    84    1
    46    83    85    1
    47   136   137    1
    48   139   137   ar
    49   137   138   ar
    50   107   105   ar
    51    30    31    2
    52    30    29    1
    53    50    49    1
    54    50    53    1
    55    87    86    1
    56    87    88    1
    57   134   135    2
    58   155   154    1
    59   105   106   ar
    60   105   104    1
    61    36    38   ar
    62    36    34   ar
    63    29    28    1
    64    29    32    1
    65    49    55    1
    66    20    19    2
    67    38    37   ar
    68    34    33   ar
    69    88    89    2
    70    53    54    1
    71   153   154    1
    72   153   152    1
    73    37    35   ar
    74    33    35   ar
    75    33    32    1
    76    98    96   ar
    77   104   103    1
    78    19    18    1
    79    27    25    1
    80    97    96   ar
    81   146   145    1
    82   146   140    1
    83    55    54    1
    84    96    95    1
    85   103   100    1
    86   151   152    1
    87   151   148    1
    88   145   144    1
    89   140   141    1
    90    94    95    1
    91    94    91    1
    92    25    24    2
    93    25    26    1
    94    18    21    1
    95    18    17    1
    96    21    22    1
    97   100    99    1
    98   100   101    1
    99   147   148    1
   100   147   142   am
   101    11    10    2
   102    99    92   am
   103    24    23    1
   104   148   149    1
   105   144   141    1
   106   141   142    1
   107    92    91    1
   108    92    93    2
   109    91    90    1
   110    17    10   am
   111    10     9    1
   112   149   150    2
   113   142   143    2
   114    22    23    1
   115     4     3    2
   116   101   102    2
   117     7     5    1
   118   114   112    1
   119   113   112    1
   120     2     3    1
   121     2     5    1
   122     2     1    1
   123    12     9    1
   124    12    13    1
   125   112   109    1
   126     5     6    1
   127     9     8    1
   128    13    14    1
   129   109   108    1
   130   109   110    1
   131   110   115   am
   132   110   111    2
   133    15    14   ar
   134   115   116    1
   135    14    16   ar
   136   119   116    1
   137   119   120    1
   138   121   120    1
   139   122   120    1
   140   160   161    1
   141   160   157    1
   142   156   157    1
   143   116   117    1
   144   128   129    1
   145   128   127    1
   146   130   129    2
   147   129   131   am
   148   161   162    1
   149   157   158    1
   150   158   159    2
   151   117   118    2
   152   127   124    1
   153   162   163    2
   154   162   164   am
   155   124   123    1
   156   124   125    1
   157   125   126    2
