@<TRIPOS>MOLECULE
tmp/6mdbB00.pdb
 177 169 0 0 0
SMALL
GASTEIGER

@<TRIPOS>ATOM
      1  N         10.7310  -29.6570   27.6500 N.3   104  THR104     -0.1218
      2  CA        10.9380  -28.3110   27.0640 C.3   104  THR104      0.1862
      3  C         12.0990  -27.4900   27.6540 C.2   104  THR104      0.2287
      4  O         12.7470  -26.7560   26.8980 O.2   104  THR104     -0.2866
      5  CB         9.6540  -27.4530   27.0800 C.3   104  THR104      0.1770
      6  OG1        9.0800  -27.4560   28.3890 O.3   104  THR104     -0.2211
      7  CG2        8.6320  -27.8890   26.0310 C.3   104  THR104      0.0375
      8  N         14.9490  -28.7130   29.0390 N.3   106  GLU106     -0.1231
      9  CA        16.2150  -29.4570   29.0070 C.3   106  GLU106      0.1699
     10  C         17.1320  -28.9090   27.9190 C.2   106  GLU106      0.2592
     11  O         16.6650  -28.5960   26.8200 O.2   106  GLU106     -0.2718
     12  CB        15.9800  -30.9590   28.7910 C.3   106  GLU106      0.0402
     13  CG        15.1940  -31.6320   29.9090 C.3   106  GLU106      0.1161
     14  CD        15.9240  -31.9390   31.2080 C.2   106  GLU106      0.3649
     15  OE1       17.0400  -31.4140   31.4390 O.co2 106  GLU106     -0.2457
     16  OE2       15.3580  -32.7170   32.0080 O.co2 106  GLU106     -0.2457
     17  N         18.4450  -28.8080   28.2300 N.am  107  ARG107     -0.1980
     18  CA        19.4910  -28.3110   27.3290 C.3   107  ARG107      0.1597
     19  C         19.5980  -29.1240   26.0460 C.2   107  ARG107      0.2287
     20  O         19.9930  -28.5730   25.0250 O.2   107  ARG107     -0.2864
     21  CB        20.8490  -28.3080   28.0350 C.3   107  ARG107      0.0334
     22  CG        21.0020  -27.2880   29.1550 C.3   107  ARG107      0.0492
     23  CD        22.4210  -27.3260   29.6990 C.3   107  ARG107      0.2205
     24  NE        23.4040  -27.0140   28.6620 N.pl3 107  ARG107     -0.0865
     25  CZ        24.6930  -27.3320   28.7280 C.cat 107  ARG107      0.5346
     26  NH1       25.1710  -27.9760   29.7880 N.pl3 107  ARG107      0.1354
     27  NH2       25.5100  -27.0300   27.7250 N.pl3 107  ARG107      0.1354
     28  N         16.8670  -30.9400   24.5670 N.3   109  PHE109     -0.1227
     29  CA        15.5830  -31.0080   23.8510 C.3   109  PHE109      0.1736
     30  C         15.3520  -29.8860   22.8240 C.2   109  PHE109      0.2595
     31  O         15.2640  -28.7140   23.1950 O.2   109  PHE109     -0.2718
     32  CB        14.4230  -31.0630   24.8440 C.3   109  PHE109      0.0547
     33  CG        13.0750  -31.2920   24.2030 C.ar  109  PHE109     -0.0202
     34  CD1       12.7120  -32.5510   23.7400 C.ar  109  PHE109     -0.0042
     35  CD2       12.1490  -30.2640   24.1110 C.ar  109  PHE109     -0.0042
     36  CE1       11.4620  -32.7670   23.1630 C.ar  109  PHE109     -0.0003
     37  CE2       10.8860  -30.4900   23.5600 C.ar  109  PHE109     -0.0003
     38  CZ        10.5540  -31.7400   23.0850 C.ar  109  PHE109     -0.0000
     39  N         15.1670  -30.2610   21.5390 N.am  110  HIS110     -0.1961
     40  CA        14.9580  -29.2920   20.4670 C.3   110  HIS110      0.1787
     41  C         13.6120  -29.3740   19.7640 C.2   110  HIS110      0.2620
     42  O         13.5350  -28.9660   18.6100 O.2   110  HIS110     -0.2715
     43  CB        16.0850  -29.3970   19.4550 C.3   110  HIS110      0.0785
     44  CG        17.4050  -29.0660   20.0400 C.ar  110  HIS110      0.0821
     45  ND1       18.0210  -27.8780   19.7710 N.ar  110  HIS110     -0.2267
     46  CD2       18.1830  -29.7850   20.8780 C.ar  110  HIS110      0.1154
     47  CE1       19.1540  -27.8990   20.4520 C.ar  110  HIS110      0.1986
     48  NE2       19.2890  -29.0270   21.1360 N.ar  110  HIS110     -0.2212
     49  N         12.5770  -29.8570   20.4530 N.am  111  GLY111     -0.1954
     50  CA        11.2140  -29.9830   19.9270 C.3   111  GLY111      0.1869
     51  C         11.1390  -30.2900   18.4430 C.2   111  GLY111      0.2309
     52  O         11.6930  -31.2970   17.9950 O.2   111  GLY111     -0.2863
     53  N         25.0510  -32.0630   25.8800 N.3   197  PRO197     -0.2102
     54  CA        24.0940  -31.6280   24.8430 C.3   197  PRO197      0.1504
     55  C         24.8030  -30.8200   23.7540 C.2   197  PRO197      0.2576
     56  O         25.9140  -30.3220   23.9740 O.2   197  PRO197     -0.2718
     57  CB        23.1080  -30.7300   25.6110 C.3   197  PRO197      0.0282
     58  CG        23.2610  -31.1100   27.0330 C.3   197  PRO197      0.0208
     59  CD        24.7230  -31.4560   27.1860 C.3   197  PRO197      0.0893
     60  N         24.1770  -30.6830   22.5820 N.am  198  LEU198     -0.1966
     61  CA        24.7800  -29.8960   21.5170 C.3   198  LEU198      0.1728
     62  C         24.7050  -28.3940   21.8960 C.2   198  LEU198      0.2616
     63  O         23.6760  -27.9260   22.3800 O.2   198  LEU198     -0.2715
     64  CB        24.0730  -30.2060   20.1820 C.3   198  LEU198      0.0311
     65  CG        24.4010  -29.3020   18.9980 C.3   198  LEU198      0.0022
     66  CD1       25.6000  -29.7870   18.2480 C.3   198  LEU198      0.0001
     67  CD2       23.2330  -29.1930   18.0980 C.3   198  LEU198      0.0001
     68  N         25.8090  -27.6590   21.7350 N.am  199  ASN199     -0.1958
     69  CA        25.8010  -26.2470   22.0940 C.3   199  ASN199      0.1819
     70  C         25.1640  -25.4500   20.9840 C.2   199  ASN199      0.2622
     71  O         25.7430  -25.3630   19.8970 O.2   199  ASN199     -0.2715
     72  CB        27.2050  -25.7390   22.3890 C.3   199  ASN199      0.1195
     73  CG        27.2030  -24.2950   22.7960 C.2   199  ASN199      0.2630
     74  OD1       27.0020  -23.4080   21.9770 O.2   199  ASN199     -0.2716
     75  ND2       27.3750  -24.0300   24.0740 N.am  199  ASN199     -0.0877
     76  N         23.9770  -24.8730   21.2420 N.am  200  THR200     -0.1937
     77  CA        23.2710  -24.0730   20.2360 C.3   200  THR200      0.2028
     78  C         23.2360  -22.5760   20.5760 C.2   200  THR200      0.2642
     79  O         22.8490  -21.7620   19.7320 O.2   200  THR200     -0.2714
     80  CB        21.8590  -24.6300   19.9550 C.3   200  THR200      0.1808
     81  OG1       20.9440  -24.2830   21.0020 O.3   200  THR200     -0.2208
     82  CG2       21.8540  -26.1180   19.6910 C.3   200  THR200      0.0379
     83  N         23.6380  -22.2210   21.7980 N.am  201  THR201     -0.1950
     84  CA        23.5730  -20.8440   22.3000 C.3   201  THR201      0.1897
     85  C         24.8450  -20.0300   21.9990 C.2   201  THR201      0.2313
     86  O         24.7720  -18.7990   21.9960 O.2   201  THR201     -0.2863
     87  CB        23.1930  -20.8280   23.7950 C.3   201  THR201      0.1794
     88  OG1       24.1700  -21.5560   24.5370 O.3   201  THR201     -0.2208
     89  CG2       21.7950  -21.4180   24.0570 C.3   201  THR201      0.0378
     90  N         11.5110  -17.2710   22.5290 N.3   219  GLY219     -0.1225
     91  CA        12.7360  -18.0520   22.6840 C.3   219  GLY219      0.1811
     92  C         13.6330  -17.5840   23.8210 C.2   219  GLY219      0.2280
     93  O         14.4250  -18.3780   24.3330 O.2   219  GLY219     -0.2866
     94  N         12.4180  -19.4100   26.8050 N.3   222  GLU222     -0.1231
     95  CA        12.8740  -20.7730   26.6290 C.3   222  GLU222      0.1699
     96  C         14.3220  -20.9150   27.0600 C.2   222  GLU222      0.2592
     97  O         14.6240  -21.7770   27.8930 O.2   222  GLU222     -0.2718
     98  CB        12.6920  -21.1780   25.1570 C.3   222  GLU222      0.0402
     99  CG        12.9490  -22.6410   24.8410 C.3   222  GLU222      0.1161
    100  CD        12.7260  -23.0080   23.3850 C.2   222  GLU222      0.3649
    101  OE1       12.2270  -24.1290   23.1340 O.co2 222  GLU222     -0.2457
    102  OE2       13.0490  -22.1840   22.4960 O.co2 222  GLU222     -0.2457
    103  N         15.2120  -20.0830   26.4870 N.am  223  GLU223     -0.1979
    104  CA        16.6510  -20.0660   26.7690 C.3   223  GLU223      0.1602
    105  C         16.9060  -19.7400   28.2570 C.2   223  GLU223      0.2287
    106  O         17.7030  -20.4210   28.8930 O.2   223  GLU223     -0.2864
    107  CB        17.3680  -19.0770   25.8320 C.3   223  GLU223      0.0415
    108  CG        18.7890  -19.4630   25.4730 C.3   223  GLU223      0.1163
    109  CD        19.4410  -18.5530   24.4430 C.2   223  GLU223      0.3649
    110  OE1       19.9520  -17.4850   24.8480 O.co2 223  GLU223     -0.2457
    111  OE2       19.4400  -18.8980   23.2360 O.co2 223  GLU223     -0.2457
    112  N         15.8320  -22.7410   30.6490 N.3   226  THR226     -0.1203
    113  CA        16.7460  -23.8670   30.4760 C.3   226  THR226      0.1994
    114  C         17.9910  -23.5930   31.3220 C.2   226  THR226      0.2617
    115  O         18.5690  -24.5120   31.8670 O.2   226  THR226     -0.2717
    116  CB        17.0160  -24.0940   28.9990 C.3   226  THR226      0.1784
    117  OG1       15.7610  -24.2100   28.3340 O.3   226  THR226     -0.2211
    118  CG2       17.8540  -25.3390   28.7440 C.3   226  THR226      0.0376
    119  N         18.3720  -22.3210   31.4600 N.am  227  LEU227     -0.1979
    120  CA        19.4940  -21.8890   32.2910 C.3   227  LEU227      0.1596
    121  C         19.1030  -22.0510   33.7720 C.2   227  LEU227      0.2287
    122  O         19.9080  -22.5390   34.5680 O.2   227  LEU227     -0.2864
    123  CB        19.8750  -20.4250   31.9590 C.3   227  LEU227      0.0297
    124  CG        20.9070  -19.7690   32.8880 C.3   227  LEU227      0.0022
    125  CD1       22.2530  -20.4800   32.8180 C.3   227  LEU227      0.0001
    126  CD2       21.0190  -18.3190   32.6260 C.3   227  LEU227      0.0001
    127  N         19.3400  -25.3730   35.6080 N.3   230  GLN230     -0.1245
    128  CA        20.6940  -25.8250   35.9330 C.3   230  GLN230      0.1566
    129  C         21.2270  -25.2570   37.2620 C.2   230  GLN230      0.2260
    130  O         22.3920  -25.4930   37.5920 O.2   230  GLN230     -0.2867
    131  CB        21.6790  -25.5670   34.7630 C.3   230  GLN230      0.0367
    132  CG        21.3430  -26.3370   33.4610 C.3   230  GLN230      0.0905
    133  CD        21.1880  -27.8490   33.5370 C.2   230  GLN230      0.2608
    134  OE1       21.5650  -28.5330   34.4960 O.2   230  GLN230     -0.2717
    135  NE2       20.6270  -28.4120   32.4990 N.am  230  GLN230     -0.0878
    136  N         22.5180  -27.7040   40.2030 N.3   233  LYS233     -0.1245
    137  CA        23.9220  -28.1170   40.0650 C.3   233  LYS233      0.1561
    138  C         24.8640  -27.1110   40.8000 C.2   233  LYS233      0.2260
    139  O         26.0560  -27.3820   40.8920 O.2   233  LYS233     -0.2867
    140  CB        24.3220  -28.2000   38.5750 C.3   233  LYS233      0.0271
    141  CG        23.9310  -29.5020   37.8910 C.3   233  LYS233      0.0035
    142  CD        24.4040  -29.5150   36.4300 C.3   233  LYS233      0.0206
    143  CE        24.1070  -30.8130   35.7080 C.3   233  LYS233      0.1093
    144  NZ        22.6620  -30.9550   35.3790 N.3   233  LYS233     -0.1314
    145  N         28.6940  -16.7490   24.4050 N.3   445  ASP445     -0.1239
    146  CA        27.6590  -17.6700   24.8930 C.3   445  ASP445      0.1674
    147  C         27.1330  -17.1130   26.2080 C.2   445  ASP445      0.2266
    148  O         27.7380  -17.3150   27.2690 O.2   445  ASP445     -0.2867
    149  CB        28.2750  -19.0790   25.0980 C.3   445  ASP445      0.1410
    150  CG        27.3000  -20.2390   25.1800 C.2   445  ASP445      0.3668
    151  OD1       26.1330  -20.0120   25.5520 O.co2 445  ASP445     -0.2456
    152  OD2       27.7190  -21.3810   24.9220 O.co2 445  ASP445     -0.2456
    153  N         24.2730  -17.7420   28.2330 N.3   447  PRO447     -0.2102
    154  CA        24.0100  -18.6380   29.3790 C.3   447  PRO447      0.1504
    155  C         25.2220  -19.3350   29.9920 C.2   447  PRO447      0.2575
    156  O         25.2370  -19.5350   31.1960 O.2   447  PRO447     -0.2718
    157  CB        23.0110  -19.6660   28.8110 C.3   447  PRO447      0.0282
    158  CG        23.2340  -19.6360   27.3670 C.3   447  PRO447      0.0208
    159  CD        23.5060  -18.1920   27.0500 C.3   447  PRO447      0.0893
    160  N         26.2040  -19.7250   29.1910 N.am  448  LYS448     -0.1980
    161  CA        27.4030  -20.3630   29.7130 C.3   448  LYS448      0.1596
    162  C         28.1620  -19.3670   30.6180 C.2   448  LYS448      0.2287
    163  O         28.7210  -19.7670   31.6230 O.2   448  LYS448     -0.2864
    164  CB        28.3080  -20.8300   28.5640 C.3   448  LYS448      0.0298
    165  CG        29.4940  -21.6890   29.0450 C.3   448  LYS448      0.0038
    166  CD        30.4270  -22.1120   27.9300 C.3   448  LYS448      0.0206
    167  CE        31.6470  -22.7770   28.5040 C.3   448  LYS448      0.1093
    168  NZ        32.4540  -23.4560   27.4500 N.3   448  LYS448     -0.1314
    169  N         26.0670  -18.9480   33.8980 N.3   451  GLN451     -0.1245
    170  CA        26.2690  -20.1710   34.6750 C.3   451  GLN451      0.1566
    171  C         27.6350  -20.1530   35.3740 C.2   451  GLN451      0.2260
    172  O         27.7000  -20.4540   36.5420 O.2   451  GLN451     -0.2867
    173  CB        26.1340  -21.4080   33.7670 C.3   451  GLN451      0.0367
    174  CG        26.2010  -22.7380   34.5290 C.3   451  GLN451      0.0905
    175  CD        24.9570  -23.0040   35.3490 C.2   451  GLN451      0.2608
    176  OE1       23.9900  -22.2380   35.3310 O.2   451  GLN451     -0.2717
    177  NE2       24.9570  -24.0980   36.0870 N.am  451  GLN451     -0.0878
@<TRIPOS>BOND
     1    52    51    2
     2    67    65    1
     3    66    65    1
     4    51    50    1
     5    42    41    2
     6    65    64    1
     7    43    44    1
     8    43    40    1
     9    82    80    1
    10    79    78    2
    11    41    49   am
    12    41    40    1
    13    45    44   ar
    14    45    47   ar
    15    71    70    2
    16    50    49    1
    17    80    77    1
    18    80    81    1
    19    44    46   ar
    20    64    61    1
    21    77    78    1
    22    77    76    1
    23    47    48   ar
    24    40    39    1
    25    78    83   am
    26    46    48   ar
    27    70    76   am
    28    70    69    1
    29    61    62    1
    30    61    60    1
    31    39    30   am
    32    68    62   am
    33    68    69    1
    34    83    84    1
    35    62    63    2
    36    74    73    2
    37    86    85    2
    38    85    84    1
    39    69    72    1
    40    84    87    1
    41    72    73    1
    42   102   100   ar
    43    90    91    1
    44    60    55   am
    45    91    92    1
    46    73    75   am
    47    30    31    2
    48    30    29    1
    49    38    36   ar
    50    38    37   ar
    51   101   100   ar
    52    36    34   ar
    53   111   109   ar
    54   100    99    1
    55    37    35   ar
    56    34    33   ar
    57    55    56    2
    58    55    54    1
    59    87    89    1
    60    87    88    1
    61    92    93    2
    62    29    28    1
    63    29    32    1
    64    35    33   ar
    65    33    32    1
    66   145   146    1
    67   109   110   ar
    68   109   108    1
    69    99    98    1
    70    54    57    1
    71    54    53    1
    72   146   149    1
    73   146   147    1
    74   152   150   ar
    75    20    19    2
    76   149   150    1
    77    98    95    1
    78   150   151   ar
    79   108   107    1
    80    57    58    1
    81   107   104    1
    82    53    59    1
    83     7     5    1
    84    19    18    1
    85   147   148    2
    86   103   104    1
    87   103    96   am
    88    95    94    1
    89    95    96    1
    90   104   105    1
    91    11    10    2
    92     4     3    2
    93    58    59    1
    94   159   158    1
    95   159   153    1
    96    96    97    2
    97     2     5    1
    98     2     1    1
    99     2     3    1
   100     5     6    1
   101    18    21    1
   102    18    17    1
   103   158   157    1
   104   168   167    1
   105    27    25    1
   106    10    17   am
   107    10     9    1
   108   166   167    1
   109   166   165    1
   110    21    22    1
   111   153   154    1
   112   105   106    2
   113   117   116    1
   114   164   165    1
   115   164   161    1
   116    24    25    2
   117    24    23    1
   118    25    26    1
   119   118   116    1
   120    12     9    1
   121    12    13    1
   122   157   154    1
   123   116   113    1
   124     9     8    1
   125    22    23    1
   126   160   161    1
   127   160   155   am
   128   154   155    1
   129   161   162    1
   130    13    14    1
   131   155   156    2
   132   113   112    1
   133   113   114    1
   134   162   163    2
   135    14    15   ar
   136    14    16   ar
   137   114   119   am
   138   114   115    2
   139   119   120    1
   140   123   120    1
   141   123   124    1
   142   120   121    1
   143   135   133   am
   144   126   124    1
   145   125   124    1
   146   132   133    1
   147   132   131    1
   148   133   134    2
   149   173   174    1
   150   173   170    1
   151   121   122    2
   152   169   170    1
   153   174   175    1
   154   170   171    1
   155   131   128    1
   156   176   175    2
   157   175   177   am
   158   171   172    2
   159   144   143    1
   160   127   128    1
   161   143   142    1
   162   128   129    1
   163   142   141    1
   164   129   130    2
   165   141   140    1
   166   140   137    1
   167   137   136    1
   168   137   138    1
   169   138   139    2
