@<TRIPOS>MOLECULE
tmp/6mdcB00.pdb
 176 168 0 0 0
SMALL
GASTEIGER

@<TRIPOS>ATOM
      1  N         10.7080  -29.6230   28.3190 N.3    93  THR93      -0.1218
      2  CA        10.9470  -28.2710   27.7930 C.3    93  THR93       0.1862
      3  C         12.1800  -27.5220   28.3670 C.2    93  THR93       0.2287
      4  O         12.8410  -26.8260   27.6040 O.2    93  THR93      -0.2866
      5  CB         9.6960  -27.4080   27.9060 C.3    93  THR93       0.1770
      6  OG1        9.0710  -27.6470   29.1660 O.3    93  THR93      -0.2211
      7  CG2        8.7010  -27.6860   26.7860 C.3    93  THR93       0.0375
      8  N         15.0170  -28.8550   29.5410 N.3    95  GLU95      -0.1231
      9  CA        16.2130  -29.6890   29.4400 C.3    95  GLU95       0.1699
     10  C         17.1970  -29.0750   28.4410 C.2    95  GLU95       0.2592
     11  O         16.7730  -28.5990   27.3870 O.2    95  GLU95      -0.2718
     12  CB        15.8460  -31.1270   29.0220 C.3    95  GLU95       0.0402
     13  CG        15.0200  -31.8870   30.0530 C.3    95  GLU95       0.1161
     14  CD        15.7440  -32.2720   31.3320 C.2    95  GLU95       0.3649
     15  OE1       16.9620  -31.9920   31.4380 O.co2  95  GLU95      -0.2457
     16  OE2       15.0950  -32.8550   32.2320 O.co2  95  GLU95      -0.2457
     17  N         18.5110  -29.1080   28.7580 N.am   96  ARG96      -0.1980
     18  CA        19.5670  -28.5790   27.8740 C.3    96  ARG96       0.1597
     19  C         19.6550  -29.3470   26.5510 C.2    96  ARG96       0.2287
     20  O         20.0340  -28.7680   25.5340 O.2    96  ARG96      -0.2864
     21  CB        20.9210  -28.6290   28.5550 C.3    96  ARG96       0.0334
     22  CG        21.1630  -27.6190   29.6720 C.3    96  ARG96       0.0492
     23  CD        22.4630  -27.9630   30.3600 C.3    96  ARG96       0.2205
     24  NE        23.6070  -27.6390   29.5120 N.pl3  96  ARG96      -0.0865
     25  CZ        24.7960  -28.2240   29.6010 C.cat  96  ARG96       0.5346
     26  NH1       25.0000  -29.2000   30.4770 N.pl3  96  ARG96       0.1354
     27  NH2       25.7860  -27.8540   28.7960 N.pl3  96  ARG96       0.1354
     28  N         16.9730  -31.0560   25.0830 N.3    98  PHE98      -0.1227
     29  CA        15.6840  -31.0860   24.4020 C.3    98  PHE98       0.1736
     30  C         15.4700  -29.8720   23.4970 C.2    98  PHE98       0.2595
     31  O         15.6630  -28.7410   23.9200 O.2    98  PHE98      -0.2718
     32  CB        14.5300  -31.2500   25.3950 C.3    98  PHE98       0.0547
     33  CG        13.2070  -31.4500   24.7040 C.ar   98  PHE98      -0.0202
     34  CD1       12.9860  -32.5630   23.8950 C.ar   98  PHE98      -0.0042
     35  CD2       12.1970  -30.5070   24.8190 C.ar   98  PHE98      -0.0042
     36  CE1       11.7620  -32.7440   23.2480 C.ar   98  PHE98      -0.0003
     37  CE2       10.9750  -30.6930   24.1770 C.ar   98  PHE98      -0.0003
     38  CZ        10.7620  -31.8170   23.4080 C.ar   98  PHE98      -0.0000
     39  N         15.0790  -30.1250   22.2510 N.am   99  HIS99      -0.1961
     40  CA        14.9090  -29.0960   21.2370 C.3    99  HIS99       0.1787
     41  C         13.5430  -29.0180   20.5960 C.2    99  HIS99       0.2620
     42  O         13.4140  -28.3270   19.5860 O.2    99  HIS99      -0.2715
     43  CB        15.9770  -29.2570   20.1520 C.3    99  HIS99       0.0785
     44  CG        17.3330  -28.8820   20.6220 C.ar   99  HIS99       0.0821
     45  ND1       17.8580  -27.6390   20.3570 N.ar   99  HIS99      -0.2267
     46  CD2       18.2130  -29.5870   21.3690 C.ar   99  HIS99       0.1154
     47  CE1       19.0690  -27.6420   20.8930 C.ar   99  HIS99       0.1986
     48  NE2       19.3260  -28.7940   21.5140 N.ar   99  HIS99      -0.2212
     49  N         12.5590  -29.7150   21.1610 N.am  100  GLY100     -0.1954
     50  CA        11.1700  -29.7170   20.6980 C.3   100  GLY100      0.1869
     51  C         10.9860  -29.9180   19.2120 C.2   100  GLY100      0.2309
     52  O         11.3510  -30.9750   18.6790 O.2   100  GLY100     -0.2863
     53  N         24.9550  -32.2960   26.3660 N.3   188  PRO188     -0.2102
     54  CA        23.9600  -31.8040   25.3960 C.3   188  PRO188      0.1504
     55  C         24.6790  -30.9720   24.3480 C.2   188  PRO188      0.2576
     56  O         25.7260  -30.3930   24.6440 O.2   188  PRO188     -0.2718
     57  CB        23.0360  -30.9170   26.2370 C.3   188  PRO188      0.0282
     58  CG        23.3020  -31.2890   27.6530 C.3   188  PRO188      0.0208
     59  CD        24.7500  -31.6830   27.6950 C.3   188  PRO188      0.0893
     60  N         24.1470  -30.9290   23.1330 N.am  189  LEU189     -0.1966
     61  CA        24.7300  -30.1430   22.0550 C.3   189  LEU189      0.1728
     62  C         24.6850  -28.6230   22.3680 C.2   189  LEU189      0.2616
     63  O         23.6360  -28.0910   22.7300 O.2   189  LEU189     -0.2715
     64  CB        24.0160  -30.4830   20.7280 C.3   189  LEU189      0.0311
     65  CG        24.3040  -29.6130   19.4990 C.3   189  LEU189      0.0022
     66  CD1       25.7670  -29.6390   19.1190 C.3   189  LEU189      0.0001
     67  CD2       23.4380  -30.0370   18.3250 C.3   189  LEU189      0.0001
     68  N         25.8460  -27.9490   22.2180 N.am  190  ASN190     -0.1958
     69  CA        26.0570  -26.5220   22.4630 C.3   190  ASN190      0.1819
     70  C         25.4520  -25.6120   21.3640 C.2   190  ASN190      0.2622
     71  O         26.1300  -25.2320   20.4030 O.2   190  ASN190     -0.2715
     72  CB        27.5610  -26.2560   22.6660 C.3   190  ASN190      0.1195
     73  CG        27.9480  -24.8890   23.1830 C.2   190  ASN190      0.2630
     74  OD1       27.1210  -24.0200   23.4390 O.2   190  ASN190     -0.2716
     75  ND2       29.2410  -24.6730   23.3570 N.am  190  ASN190     -0.0877
     76  N         24.1830  -25.2310   21.5400 N.am  191  THR191     -0.1937
     77  CA        23.4800  -24.3650   20.5910 C.3   191  THR191      0.2028
     78  C         23.4100  -22.8720   21.0270 C.2   191  THR191      0.2642
     79  O         22.9410  -22.0280   20.2490 O.2   191  THR191     -0.2714
     80  CB        22.0870  -24.9450   20.3050 C.3   191  THR191      0.1808
     81  OG1       21.3920  -25.1190   21.5440 O.3   191  THR191     -0.2208
     82  CG2       22.1460  -26.2630   19.5370 C.3   191  THR191      0.0379
     83  N         23.8430  -22.5520   22.2700 N.am  192  THR192     -0.1950
     84  CA        23.7930  -21.1730   22.7780 C.3   192  THR192      0.1897
     85  C         25.0810  -20.3860   22.4230 C.2   192  THR192      0.2313
     86  O         25.0530  -19.1550   22.3910 O.2   192  THR192     -0.2863
     87  CB        23.4400  -21.1180   24.2870 C.3   192  THR192      0.1794
     88  OG1       24.3750  -21.8990   25.0270 O.3   192  THR192     -0.2208
     89  CG2       22.0310  -21.5870   24.5840 C.3   192  THR192      0.0378
     90  N         15.4900  -15.4300   19.1560 N.3   206  LEU206     -0.1245
     91  CA        15.0380  -15.5320   20.5490 C.3   206  LEU206      0.1561
     92  C         13.8070  -14.6820   20.8070 C.2   206  LEU206      0.2260
     93  O         13.0140  -15.0630   21.6490 O.2   206  LEU206     -0.2867
     94  CB        16.1570  -15.2010   21.5680 C.3   206  LEU206      0.0270
     95  CG        17.3370  -16.1740   21.6630 C.3   206  LEU206      0.0019
     96  CD1       18.4390  -15.5930   22.4860 C.3   206  LEU206      0.0001
     97  CD2       16.9350  -17.4730   22.2610 C.3   206  LEU206      0.0001
     98  N         11.8120  -17.6730   22.4190 N.3   210  GLY210     -0.1225
     99  CA        13.0520  -18.4090   22.6270 C.3   210  GLY210      0.1811
    100  C         13.7910  -17.9390   23.8710 C.2   210  GLY210      0.2280
    101  O         14.5170  -18.7180   24.4840 O.2   210  GLY210     -0.2866
    102  N         12.4940  -19.8720   27.0050 N.3   213  GLU213     -0.1231
    103  CA        13.0010  -21.2450   26.8990 C.3   213  GLU213      0.1699
    104  C         14.4720  -21.3440   27.2990 C.2   213  GLU213      0.2592
    105  O         14.8860  -22.2750   28.0030 O.2   213  GLU213     -0.2718
    106  CB        12.8680  -21.7450   25.4500 C.3   213  GLU213      0.0402
    107  CG        11.4450  -22.0620   25.0180 C.3   213  GLU213      0.1161
    108  CD        11.2970  -22.5850   23.5980 C.2   213  GLU213      0.3649
    109  OE1       12.0650  -22.1510   22.7070 O.co2 213  GLU213     -0.2457
    110  OE2       10.3990  -23.4280   23.3750 O.co2 213  GLU213     -0.2457
    111  N         15.2700  -20.4120   26.8080 N.am  214  GLU214     -0.1979
    112  CA        16.6930  -20.4050   27.0860 C.3   214  GLU214      0.1602
    113  C         16.9720  -20.1050   28.5720 C.2   214  GLU214      0.2287
    114  O         17.8010  -20.7800   29.1720 O.2   214  GLU214     -0.2864
    115  CB        17.4250  -19.4570   26.1230 C.3   214  GLU214      0.0415
    116  CG        18.9210  -19.6800   26.0760 C.3   214  GLU214      0.1163
    117  CD        19.6310  -18.8120   25.0640 C.2   214  GLU214      0.3649
    118  OE1       20.0960  -17.7120   25.4400 O.co2 214  GLU214     -0.2457
    119  OE2       19.7240  -19.2320   23.8890 O.co2 214  GLU214     -0.2457
    120  N         15.8020  -23.0010   30.8130 N.3   217  THR217     -0.1203
    121  CA        16.7510  -24.1190   30.7400 C.3   217  THR217      0.1994
    122  C         17.9330  -23.7990   31.7100 C.2   217  THR217      0.2617
    123  O         18.4350  -24.6930   32.3810 O.2   217  THR217     -0.2717
    124  CB        17.1930  -24.3920   29.3030 C.3   217  THR217      0.1784
    125  OG1       16.0680  -24.7670   28.5030 O.3   217  THR217     -0.2211
    126  CG2       18.2620  -25.4660   29.2160 C.3   217  THR217      0.0376
    127  N         18.3380  -22.5170   31.8010 N.am  218  LEU218     -0.1979
    128  CA        19.4140  -22.0900   32.7080 C.3   218  LEU218      0.1596
    129  C         19.0390  -22.2710   34.1870 C.2   218  LEU218      0.2287
    130  O         19.8510  -22.7590   34.9690 O.2   218  LEU218     -0.2864
    131  CB        19.8480  -20.6390   32.4030 C.3   218  LEU218      0.0297
    132  CG        20.9100  -20.0070   33.3150 C.3   218  LEU218      0.0022
    133  CD1       22.2590  -20.7440   33.2430 C.3   218  LEU218      0.0001
    134  CD2       21.0800  -18.5450   32.9800 C.3   218  LEU218      0.0001
    135  N         19.2760  -25.7060   35.9610 N.3   221  GLN221     -0.1245
    136  CA        20.6330  -26.0840   36.3090 C.3   221  GLN221      0.1566
    137  C         21.1310  -25.4830   37.6370 C.2   221  GLN221      0.2260
    138  O         22.2650  -25.7540   38.0330 O.2   221  GLN221     -0.2867
    139  CB        21.5650  -25.7340   35.1440 C.3   221  GLN221      0.0367
    140  CG        21.2090  -26.4890   33.8610 C.3   221  GLN221      0.0905
    141  CD        21.6130  -27.9330   33.9230 C.2   221  GLN221      0.2608
    142  OE1       22.8000  -28.2680   33.9130 O.2   221  GLN221     -0.2717
    143  NE2       20.6280  -28.8140   33.9730 N.am  221  GLN221     -0.0878
    144  N         28.7830  -17.0410   24.7510 N.3   434  ASP434     -0.1239
    145  CA        27.7630  -17.9540   25.2870 C.3   434  ASP434      0.1674
    146  C         27.2530  -17.3640   26.6150 C.2   434  ASP434      0.2266
    147  O         27.9060  -17.5090   27.6660 O.2   434  ASP434     -0.2867
    148  CB        28.3930  -19.3480   25.4980 C.3   434  ASP434      0.1410
    149  CG        27.4410  -20.5200   25.6640 C.2   434  ASP434      0.3668
    150  OD1       26.2690  -20.2960   26.1020 O.co2 434  ASP434     -0.2456
    151  OD2       27.8760  -21.6690   25.4180 O.co2 434  ASP434     -0.2456
    152  N         24.3270  -18.0510   28.6550 N.3   436  PRO436     -0.2102
    153  CA        24.0140  -18.8950   29.8160 C.3   436  PRO436      0.1504
    154  C         25.2330  -19.6170   30.3960 C.2   436  PRO436      0.2575
    155  O         25.2620  -19.8310   31.5990 O.2   436  PRO436     -0.2718
    156  CB        22.9360  -19.8440   29.2940 C.3   436  PRO436      0.0282
    157  CG        23.1750  -19.9230   27.8470 C.3   436  PRO436      0.0208
    158  CD        23.6350  -18.5520   27.4420 C.3   436  PRO436      0.0893
    159  N         26.2490  -19.9310   29.5650 N.am  437  LYS437     -0.1980
    160  CA        27.4720  -20.5180   30.0770 C.3   437  LYS437      0.1596
    161  C         28.1690  -19.5100   31.0070 C.2   437  LYS437      0.2287
    162  O         28.6170  -19.9020   32.0960 O.2   437  LYS437     -0.2864
    163  CB        28.4010  -20.9860   28.9430 C.3   437  LYS437      0.0298
    164  CG        29.7300  -21.5760   29.4300 C.3   437  LYS437      0.0038
    165  CD        30.4620  -22.2840   28.3270 C.3   437  LYS437      0.0206
    166  CE        31.9230  -22.4200   28.6310 C.3   437  LYS437      0.1093
    167  NZ        32.6650  -21.1960   28.2340 N.3   437  LYS437     -0.1314
    168  N         26.0850  -19.1960   34.2700 N.3   440  GLN440     -0.1245
    169  CA        26.2610  -20.4060   35.0810 C.3   440  GLN440      0.1566
    170  C         27.5810  -20.3570   35.8450 C.2   440  GLN440      0.2260
    171  O         27.6150  -20.6870   37.0210 O.2   440  GLN440     -0.2867
    172  CB        26.1460  -21.6870   34.2150 C.3   440  GLN440      0.0367
    173  CG        26.0770  -23.0090   35.0200 C.3   440  GLN440      0.0905
    174  CD        24.8010  -23.2230   35.8360 C.2   440  GLN440      0.2608
    175  OE1       23.8460  -22.4440   35.7720 O.2   440  GLN440     -0.2717
    176  NE2       24.7520  -24.3020   36.6320 N.am  440  GLN440     -0.0878
@<TRIPOS>BOND
     1    67    65    1
     2    52    51    2
     3    66    65    1
     4    90    91    1
     5    51    50    1
     6    65    64    1
     7    82    80    1
     8    42    41    2
     9    43    44    1
    10    43    40    1
    11    79    78    2
    12    80    77    1
    13    80    81    1
    14    45    44   ar
    15    45    47   ar
    16    71    70    2
    17    91    92    1
    18    91    94    1
    19    77    78    1
    20    77    76    1
    21    41    49   am
    22    41    40    1
    23    44    46   ar
    24    50    49    1
    25    64    61    1
    26    92    93    2
    27    47    48   ar
    28    78    83   am
    29    40    39    1
    30    70    76   am
    31    70    69    1
    32    46    48   ar
    33    94    95    1
    34    95    97    1
    35    95    96    1
    36    61    62    1
    37    61    60    1
    38    68    62   am
    39    68    69    1
    40    39    30   am
    41    83    84    1
    42    62    63    2
    43    86    85    2
    44    98    99    1
    45    85    84    1
    46    69    72    1
    47    99   100    1
    48    72    73    1
    49   109   108   ar
    50    84    87    1
    51    60    55   am
    52    73    75   am
    53    73    74    2
    54    36    38   ar
    55    36    34   ar
    56   110   108   ar
    57    38    37   ar
    58    30    31    2
    59    30    29    1
    60   108   107    1
    61   100   101    2
    62   119   117   ar
    63    34    33   ar
    64    37    35   ar
    65    87    89    1
    66    87    88    1
    67    55    56    2
    68    55    54    1
    69    29    28    1
    70    29    32    1
    71    33    35   ar
    72    33    32    1
    73   144   145    1
    74   107   106    1
    75   117   118   ar
    76   117   116    1
    77   145   148    1
    78   145   146    1
    79    54    57    1
    80    54    53    1
    81   151   149   ar
    82   106   103    1
    83   148   149    1
    84    20    19    2
    85   149   150   ar
    86   116   115    1
    87   115   112    1
    88    57    58    1
    89    53    59    1
    90    19    18    1
    91   146   147    2
    92     7     5    1
    93   111   112    1
    94   111   104   am
    95   103   102    1
    96   103   104    1
    97   112   113    1
    98   104   105    2
    99    11    10    2
   100   158   157    1
   101   158   152    1
   102     4     3    2
   103    58    59    1
   104     2     5    1
   105     2     1    1
   106     2     3    1
   107   157   156    1
   108    18    21    1
   109    18    17    1
   110     5     6    1
   111   167   166    1
   112   165   166    1
   113   165   164    1
   114    10    17   am
   115    10     9    1
   116   125   124    1
   117    21    22    1
   118   113   114    2
   119   152   153    1
   120    27    25    1
   121   163   164    1
   122   163   160    1
   123    12     9    1
   124    12    13    1
   125   126   124    1
   126   156   153    1
   127   124   121    1
   128     9     8    1
   129    24    25    2
   130    24    23    1
   131   159   160    1
   132   159   154   am
   133    25    26    1
   134    22    23    1
   135   153   154    1
   136    13    14    1
   137   160   161    1
   138   154   155    2
   139   121   120    1
   140   121   122    1
   141   161   162    2
   142    14    15   ar
   143    14    16   ar
   144   122   127   am
   145   122   123    2
   146   127   128    1
   147   131   128    1
   148   131   132    1
   149   128   129    1
   150   134   132    1
   151   133   132    1
   152   140   141    1
   153   140   139    1
   154   142   141    2
   155   141   143   am
   156   129   130    2
   157   172   173    1
   158   172   169    1
   159   168   169    1
   160   173   174    1
   161   169   170    1
   162   139   136    1
   163   175   174    2
   164   174   176   am
   165   170   171    2
   166   135   136    1
   167   136   137    1
   168   137   138    2
