@<TRIPOS>MOLECULE
tmp/6mdcA00.pdb
 176 168 0 0 0
SMALL
GASTEIGER

@<TRIPOS>ATOM
      1  N         31.6320   46.7760    8.0700 N.3    94  THR94      -0.1218
      2  CA        31.5190   45.4240    7.4630 C.3    94  THR94       0.1862
      3  C         30.1780   44.6980    7.6830 C.2    94  THR94       0.2287
      4  O         29.7250   44.0450    6.7630 O.2    94  THR94      -0.2866
      5  CB        32.6650   44.4920    7.8650 C.3    94  THR94       0.1770
      6  OG1       32.9560   44.6620    9.2460 O.3    94  THR94      -0.2211
      7  CG2       33.9090   44.7060    7.0340 C.3    94  THR94       0.0375
      8  N         27.1800   46.0020    8.1670 N.3    96  GLU96      -0.1231
      9  CA        26.0190   46.7960    7.7990 C.3    96  GLU96       0.1699
     10  C         25.3970   46.1470    6.5720 C.2    96  GLU96       0.2592
     11  O         26.1280   45.5990    5.7410 O.2    96  GLU96      -0.2718
     12  CB        26.4120   48.2510    7.5540 C.3    96  GLU96       0.0402
     13  CG        26.8690   48.9740    8.8160 C.3    96  GLU96       0.1161
     14  CD        25.8250   49.3520    9.8510 C.2    96  GLU96       0.3649
     15  OE1       24.6090   49.2240    9.5780 O.co2  96  GLU96      -0.2457
     16  OE2       26.2340   49.7810   10.9530 O.co2  96  GLU96      -0.2457
     17  N         24.0490   46.1380    6.5050 N.am   97  ARG97      -0.1980
     18  CA        23.2560   45.5580    5.4210 C.3    97  ARG97       0.1597
     19  C         23.5120   46.2410    4.0800 C.2    97  ARG97       0.2287
     20  O         23.3650   45.6150    3.0380 O.2    97  ARG97      -0.2864
     21  CB        21.7460   45.6690    5.7460 C.3    97  ARG97       0.0334
     22  CG        21.2310   44.7180    6.8450 C.3    97  ARG97       0.0492
     23  CD        19.7290   44.9050    7.0590 C.3    97  ARG97       0.2205
     24  NE        18.9890   44.6230    5.8260 N.pl3  97  ARG97      -0.0865
     25  CZ        17.7320   44.9810    5.6110 C.cat  97  ARG97       0.5346
     26  NH1       17.1360   44.6710    4.4700 N.pl3  97  ARG97       0.1354
     27  NH2       17.0610   45.6530    6.5330 N.pl3  97  ARG97       0.1354
     28  N         26.4440   48.0600    3.3280 N.3    99  PHE99      -0.1227
     29  CA        27.8460   48.1140    2.9580 C.3    99  PHE99       0.1736
     30  C         28.3300   46.9080    2.1290 C.2    99  PHE99       0.2595
     31  O         28.2550   45.7580    2.5640 O.2    99  PHE99      -0.2718
     32  CB        28.7190   48.3240    4.1970 C.3    99  PHE99       0.0547
     33  CG        30.1700   48.5390    3.8490 C.ar   99  PHE99      -0.0202
     34  CD1       30.5900   49.7220    3.2470 C.ar   99  PHE99      -0.0042
     35  CD2       31.1210   47.5720    4.1430 C.ar   99  PHE99      -0.0042
     36  CE1       31.9330   49.9150    2.9080 C.ar   99  PHE99      -0.0003
     37  CE2       32.4720   47.7820    3.8420 C.ar   99  PHE99      -0.0003
     38  CZ        32.8690   48.9520    3.2250 C.ar   99  PHE99      -0.0000
     39  N         28.8350   47.1930    0.9310 N.am  100  HIS100     -0.1961
     40  CA        29.3660   46.1860    0.0190 C.3   100  HIS100      0.1787
     41  C         30.8270   46.5550   -0.2140 C.2   100  HIS100      0.2620
     42  O         31.1160   47.3520   -1.0950 O.2   100  HIS100     -0.2715
     43  CB        28.5690   46.1880   -1.3000 C.3   100  HIS100      0.0785
     44  CG        27.1280   45.8280   -1.1370 C.ar  100  HIS100      0.0821
     45  ND1       26.6360   44.6190   -1.5830 N.ar  100  HIS100     -0.2267
     46  CD2       26.1200   46.5240   -0.5620 C.ar  100  HIS100      0.1154
     47  CE1       25.3470   44.6200   -1.2740 C.ar  100  HIS100      0.1986
     48  NE2       24.9990   45.7400   -0.6410 N.ar  100  HIS100     -0.2212
     49  N         31.7080   46.0290    0.6260 N.am  101  GLY101     -0.1954
     50  CA        33.1530   46.2740    0.6200 C.3   101  GLY101      0.1869
     51  C         33.7750   46.6720   -0.7060 C.2   101  GLY101      0.2309
     52  O         33.6840   47.8390   -1.1090 O.2   101  GLY101     -0.2863
     53  N         18.1570   49.0440    2.5320 N.3   188  PRO188     -0.2102
     54  CA        19.3640   48.5890    1.8310 C.3   188  PRO188      0.1504
     55  C         18.9810   47.7260    0.6270 C.2   188  PRO188      0.2576
     56  O         17.8850   47.1530    0.5830 O.2   188  PRO188     -0.2718
     57  CB        20.0890   47.7590    2.8920 C.3   188  PRO188      0.0282
     58  CG        19.5580   48.2580    4.1880 C.3   188  PRO188      0.0208
     59  CD        18.1060   48.4760    3.8930 C.3   188  PRO188      0.0893
     60  N         19.8680   47.6560   -0.3650 N.am  189  LEU189     -0.1966
     61  CA        19.6110   46.8530   -1.5530 C.3   189  LEU189      0.1728
     62  C         19.5150   45.3730   -1.1610 C.2   189  LEU189      0.2616
     63  O         20.3750   44.8660   -0.4320 O.2   189  LEU189     -0.2715
     64  CB        20.7180   47.0790   -2.6100 C.3   189  LEU189      0.0311
     65  CG        20.5300   46.4500   -3.9920 C.3   189  LEU189      0.0022
     66  CD1       19.3390   47.0650   -4.7330 C.3   189  LEU189      0.0001
     67  CD2       21.7540   46.6460   -4.8220 C.3   189  LEU189      0.0001
     68  N         18.4270   44.7030   -1.6070 N.am  190  ASN190     -0.1958
     69  CA        18.2260   43.2870   -1.3480 C.3   190  ASN190      0.1819
     70  C         19.0810   42.5110   -2.3430 C.2   190  ASN190      0.2622
     71  O         18.7120   42.4010   -3.5150 O.2   190  ASN190     -0.2715
     72  CB        16.7400   42.9050   -1.4790 C.3   190  ASN190      0.1195
     73  CG        16.4010   41.5010   -1.0420 C.2   190  ASN190      0.2630
     74  OD1       17.2520   40.6080   -0.9460 O.2   190  ASN190     -0.2716
     75  ND2       15.1350   41.2730   -0.7650 N.am  190  ASN190     -0.0877
     76  N         20.2380   42.0040   -1.8770 N.am  191  THR191     -0.1937
     77  CA        21.1830   41.2200   -2.6730 C.3   191  THR191      0.2028
     78  C         21.2230   39.7580   -2.2190 C.2   191  THR191      0.2642
     79  O         21.7990   38.9150   -2.9140 O.2   191  THR191     -0.2714
     80  CB        22.5840   41.8780   -2.7020 C.3   191  THR191      0.1808
     81  OG1       23.2050   41.8360   -1.4150 O.3   191  THR191     -0.2208
     82  CG2       22.5630   43.2900   -3.2560 C.3   191  THR191      0.0379
     83  N         20.5660   39.4480   -1.0790 N.am  192  THR192     -0.1950
     84  CA        20.4790   38.0980   -0.5040 C.3   192  THR192      0.1897
     85  C         19.3640   37.2410   -1.1450 C.2   192  THR192      0.2313
     86  O         19.4500   36.0140   -1.1000 O.2   192  THR192     -0.2863
     87  CB        20.3620   38.1400    1.0310 C.3   192  THR192      0.1794
     88  OG1       19.1940   38.8720    1.3940 O.3   192  THR192     -0.2208
     89  CG2       21.5810   38.7490    1.6940 C.3   192  THR192      0.0378
     90  N         29.6250   32.5090   -1.9590 N.3   206  LEU206     -0.1245
     91  CA        29.6780   32.5680   -0.4910 C.3   206  LEU206      0.1561
     92  C         30.8020   31.7110    0.0760 C.2   206  LEU206      0.2260
     93  O         31.3330   32.0540    1.1200 O.2   206  LEU206     -0.2867
     94  CB        28.3220   32.2090    0.1770 C.3   206  LEU206      0.0270
     95  CG        27.1560   33.1730   -0.0590 C.3   206  LEU206      0.0019
     96  CD1       25.8490   32.6030    0.4800 C.3   206  LEU206      0.0001
     97  CD2       27.4220   34.5110    0.5580 C.3   206  LEU206      0.0001
     98  N         32.4470   34.3760    2.4330 N.3   211  GLY211     -0.1225
     99  CA        31.2780   35.2240    2.2320 C.3   211  GLY211      0.1811
    100  C         30.0990   34.8430    3.1060 C.2   211  GLY211      0.2280
    101  O         29.2710   35.7020    3.4090 O.2   211  GLY211     -0.2866
    102  N         30.3940   36.9580    6.4430 N.3   214  GLU214     -0.1231
    103  CA        29.9630   38.3520    6.2650 C.3   214  GLU214      0.1699
    104  C         28.4300   38.4550    6.2280 C.2   214  GLU214      0.2592
    105  O         27.8490   39.3630    6.8290 O.2   214  GLU214     -0.2718
    106  CB        30.5470   38.9470    4.9740 C.3   214  GLU214      0.0402
    107  CG        32.0330   39.2630    5.0170 C.3   214  GLU214      0.1161
    108  CD        32.6010   39.7920    3.7100 C.2   214  GLU214      0.3649
    109  OE1       32.2420   39.2550    2.6360 O.co2 214  GLU214     -0.2457
    110  OE2       33.4170   40.7410    3.7630 O.co2 214  GLU214     -0.2457
    111  N         27.7830   37.5190    5.5310 N.am  215  GLU215     -0.1979
    112  CA        26.3290   37.4760    5.4470 C.3   215  GLU215      0.1602
    113  C         25.6980   37.1380    6.8090 C.2   215  GLU215      0.2287
    114  O         24.7310   37.7860    7.2010 O.2   215  GLU215     -0.2864
    115  CB        25.8760   36.5070    4.3510 C.3   215  GLU215      0.0415
    116  CG        24.4350   36.7260    3.9220 C.3   215  GLU215      0.1163
    117  CD        23.9960   35.8710    2.7500 C.2   215  GLU215      0.3649
    118  OE1       23.2630   34.8830    2.9760 O.co2 215  GLU215     -0.2457
    119  OE2       24.3740   36.1980    1.6020 O.co2 215  GLU215     -0.2457
    120  N         26.2030   40.1130    9.3340 N.3   218  THR218     -0.1203
    121  CA        25.2920   41.2050    8.9700 C.3   218  THR218      0.1994
    122  C         23.9070   40.8770    9.5440 C.2   218  THR218      0.2617
    123  O         23.2100   41.7810    9.9940 O.2   218  THR218     -0.2717
    124  CB        25.2490   41.4410    7.4310 C.3   218  THR218      0.1784
    125  OG1       26.5430   41.7790    6.9310 O.3   218  THR218     -0.2211
    126  CG2       24.2610   42.5240    7.0230 C.3   218  THR218      0.0376
    127  N         23.5160   39.5850    9.5220 N.am  219  LEU219     -0.1979
    128  CA        22.2600   39.0910   10.1320 C.3   219  LEU219      0.1596
    129  C         22.3100   39.2560   11.6680 C.2   219  LEU219      0.2287
    130  O         21.3630   39.7510   12.2730 O.2   219  LEU219     -0.2864
    131  CB        21.9860   37.6210    9.7230 C.3   219  LEU219      0.0297
    132  CG        20.7710   36.9030   10.3570 C.3   219  LEU219      0.0022
    133  CD1       19.4570   37.5110    9.9070 C.3   219  LEU219      0.0001
    134  CD2       20.7970   35.4370   10.0730 C.3   219  LEU219      0.0001
    135  N         21.5940   42.7000   13.3260 N.3   222  GLN222     -0.1245
    136  CA        20.1750   43.0520   13.3110 C.3   222  GLN222      0.1566
    137  C         19.3490   42.4500   14.4630 C.2   222  GLN222      0.2260
    138  O         18.1680   42.7640   14.5780 O.2   222  GLN222     -0.2867
    139  CB        19.5680   42.6880   11.9420 C.3   222  GLN222      0.0367
    140  CG        20.1180   43.5410   10.7870 C.3   222  GLN222      0.0905
    141  CD        19.9240   45.0090   11.0130 C.2   222  GLN222      0.2608
    142  OE1       18.8180   45.4800   11.2230 O.2   222  GLN222     -0.2717
    143  NE2       21.0020   45.7590   11.0060 N.am  222  GLN222     -0.0878
    144  N         15.1610   33.9060    0.1890 N.3   447  ASP447     -0.1239
    145  CA        15.9900   34.8770    0.9070 C.3   447  ASP447      0.1674
    146  C         16.2200   34.2800    2.3100 C.2   447  ASP447      0.2266
    147  O         15.3400   34.3470    3.1870 O.2   447  ASP447     -0.2867
    148  CB        15.2640   36.2410    0.9500 C.3   447  ASP447      0.1410
    149  CG        16.1360   37.4280    1.3200 C.2   447  ASP447      0.3668
    150  OD1       17.1940   37.2180    1.9480 O.co2 447  ASP447     -0.2456
    151  OD2       15.7320   38.5720    1.0300 O.co2 447  ASP447     -0.2456
    152  N         18.5540   34.9480    4.9740 N.3   449  PRO449     -0.2102
    153  CA        18.5410   35.7870    6.1850 C.3   449  PRO449      0.1504
    154  C         17.2090   36.4800    6.4570 C.2   449  PRO449      0.2575
    155  O         16.9580   36.8370    7.5910 O.2   449  PRO449     -0.2718
    156  CB        19.6700   36.7890    5.9330 C.3   449  PRO449      0.0282
    157  CG        19.7680   36.8660    4.4870 C.3   449  PRO449      0.0208
    158  CD        19.5070   35.4880    3.9790 C.3   449  PRO449      0.0893
    159  N         16.3610   36.6850    5.4310 N.am  450  LYS450     -0.1980
    160  CA        15.0390   37.2860    5.6740 C.3   450  LYS450      0.1596
    161  C         14.1840   36.2820    6.4350 C.2   450  LYS450      0.2287
    162  O         13.3940   36.6640    7.2980 O.2   450  LYS450     -0.2864
    163  CB        14.3340   37.6130    4.3450 C.3   450  LYS450      0.0298
    164  CG        13.0460   38.4200    4.5020 C.3   450  LYS450      0.0038
    165  CD        12.4150   38.7510    3.1330 C.3   450  LYS450      0.0206
    166  CE        11.0630   39.3960    3.2890 C.3   450  LYS450      0.1093
    167  NZ        10.3470   39.4850    1.9840 N.3   450  LYS450     -0.1314
    168  N         15.4380   36.1090   10.0450 N.3   453  GLN453     -0.1245
    169  CA        15.0130   37.3020   10.7800 C.3   453  GLN453      0.1566
    170  C         13.5350   37.2130   11.2300 C.2   453  GLN453      0.2260
    171  O         13.2160   37.5790   12.3590 O.2   453  GLN453     -0.2867
    172  CB        15.2700   38.5880    9.9580 C.3   453  GLN453      0.0367
    173  CG        15.2140   39.8980   10.7780 C.3   453  GLN453      0.0905
    174  CD        16.2250   40.0390   11.9220 C.2   453  GLN453      0.2608
    175  OE1       17.0450   39.1580   12.2200 O.2   453  GLN453     -0.2717
    176  NE2       16.1870   41.1710   12.6040 N.am  453  GLN453     -0.0878
@<TRIPOS>BOND
     1    67    65    1
     2    66    65    1
     3    65    64    1
     4    71    70    2
     5    82    80    1
     6    79    78    2
     7    80    77    1
     8    80    81    1
     9    77    78    1
    10    77    76    1
    11    64    61    1
    12    70    76   am
    13    70    69    1
    14    78    83   am
    15    90    91    1
    16    68    69    1
    17    68    62   am
    18    45    47   ar
    19    45    44   ar
    20    61    62    1
    21    61    60    1
    22    72    69    1
    23    72    73    1
    24    43    44    1
    25    43    40    1
    26    47    48   ar
    27    62    63    2
    28    85    86    2
    29    85    84    1
    30    44    46   ar
    31    52    51    2
    32    42    41    2
    33    83    84    1
    34    73    74    2
    35    73    75   am
    36    51    50    1
    37    48    46   ar
    38    84    87    1
    39    91    92    1
    40    91    94    1
    41    60    55   am
    42    41    40    1
    43    41    49   am
    44    95    94    1
    45    95    96    1
    46    95    97    1
    47    40    39    1
    48    92    93    2
    49   144   145    1
    50    56    55    2
    51    50    49    1
    52    55    54    1
    53   145   148    1
    54   145   146    1
    55    39    30   am
    56   148   149    1
    57   151   149   ar
    58    87    88    1
    59    87    89    1
    60   149   150   ar
    61   119   117   ar
    62    54    53    1
    63    54    57    1
    64   167   166    1
    65    30    31    2
    66    30    29    1
    67    99    98    1
    68    99   100    1
    69   146   147    2
    70    53    59    1
    71   109   108   ar
    72   117   118   ar
    73   117   116    1
    74    57    58    1
    75    36    38   ar
    76    36    34   ar
    77    29    28    1
    78    29    32    1
    79    20    19    2
    80   100   101    2
    81   165   166    1
    82   165   164    1
    83    38    37   ar
    84    34    33   ar
    85   108   110   ar
    86   108   107    1
    87    37    35   ar
    88    33    35   ar
    89    33    32    1
    90    59    58    1
    91   116   115    1
    92   158   157    1
    93   158   152    1
    94    19    18    1
    95   163   164    1
    96   163   160    1
    97   115   112    1
    98    26    25    1
    99   157   156    1
   100   152   153    1
   101   106   107    1
   102   106   103    1
   103    18    21    1
   104    18    17    1
   105   159   160    1
   106   159   154   am
   107   112   111    1
   108   112   113    1
   109   111   104   am
   110    25    24    2
   111    25    27    1
   112   160   161    1
   113    11    10    2
   114    21    22    1
   115    24    23    1
   116   156   153    1
   117   153   154    1
   118   104   103    1
   119   104   105    2
   120   103   102    1
   121   161   162    2
   122   154   155    2
   123    17    10   am
   124    10     9    1
   125     4     3    2
   126   113   114    2
   127    22    23    1
   128   125   124    1
   129   126   124    1
   130     7     5    1
   131   124   121    1
   132     2     3    1
   133     2     5    1
   134     2     1    1
   135    12     9    1
   136    12    13    1
   137     9     8    1
   138     5     6    1
   139    13    14    1
   140   121   120    1
   141   121   122    1
   142   127   122   am
   143   127   128    1
   144   122   123    2
   145    15    14   ar
   146   131   128    1
   147   131   132    1
   148    14    16   ar
   149   133   132    1
   150   172   173    1
   151   172   169    1
   152   168   169    1
   153   134   132    1
   154   128   129    1
   155   173   174    1
   156   169   170    1
   157   140   141    1
   158   140   139    1
   159   143   141   am
   160   141   142    2
   161   170   171    2
   162   129   130    2
   163   174   175    2
   164   174   176   am
   165   139   136    1
   166   136   135    1
   167   136   137    1
   168   137   138    2
