@<TRIPOS>MOLECULE
tmp/6mddA00.pdb
 137 131 0 0 0
SMALL
GASTEIGER

@<TRIPOS>ATOM
      1  N         27.2090   46.1800    7.4540 N.3   100  GLU100     -0.1231
      2  CA        26.0100   46.9700    7.2030 C.3   100  GLU100      0.1699
      3  C         25.4020   46.4310    5.9500 C.2   100  GLU100      0.2592
      4  O         26.1220   46.1230    5.0080 O.2   100  GLU100     -0.2718
      5  CB        26.3260   48.4690    7.0690 C.3   100  GLU100      0.0402
      6  CG        26.8820   49.0920    8.3390 C.3   100  GLU100      0.1161
      7  CD        25.9170   49.5160    9.4340 C.2   100  GLU100      0.3649
      8  OE1       24.7040   49.2390    9.3240 O.co2 100  GLU100     -0.2457
      9  OE2       26.3850   50.1270   10.4190 O.co2 100  GLU100     -0.2457
     10  N         24.0820   46.2950    5.9350 N.am  101  ARG101     -0.1980
     11  CA        23.3290   45.7740    4.7890 C.3   101  ARG101      0.1597
     12  C         23.5570   46.5720    3.4990 C.2   101  ARG101      0.2287
     13  O         23.6270   45.9850    2.4310 O.2   101  ARG101     -0.2864
     14  CB        21.8240   45.7120    5.1250 C.3   101  ARG101      0.0334
     15  CG        21.4760   44.7030    6.2370 C.3   101  ARG101      0.0492
     16  CD        19.9830   44.3840    6.2910 C.3   101  ARG101      0.2205
     17  NE        19.4970   43.8480    5.0140 N.pl3 101  ARG101     -0.0865
     18  CZ        18.2700   44.0360    4.5490 C.cat 101  ARG101      0.5346
     19  NH1       17.3760   44.7070    5.2650 N.pl3 101  ARG101      0.1354
     20  NH2       17.9240   43.5540    3.3660 N.pl3 101  ARG101      0.1354
     21  N         26.2810   48.4390    2.7820 N.3   103  PHE103     -0.1227
     22  CA        27.6890   48.5280    2.3800 C.3   103  PHE103      0.1736
     23  C         28.1160   47.4420    1.3510 C.2   103  PHE103      0.2595
     24  O         28.0040   46.2460    1.6300 O.2   103  PHE103     -0.2718
     25  CB        28.6110   48.5400    3.6010 C.3   103  PHE103      0.0547
     26  CG        30.0230   48.9510    3.2560 C.ar  103  PHE103     -0.0202
     27  CD1       30.3340   50.2830    3.0020 C.ar  103  PHE103     -0.0042
     28  CD2       31.0390   48.0060    3.1720 C.ar  103  PHE103     -0.0042
     29  CE1       31.6350   50.6600    2.6740 C.ar  103  PHE103     -0.0003
     30  CE2       32.3440   48.3880    2.8470 C.ar  103  PHE103     -0.0003
     31  CZ        32.6330   49.7130    2.6040 C.ar  103  PHE103     -0.0000
     32  N         28.6400   47.8750    0.1810 N.am  104  HIS104     -0.1975
     33  CA        29.0500   46.9790   -0.9060 C.3   104  HIS104      0.1656
     34  C         30.5590   46.9200   -1.2270 C.2   104  HIS104      0.2291
     35  O         30.9660   46.0440   -1.9990 O.2   104  HIS104     -0.2864
     36  CB        28.2730   47.3270   -2.1730 C.3   104  HIS104      0.0771
     37  CG        26.8460   46.8980   -2.1100 C.ar  104  HIS104      0.0820
     38  ND1       26.3530   45.9320   -2.9580 N.ar  104  HIS104     -0.2267
     39  CD2       25.8600   47.2910   -1.2720 C.ar  104  HIS104      0.1154
     40  CE1       25.0830   45.7830   -2.6260 C.ar  104  HIS104      0.1986
     41  NE2       24.7440   46.5770   -1.6160 N.ar  104  HIS104     -0.2212
     42  N         19.7450   47.9520   -0.6320 N.3   197  LEU197     -0.1231
     43  CA        19.5330   47.0910   -1.7890 C.3   197  LEU197      0.1693
     44  C         19.7180   45.6230   -1.3810 C.2   197  LEU197      0.2592
     45  O         20.7310   45.2660   -0.7840 O.2   197  LEU197     -0.2718
     46  CB        20.4910   47.4660   -2.9410 C.3   197  LEU197      0.0284
     47  CG        20.5740   46.4940   -4.1380 C.3   197  LEU197      0.0019
     48  CD1       19.3050   46.5020   -4.9630 C.3   197  LEU197      0.0001
     49  CD2       21.7650   46.7960   -4.9990 C.3   197  LEU197      0.0001
     50  N         18.7450   44.7760   -1.7320 N.am  198  ASN198     -0.1960
     51  CA        18.8000   43.3470   -1.4130 C.3   198  ASN198      0.1819
     52  C         19.8800   42.6770   -2.2650 C.2   198  ASN198      0.2622
     53  O         19.9780   42.9510   -3.4660 O.2   198  ASN198     -0.2715
     54  CB        17.4360   42.6860   -1.6740 C.3   198  ASN198      0.1195
     55  CG        17.3970   41.2430   -1.2430 C.2   198  ASN198      0.2630
     56  OD1       18.0710   40.3950   -1.8200 O.2   198  ASN198     -0.2716
     57  ND2       16.7400   40.9650   -0.1170 N.am  198  ASN198     -0.0877
     58  N         20.6920   41.8060   -1.6530 N.am  199  THR199     -0.1937
     59  CA        21.7280   41.0830   -2.4120 C.3   199  THR199      0.2028
     60  C         21.6680   39.5880   -2.1680 C.2   199  THR199      0.2642
     61  O         22.2460   38.7980   -2.9200 O.2   199  THR199     -0.2714
     62  CB        23.1130   41.6360   -2.1210 C.3   199  THR199      0.1808
     63  OG1       23.2190   41.8690   -0.7220 O.3   199  THR199     -0.2208
     64  CG2       23.3950   42.9010   -2.8900 C.3   199  THR199      0.0379
     65  N         20.9360   39.2020   -1.1320 N.am  200  THR200     -0.1950
     66  CA        20.8470   37.8130   -0.7060 C.3   200  THR200      0.1897
     67  C         19.7360   37.0100   -1.4050 C.2   200  THR200      0.2313
     68  O         19.8750   35.7960   -1.4850 O.2   200  THR200     -0.2863
     69  CB        20.7510   37.7630    0.8150 C.3   200  THR200      0.1794
     70  OG1       19.6410   38.5440    1.2230 O.3   200  THR200     -0.2208
     71  CG2       22.0020   38.3000    1.4870 C.3   200  THR200      0.0378
     72  N         28.2380   37.2950    5.1400 N.3   221  GLU221     -0.1245
     73  CA        26.7810   37.3040    5.0170 C.3   221  GLU221      0.1567
     74  C         26.0900   37.0180    6.3720 C.2   221  GLU221      0.2260
     75  O         25.1900   37.7710    6.7560 O.2   221  GLU221     -0.2867
     76  CB        26.3240   36.3280    3.9390 C.3   221  GLU221      0.0388
     77  CG        24.8780   36.5360    3.5440 C.3   221  GLU221      0.1160
     78  CD        24.4150   35.5410    2.5090 C.2   221  GLU221      0.3649
     79  OE1       23.8600   34.4870    2.8910 O.co2 221  GLU221     -0.2457
     80  OE2       24.6580   35.7970    1.3110 O.co2 221  GLU221     -0.2457
     81  N         26.4320   39.9450    8.8200 N.3   224  THR224     -0.1203
     82  CA        25.5770   41.0800    8.4390 C.3   224  THR224      0.1994
     83  C         24.1790   40.8270    9.0310 C.2   224  THR224      0.2617
     84  O         23.5790   41.7320    9.5930 O.2   224  THR224     -0.2717
     85  CB        25.5730   41.2820    6.9140 C.3   224  THR224      0.1784
     86  OG1       26.9110   41.5000    6.5050 O.3   224  THR224     -0.2211
     87  CG2       24.6940   42.4680    6.4740 C.3   224  THR224      0.0376
     88  N         23.7020   39.5700    8.9370 N.am  225  LEU225     -0.1979
     89  CA        22.4330   39.1320    9.5130 C.3   225  LEU225      0.1596
     90  C         22.4790   39.2680   11.0350 C.2   225  LEU225      0.2287
     91  O         21.5410   39.7910   11.6160 O.2   225  LEU225     -0.2864
     92  CB        22.1050   37.6770    9.0710 C.3   225  LEU225      0.0297
     93  CG        20.9310   36.9700    9.7560 C.3   225  LEU225      0.0022
     94  CD1       19.6120   37.5910    9.3700 C.3   225  LEU225      0.0001
     95  CD2       20.9640   35.4530    9.4940 C.3   225  LEU225      0.0001
     96  N         21.6000   42.5610   12.5760 N.3   228  GLN228     -0.1245
     97  CA        20.1780   42.9330   12.5730 C.3   228  GLN228      0.1566
     98  C         19.3900   42.4300   13.7830 C.2   228  GLN228      0.2260
     99  O         18.2220   42.7900   13.9410 O.2   228  GLN228     -0.2867
    100  CB        19.5010   42.4960   11.2650 C.3   228  GLN228      0.0367
    101  CG        20.0410   43.1670   10.0000 C.3   228  GLN228      0.0905
    102  CD        19.8140   44.6590    9.9710 C.2   228  GLN228      0.2608
    103  OE1       18.6920   45.1470    9.7970 O.2   228  GLN228     -0.2717
    104  NE2       20.8890   45.4140   10.1090 N.am  228  GLN228     -0.0878
    105  N         15.3950   33.6410   -0.0720 N.3   441  ASP441     -0.1239
    106  CA        16.2140   34.5700    0.6920 C.3   441  ASP441      0.1674
    107  C         16.4690   33.9950    2.1060 C.2   441  ASP441      0.2266
    108  O         15.6720   34.2090    3.0230 O.2   441  ASP441     -0.2867
    109  CB        15.5440   35.9620    0.7320 C.3   441  ASP441      0.1410
    110  CG        16.5090   37.1140    0.9310 C.2   441  ASP441      0.3668
    111  OD1       17.5900   36.8890    1.4920 O.co2 441  ASP441     -0.2456
    112  OD2       16.1390   38.2500    0.6130 O.co2 441  ASP441     -0.2456
    113  N         18.8480   34.7360    4.5790 N.3   443  PRO443     -0.2102
    114  CA        18.9000   35.6650    5.7370 C.3   443  PRO443      0.1504
    115  C         17.5530   36.2890    6.0790 C.2   443  PRO443      0.2575
    116  O         17.2850   36.5310    7.2510 O.2   443  PRO443     -0.2718
    117  CB        19.8780   36.7570    5.2880 C.3   443  PRO443      0.0282
    118  CG        20.5760   36.2180    4.1020 C.3   443  PRO443      0.0208
    119  CD        19.6560   35.2530    3.4520 C.3   443  PRO443      0.0893
    120  N         16.7190   36.5780    5.0510 N.am  444  LYS444     -0.1980
    121  CA        15.3950   37.1670    5.2390 C.3   444  LYS444      0.1596
    122  C         14.5040   36.2040    6.0120 C.2   444  LYS444      0.2287
    123  O         13.8090   36.6320    6.9410 O.2   444  LYS444     -0.2864
    124  CB        14.7180   37.5460    3.9030 C.3   444  LYS444      0.0298
    125  CG        13.4350   38.3690    4.0850 C.3   444  LYS444      0.0038
    126  CD        12.7080   38.5890    2.7890 C.3   444  LYS444      0.0206
    127  CE        11.3250   39.1510    3.0090 C.3   444  LYS444      0.1093
    128  NZ        10.3820   38.7260    1.9330 N.3   444  LYS444     -0.1314
    129  N         15.6450   35.9460    9.7380 N.3   447  GLN447     -0.1245
    130  CA        15.2380   37.1880   10.4410 C.3   447  GLN447      0.1566
    131  C         13.7710   37.1250   10.8240 C.2   447  GLN447      0.2260
    132  O         13.4270   37.4540   11.9530 O.2   447  GLN447     -0.2867
    133  CB        15.5310   38.4310    9.5590 C.3   447  GLN447      0.0367
    134  CG        15.3550   39.7750   10.2580 C.3   447  GLN447      0.0905
    135  CD        16.3730   40.0900   11.3340 C.2   447  GLN447      0.2608
    136  OE1       17.3440   39.3490   11.5960 O.2   447  GLN447     -0.2717
    137  NE2       16.1660   41.2240   11.9660 N.am  447  GLN447     -0.0878
@<TRIPOS>BOND
     1    49    47    1
     2    48    47    1
     3    47    46    1
     4    53    52    2
     5    38    40   ar
     6    38    37   ar
     7    46    43    1
     8    61    60    2
     9    64    62    1
    10    40    41   ar
    11    59    60    1
    12    59    62    1
    13    59    58    1
    14    52    58   am
    15    52    51    1
    16    36    37    1
    17    36    33    1
    18    60    65   am
    19    62    63    1
    20    37    39   ar
    21    35    34    2
    22    56    55    2
    23    43    44    1
    24    43    42    1
    25    50    51    1
    26    50    44   am
    27    54    51    1
    28    54    55    1
    29    41    39   ar
    30    68    67    2
    31    67    66    1
    32    44    45    2
    33    55    57   am
    34    34    33    1
    35    65    66    1
    36    33    32    1
    37    66    69    1
    38   105   106    1
    39    32    23   am
    40   112   110   ar
    41   106   109    1
    42   106   107    1
    43   109   110    1
    44    69    70    1
    45    69    71    1
    46   110   111   ar
    47    80    78   ar
    48    23    24    2
    49    23    22    1
    50   128   127    1
    51   107   108    2
    52    22    21    1
    53    22    25    1
    54    13    12    2
    55    78    79   ar
    56    78    77    1
    57    31    29   ar
    58    31    30   ar
    59    29    27   ar
    60   126   127    1
    61   126   125    1
    62    30    28   ar
    63    27    26   ar
    64    28    26   ar
    65    26    25    1
    66    20    18    1
    67   119   118    1
    68   119   113    1
    69    12    11    1
    70    77    76    1
    71   124   125    1
    72   124   121    1
    73    76    73    1
    74   118   117    1
    75    18    17    2
    76    18    19    1
    77   113   114    1
    78    11    14    1
    79    11    10    1
    80     4     3    2
    81    17    16    1
    82    73    72    1
    83    73    74    1
    84   120   121    1
    85   120   115   am
    86    14    15    1
    87   121   122    1
    88   117   114    1
    89   114   115    1
    90    10     3   am
    91     3     2    1
    92   122   123    2
    93   115   116    2
    94    15    16    1
    95    74    75    2
    96    87    85    1
    97    86    85    1
    98    85    82    1
    99     5     2    1
   100     5     6    1
   101     2     1    1
   102     6     7    1
   103    82    81    1
   104    82    83    1
   105    88    83   am
   106    88    89    1
   107    83    84    2
   108    92    89    1
   109    92    93    1
   110     8     7   ar
   111    94    93    1
   112     7     9   ar
   113    95    93    1
   114    89    90    1
   115   133   134    1
   116   133   130    1
   117   129   130    1
   118   103   102    2
   119   102   101    1
   120   102   104   am
   121   101   100    1
   122   134   135    1
   123   130   131    1
   124   131   132    2
   125    90    91    2
   126   100    97    1
   127   135   136    2
   128   135   137   am
   129    97    96    1
   130    97    98    1
   131    98    99    2
