@<TRIPOS>MOLECULE
tmp/6mdeB00.pdb
 95 87 0 0 0
SMALL
GASTEIGER

@<TRIPOS>ATOM
      1  N        -10.7150  -28.4390  -28.6270 N.3     9  LYS9       -0.1245
      2  CA        -9.5870  -28.7850  -27.7710 C.3     9  LYS9        0.1561
      3  C         -8.6890  -27.5690  -27.5740 C.2     9  LYS9        0.2260
      4  O         -8.7120  -26.6180  -28.3590 O.2     9  LYS9       -0.2867
      5  CB        -8.7760  -29.9440  -28.3640 C.3     9  LYS9        0.0271
      6  CG        -8.0960  -29.5610  -29.6610 C.3     9  LYS9        0.0035
      7  CD        -6.9770  -30.5130  -30.0400 C.3     9  LYS9        0.0206
      8  CE        -6.0030  -29.8440  -31.0060 C.3     9  LYS9        0.1093
      9  NZ        -6.7190  -29.3150  -32.2030 N.3     9  LYS9       -0.1314
     10  N         -4.3600  -26.8570  -26.3280 N.3    11  TYR11      -0.1241
     11  CA        -3.0680  -27.4810  -26.0410 C.3    11  TYR11       0.1605
     12  C         -2.6290  -27.0770  -24.6380 C.2    11  TYR11       0.2264
     13  O         -2.5000  -25.8840  -24.3510 O.2    11  TYR11      -0.2867
     14  CB        -2.0030  -27.0620  -27.0560 C.3    11  TYR11       0.0534
     15  CG        -2.0860  -27.7780  -28.3840 C.ar   11  TYR11      -0.0201
     16  CD1       -2.9500  -27.3340  -29.3840 C.ar   11  TYR11      -0.0009
     17  CD2       -1.3060  -28.9080  -28.6410 C.ar   11  TYR11      -0.0009
     18  CE1       -3.0310  -27.9890  -30.6090 C.ar   11  TYR11       0.0417
     19  CE2       -1.3840  -29.5720  -29.8630 C.ar   11  TYR11       0.0417
     20  CZ        -2.2520  -29.1080  -30.8390 C.ar   11  TYR11       0.1957
     21  OH        -2.3410  -29.7570  -32.0510 O.3    11  TYR11      -0.2866
     22  N          2.6250  -27.4030  -28.6420 N.3    15  GLU15      -0.1231
     23  CA         2.3800  -26.9830  -30.0090 C.3    15  GLU15       0.1699
     24  C          3.6650  -26.4510  -30.6240 C.2    15  GLU15       0.2592
     25  O          4.5970  -26.0260  -29.9240 O.2    15  GLU15      -0.2718
     26  CB         1.3020  -25.9070  -30.0850 C.3    15  GLU15       0.0402
     27  CG         1.5720  -24.6260  -29.2850 C.3    15  GLU15       0.1161
     28  CD         0.9120  -24.6520  -27.9250 C.2    15  GLU15       0.3649
     29  OE1        1.5130  -25.1700  -26.9560 O.co2  15  GLU15      -0.2457
     30  OE2       -0.2640  -24.2510  -27.8670 O.co2  15  GLU15      -0.2457
     31  N          3.7000  -26.4940  -31.9590 N.am   16  HIS16      -0.1976
     32  CA         4.8230  -26.0820  -32.8000 C.3    16  HIS16       0.1656
     33  C          5.9750  -27.0810  -32.7760 C.2    16  HIS16       0.2291
     34  O          6.7120  -27.1990  -33.7600 O.2    16  HIS16      -0.2864
     35  CB         5.3270  -24.6910  -32.4080 C.3    16  HIS16       0.0771
     36  CG         4.6170  -23.5810  -33.1120 C.ar   16  HIS16       0.0820
     37  ND1        4.8030  -23.3140  -34.4530 N.ar   16  HIS16      -0.2267
     38  CD2        3.7010  -22.6860  -32.6700 C.ar   16  HIS16       0.1154
     39  CE1        4.0410  -22.2900  -34.8030 C.ar   16  HIS16       0.1986
     40  NE2        3.3710  -21.8840  -33.7370 N.ar   16  HIS16      -0.2212
     41  N          5.5790  -30.4720  -32.0520 N.3    18  VAL18      -0.1231
     42  CA         5.1940  -31.8150  -32.4850 C.3    18  VAL18       0.1692
     43  C          5.7640  -32.1210  -33.8660 C.2    18  VAL18       0.2591
     44  O          6.2690  -33.2240  -34.1140 O.2    18  VAL18      -0.2718
     45  CB         3.6650  -31.9800  -32.4580 C.3    18  VAL18       0.0266
     46  CG1        3.2380  -33.0460  -33.4470 C.3    18  VAL18       0.0020
     47  CG2        3.2240  -32.3850  -31.0970 C.3    18  VAL18       0.0020
     48  N          5.7270  -31.1420  -34.7780 N.am   19  VAL19      -0.1980
     49  CA         6.1920  -31.3880  -36.1430 C.3    19  VAL19       0.1595
     50  C          7.6910  -31.6530  -36.1930 C.2    19  VAL19       0.2287
     51  O          8.1940  -32.1880  -37.1870 O.2    19  VAL19      -0.2864
     52  CB         5.7990  -30.2170  -37.0690 C.3    19  VAL19       0.0276
     53  CG1        6.7410  -29.0300  -36.8890 C.3    19  VAL19       0.0022
     54  CG2        5.7490  -30.6700  -38.5270 C.3    19  VAL19       0.0022
     55  N         -6.2170  -23.4610  -33.5330 N.3    91  GLY91      -0.1225
     56  CA        -6.2420  -24.8970  -33.3210 C.3    91  GLY91       0.1811
     57  C         -7.3260  -25.3760  -32.3650 C.2    91  GLY91       0.2280
     58  O         -7.2120  -26.4770  -31.8110 O.2    91  GLY91      -0.2866
     59  N         -3.1810  -33.3990  -40.1400 N.3   135  SER135     -0.1217
     60  CA        -2.7450  -34.2700  -39.0510 C.3   135  SER135      0.1889
     61  C         -3.9430  -34.9850  -38.4190 C.2   135  SER135      0.2288
     62  O         -5.0300  -34.3980  -38.2910 O.2   135  SER135     -0.2866
     63  CB        -2.0040  -33.4670  -37.9830 C.3   135  SER135      0.2089
     64  OG        -2.0220  -34.1370  -36.7370 O.3   135  SER135     -0.2183
     65  N         -6.2830  -33.5670  -34.4670 N.3   138  ASP138     -0.1239
     66  CA        -7.5390  -32.8820  -34.1740 C.3   138  ASP138      0.1674
     67  C         -8.7170  -33.8410  -34.2200 C.2   138  ASP138      0.2266
     68  O         -9.6140  -33.7730  -33.3750 O.2   138  ASP138     -0.2867
     69  CB        -7.7550  -31.7360  -35.1630 C.3   138  ASP138      0.1410
     70  CG        -6.6760  -30.6790  -35.0770 C.2   138  ASP138      0.3668
     71  OD1       -5.4770  -31.0440  -35.1240 O.co2 138  ASP138     -0.2456
     72  OD2       -7.0340  -29.4850  -34.9720 O.co2 138  ASP138     -0.2456
     73  N         -1.6780  -19.6720  -40.1070 N.3   174  THR174     -0.1218
     74  CA        -0.9570  -20.7720  -39.4770 C.3   174  THR174      0.1862
     75  C          0.1700  -21.2870  -40.3630 C.2   174  THR174      0.2287
     76  O          1.2680  -21.5850  -39.8710 O.2   174  THR174     -0.2866
     77  CB        -1.9320  -21.8960  -39.1460 C.3   174  THR174      0.1770
     78  OG1       -2.8750  -21.4280  -38.1770 O.3   174  THR174     -0.2211
     79  CG2       -1.1940  -23.1150  -38.6010 C.3   174  THR174      0.0375
     80  N          4.0010  -21.2870  -39.0760 N.3   178  VAL178     -0.1245
     81  CA         4.8040  -22.5040  -39.0570 C.3   178  VAL178      0.1561
     82  C          6.0630  -22.3060  -39.8940 C.2   178  VAL178      0.2260
     83  O          7.1610  -22.7180  -39.4970 O.2   178  VAL178     -0.2867
     84  CB         3.9720  -23.7090  -39.5440 C.3   178  VAL178      0.0252
     85  CG1        4.8620  -24.9370  -39.7780 C.3   178  VAL178      0.0019
     86  CG2        2.8560  -24.0400  -38.5470 C.3   178  VAL178      0.0019
     87  N         -2.4640  -23.2460  -29.8870 N.3   258  GLY258     -0.1210
     88  CA        -2.5060  -23.2130  -31.3360 C.3   258  GLY258      0.1956
     89  C         -1.2920  -22.5150  -31.9130 C.2   258  GLY258      0.2611
     90  O         -0.2300  -22.4910  -31.2820 O.2   258  GLY258     -0.2717
     91  N         -1.4280  -21.9170  -33.0910 N.am  259  ALA259     -0.1979
     92  CA        -0.2370  -21.4650  -33.7970 C.3   259  ALA259      0.1597
     93  C          0.3050  -20.1350  -33.2870 C.2   259  ALA259      0.2287
     94  O          1.4750  -19.8330  -33.5370 O.2   259  ALA259     -0.2864
     95  CB        -0.5240  -21.3660  -35.2960 C.3   259  ALA259      0.0319
@<TRIPOS>BOND
     1    75    76    2
     2    75    74    1
     3    59    60    1
     4    73    74    1
     5    82    83    2
     6    82    81    1
     7    85    84    1
     8    84    81    1
     9    84    86    1
    10    74    77    1
    11    77    79    1
    12    77    78    1
    13    80    81    1
    14    60    61    1
    15    60    63    1
    16    54    52    1
    17    61    62    2
    18    63    64    1
    19    51    50    2
    20    52    53    1
    21    52    49    1
    22    50    49    1
    23    49    48    1
    24    95    92    1
    25    69    70    1
    26    69    66    1
    27    71    70   ar
    28    70    72   ar
    29    39    37   ar
    30    39    40   ar
    31    48    43   am
    32    65    66    1
    33    37    36   ar
    34    67    66    1
    35    67    68    2
    36    44    43    2
    37    43    42    1
    38    92    93    1
    39    92    91    1
    40    34    33    2
    41    40    38   ar
    42    94    93    2
    43    55    56    1
    44    46    45    1
    45    56    57    1
    46    36    38   ar
    47    36    35    1
    48    91    89   am
    49    32    33    1
    50    32    35    1
    51    32    31    1
    52    42    45    1
    53    42    41    1
    54    45    47    1
    55    57    58    2
    56     9     8    1
    57    21    20    1
    58    31    24   am
    59    89    88    1
    60    89    90    2
    61    88    87    1
    62     8     7    1
    63    20    18   ar
    64    20    19   ar
    65    24    23    1
    66    24    25    2
    67    18    16   ar
    68    26    23    1
    69    26    27    1
    70     7     6    1
    71    23    22    1
    72    19    17   ar
    73     6     5    1
    74    16    15   ar
    75    27    28    1
    76    17    15   ar
    77     1     2    1
    78    15    14    1
    79     5     2    1
    80     4     3    2
    81    28    30   ar
    82    28    29   ar
    83     2     3    1
    84    14    11    1
    85    10    11    1
    86    11    12    1
    87    12    13    2
