@<TRIPOS>MOLECULE
tmp/6mdfA00.pdb
 105 96 0 0 0
SMALL
GASTEIGER

@<TRIPOS>ATOM
      1  N         24.9170    1.0710  -18.1130 N.3    11  LYS11      -0.1245
      2  CA        25.0050    0.0520  -19.1480 C.3    11  LYS11       0.1561
      3  C         23.6700   -0.6630  -19.2990 C.2    11  LYS11       0.2260
      4  O         22.7920   -0.5820  -18.4360 O.2    11  LYS11      -0.2867
      5  CB        26.1100   -0.9650  -18.8410 C.3    11  LYS11       0.0271
      6  CG        25.6900   -2.0400  -17.8550 C.3    11  LYS11       0.0035
      7  CD        26.8880   -2.6980  -17.2000 C.3    11  LYS11       0.0206
      8  CE        26.4500   -3.7510  -16.1920 C.3    11  LYS11       0.1093
      9  NZ        25.5310   -3.2010  -15.1540 N.3    11  LYS11      -0.1314
     10  N         22.1650   -4.6370  -20.8450 N.3    13  TYR13      -0.1241
     11  CA        22.5180   -5.9850  -21.2680 C.3    13  TYR13       0.1605
     12  C         21.9610   -6.2300  -22.6650 C.2    13  TYR13       0.2264
     13  O         20.7410   -6.2350  -22.8590 O.2    13  TYR13      -0.2867
     14  CB        21.9730   -7.0260  -20.2910 C.3    13  TYR13       0.0534
     15  CG        22.8090   -7.2280  -19.0480 C.ar   13  TYR13      -0.0201
     16  CD1       23.8400   -8.1610  -19.0230 C.ar   13  TYR13      -0.0009
     17  CD2       22.5580   -6.4980  -17.8920 C.ar   13  TYR13      -0.0009
     18  CE1       24.6020   -8.3540  -17.8830 C.ar   13  TYR13       0.0417
     19  CE2       23.3150   -6.6850  -16.7500 C.ar   13  TYR13       0.0417
     20  CZ        24.3350   -7.6130  -16.7520 C.ar   13  TYR13       0.1957
     21  OH        25.0890   -7.8020  -15.6180 O.3    13  TYR13      -0.2866
     22  N         21.7470  -11.6800  -19.3900 N.3    17  GLU17      -0.1231
     23  CA        21.4830  -11.4510  -17.9780 C.3    17  GLU17       0.1699
     24  C         20.8230  -12.6780  -17.3520 C.2    17  GLU17       0.2592
     25  O         20.2260  -13.5150  -18.0380 O.2    17  GLU17      -0.2718
     26  CB        20.5920  -10.2250  -17.7750 C.3    17  GLU17       0.0402
     27  CG        19.3490  -10.2030  -18.6400 C.3    17  GLU17       0.1161
     28  CD        19.5240   -9.3500  -19.8750 C.2    17  GLU17       0.3649
     29  OE1       19.9320   -9.8890  -20.9250 O.co2  17  GLU17      -0.2457
     30  OE2       19.2710   -8.1310  -19.7840 O.co2  17  GLU17      -0.2457
     31  N         20.9600  -12.7810  -16.0260 N.am   18  HIS18      -0.1976
     32  CA        20.4430  -13.8810  -15.2150 C.3    18  HIS18       0.1656
     33  C         21.1970  -15.1860  -15.4590 C.2    18  HIS18       0.2291
     34  O         21.4150  -15.9590  -14.5210 O.2    18  HIS18      -0.2864
     35  CB        18.9430  -14.0920  -15.4530 C.3    18  HIS18       0.0771
     36  CG        18.0650  -13.2840  -14.5480 C.ar   18  HIS18       0.0820
     37  ND1       17.8360  -13.6270  -13.2330 N.ar   18  HIS18      -0.2267
     38  CD2       17.3460  -12.1590  -14.7750 C.ar   18  HIS18       0.1154
     39  CE1       17.0200  -12.7430  -12.6850 C.ar   18  HIS18       0.1986
     40  NE2       16.7080  -11.8420  -13.6000 N.ar   18  HIS18      -0.2212
     41  N         24.3450  -15.3780  -16.4410 N.3    20  VAL20      -0.1231
     42  CA        25.7540  -15.2460  -16.0730 C.3    20  VAL20       0.1692
     43  C         26.0210  -15.9030  -14.7270 C.2    20  VAL20       0.2591
     44  O         27.0390  -16.5840  -14.5430 O.2    20  VAL20      -0.2718
     45  CB        26.1780  -13.7660  -16.0700 C.3    20  VAL20       0.0266
     46  CG1       27.3210  -13.5370  -15.0880 C.3    20  VAL20       0.0020
     47  CG2       26.6200  -13.3590  -17.4410 C.3    20  VAL20       0.0020
     48  N         25.1070  -15.7280  -13.7700 N.am   21  VAL21      -0.1980
     49  CA        25.2940  -16.2840  -12.4370 C.3    21  VAL21       0.1595
     50  C         25.3900  -17.8030  -12.4490 C.2    21  VAL21       0.2287
     51  O         25.7290  -18.4040  -11.4270 O.2    21  VAL21      -0.2864
     52  CB        24.1570  -15.8200  -11.4990 C.3    21  VAL21       0.0276
     53  CG1       23.8590  -14.3410  -11.7160 C.3    21  VAL21       0.0022
     54  CG2       22.9080  -16.6580  -11.7080 C.3    21  VAL21       0.0022
     55  N         15.9320   -1.1610  -12.0210 N.3    92  SER92      -0.1202
     56  CA        16.2360   -1.8750  -13.2590 C.3    92  SER92       0.2020
     57  C         17.7270   -2.1550  -13.3950 C.2    92  SER92       0.2619
     58  O         18.5320   -1.7330  -12.5570 O.2    92  SER92      -0.2717
     59  CB        15.7410   -1.1020  -14.4850 C.3    92  SER92       0.2103
     60  OG        15.9710   -1.8430  -15.6740 O.3    92  SER92      -0.2182
     61  N         18.1000   -2.8760  -14.4480 N.am   93  GLY93      -0.1956
     62  CA        19.4920   -3.1780  -14.7030 C.3    93  GLY93       0.1869
     63  C         20.1540   -2.1530  -15.5970 C.2    93  GLY93       0.2309
     64  O         20.4810   -2.4430  -16.7550 O.2    93  GLY93      -0.2863
     65  N         22.7240   -0.1890  -13.9750 N.3    95  GLY95      -0.1225
     66  CA        23.9990    0.0270  -13.3140 C.3    95  GLY95       0.1811
     67  C         24.1620    1.3790  -12.6510 C.2    95  GLY95       0.2280
     68  O         25.2400    1.9800  -12.7420 O.2    95  GLY95      -0.2866
     69  N         29.0200   -9.1080   -8.2460 N.3   137  SER137     -0.1217
     70  CA        29.8110   -9.4920   -9.4060 C.3   137  SER137      0.1889
     71  C         30.6670   -8.3140   -9.8680 C.2   137  SER137      0.2288
     72  O         30.2230   -7.1650   -9.8090 O.2   137  SER137     -0.2866
     73  CB        28.9080   -9.9510  -10.5470 C.3   137  SER137      0.2089
     74  OG        29.6070   -9.9310  -11.7810 O.3   137  SER137     -0.2183
     75  N         29.5390   -5.1000  -13.1160 N.3   140  ASP140     -0.1239
     76  CA        28.9550   -3.7630  -13.1940 C.3   140  ASP140      0.1674
     77  C         30.0270   -2.6790  -13.1290 C.2   140  ASP140      0.2266
     78  O         30.0550   -1.7660  -13.9620 O.2   140  ASP140     -0.2867
     79  CB        27.9290   -3.5730  -12.0760 C.3   140  ASP140      0.1410
     80  CG        26.7560   -4.5210  -12.1950 C.2   140  ASP140      0.3668
     81  OD1       26.4770   -4.9880  -13.3170 O.co2 140  ASP140     -0.2456
     82  OD2       26.1080   -4.7980  -11.1640 O.co2 140  ASP140     -0.2456
     83  N         16.3990   -6.6750   -7.5580 N.3   176  THR176     -0.1218
     84  CA        17.2300   -7.6890   -8.1990 C.3   176  THR176      0.1862
     85  C         17.3020   -8.9700   -7.3740 C.2   176  THR176      0.2287
     86  O         17.1880  -10.0750   -7.9190 O.2   176  THR176     -0.2866
     87  CB        18.6350   -7.1280   -8.4380 C.3   176  THR176      0.1770
     88  OG1       18.5720   -6.0600   -9.3930 O.3   176  THR176     -0.2211
     89  CG2       19.5750   -8.2080   -8.9510 C.3   176  THR176      0.0375
     90  N         16.4700  -12.7890   -8.7860 N.3   180  VAL180     -0.1245
     91  CA        17.5040  -13.8130   -8.8920 C.3   180  VAL180      0.1561
     92  C         17.1430  -15.0140   -8.0280 C.2   180  VAL180      0.2260
     93  O         17.3930  -16.1670   -8.4010 O.2   180  VAL180     -0.2867
     94  CB        18.8770  -13.2280   -8.5150 C.3   180  VAL180      0.0252
     95  CG1       19.9490  -14.3070   -8.5520 C.3   180  VAL180      0.0019
     96  CG2       19.2370  -12.0870   -9.4500 C.3   180  VAL180      0.0019
     97  N         18.5210   -6.2720  -17.4000 N.3   260  GLY260     -0.1210
     98  CA        18.6760   -6.3940  -15.9650 C.3   260  GLY260      0.1956
     99  C         17.8660   -7.5180  -15.3570 C.2   260  GLY260      0.2611
    100  O         17.5210   -8.4850  -16.0410 O.2   260  GLY260     -0.2717
    101  N         17.5440   -7.3880  -14.0670 N.am  261  ALA261     -0.1979
    102  CA        16.8800   -8.4710  -13.3460 C.3   261  ALA261      0.1597
    103  C         15.4730   -8.7330  -13.8640 C.2   261  ALA261      0.2287
    104  O         14.9710   -9.8540  -13.7310 O.2   261  ALA261     -0.2864
    105  CB        16.8300   -8.1570  -11.8500 C.3   261  ALA261      0.0319
@<TRIPOS>BOND
     1    13    12    2
     2    12    11    1
     3    11    10    1
     4    11    14    1
     5    29    28   ar
     6    14    15    1
     7    28    30   ar
     8    28    27    1
     9    22    23    1
    10     3     2    1
    11     3     4    2
    12     2     5    1
    13     2     1    1
    14    15    16   ar
    15    15    17   ar
    16    16    18   ar
    17     5     6    1
    18    27    26    1
    19    25    24    2
    20    23    26    1
    21    23    24    1
    22    17    19   ar
    23    18    20   ar
    24     6     7    1
    25    47    45    1
    26    97    98    1
    27    24    31   am
    28     7     8    1
    29    64    63    2
    30    20    19   ar
    31    20    21    1
    32    41    42    1
    33     8     9    1
    34    42    45    1
    35    42    43    1
    36    45    46    1
    37   100    99    2
    38    31    32    1
    39    98    99    1
    40    60    59    1
    41    63    62    1
    42    33    32    1
    43    33    34    2
    44    35    32    1
    45    35    36    1
    46    99   101   am
    47    38    36   ar
    48    38    40   ar
    49    43    44    2
    50    43    48   am
    51    62    61    1
    52    36    37   ar
    53    59    56    1
    54    61    57   am
    55   101   102    1
    56    65    66    1
    57    78    77    2
    58   103   104    2
    59   103   102    1
    60    48    49    1
    61    40    39   ar
    62    57    56    1
    63    57    58    2
    64   102   105    1
    65    81    80   ar
    66    66    67    1
    67    56    55    1
    68    37    39   ar
    69    76    77    1
    70    76    75    1
    71    76    79    1
    72    68    67    2
    73    50    49    1
    74    50    51    2
    75    49    52    1
    76    80    79    1
    77    80    82   ar
    78    74    73    1
    79    53    52    1
    80    54    52    1
    81    73    70    1
    82    71    72    2
    83    71    70    1
    84    96    94    1
    85    70    69    1
    86    88    87    1
    87    89    87    1
    88    91    90    1
    89    91    94    1
    90    91    92    1
    91    95    94    1
    92    87    84    1
    93    93    92    2
    94    84    83    1
    95    84    85    1
    96    86    85    2
