@<TRIPOS>MOLECULE
tmp/6mdnD01.pdb
 167 158 0 0 0
SMALL
GASTEIGER

@<TRIPOS>ATOM
      1  N        189.7740  166.6620  160.4250 N.3   200  GLY200     -0.1210
      2  CA       188.3670  166.9850  160.3420 C.3   200  GLY200      0.1956
      3  C        187.5500  166.5360  161.5320 C.2   200  GLY200      0.2611
      4  O        186.5430  167.1720  161.8600 O.2   200  GLY200     -0.2717
      5  N        187.9870  165.4890  162.2050 N.am  201  ILE201     -0.1979
      6  CA       187.2100  164.9240  163.2910 C.3   201  ILE201      0.1595
      7  C        187.3740  165.7410  164.5610 C.2   201  ILE201      0.2287
      8  O        186.3930  166.1450  165.1930 O.2   201  ILE201     -0.2864
      9  CB       187.6210  163.4530  163.4710 C.3   201  ILE201      0.0276
     10  CG1      187.2840  162.6460  162.2000 C.3   201  ILE201      0.0022
     11  CG2      186.9630  162.8350  164.6820 C.3   201  ILE201      0.0022
     12  CD1      188.3560  162.5800  161.0990 C.3   201  ILE201      0.0001
     13  N        188.3240  165.0280  167.5400 N.3   203  GLY203     -0.1210
     14  CA       188.1130  164.4420  168.8500 C.3   203  GLY203      0.1956
     15  C        188.2250  162.9400  168.8560 C.2   203  GLY203      0.2611
     16  O        188.3070  162.2890  167.8130 O.2   203  GLY203     -0.2717
     17  N        188.2110  162.3990  170.0730 N.am  204  LEU204     -0.1979
     18  CA       188.0980  160.9650  170.2840 C.3   204  LEU204      0.1596
     19  C        189.2410  160.1940  169.6570 C.2   204  LEU204      0.2287
     20  O        189.0480  159.1880  168.9710 O.2   204  LEU204     -0.2864
     21  CB       186.7770  160.4690  169.7350 C.3   204  LEU204      0.0297
     22  CG       185.5560  160.9890  170.4360 C.3   204  LEU204      0.0022
     23  CD1      184.4050  160.5070  169.6600 C.3   204  LEU204      0.0001
     24  CD2      185.4780  160.4780  171.8460 C.3   204  LEU204      0.0001
     25  N        172.5320  161.8080  171.1620 N.3   243  PRO243     -0.2102
     26  CA       172.5190  162.6050  169.9510 C.3   243  PRO243      0.1504
     27  C        173.4620  163.7800  170.0230 C.2   243  PRO243      0.2576
     28  O        173.9490  164.1800  171.0780 O.2   243  PRO243     -0.2718
     29  CB       171.0890  163.1100  169.9100 C.3   243  PRO243      0.0282
     30  CG       170.6990  163.1330  171.2940 C.3   243  PRO243      0.0208
     31  CD       171.3280  162.0230  171.9540 C.3   243  PRO243      0.0893
     32  N        173.6780  164.3540  168.8490 N.am  244  GLY244     -0.1943
     33  CA       174.5020  165.5300  168.7380 C.3   244  GLY244      0.2014
     34  C        175.8940  165.3460  169.2760 C.2   244  GLY244      0.2639
     35  O        176.5390  166.3260  169.6660 O.2   244  GLY244     -0.2714
     36  N        176.3810  164.1170  169.2960 N.am  245  CYS245     -0.1953
     37  CA       177.6250  163.7970  169.9610 C.3   245  CYS245      0.1843
     38  C        178.7540  163.5470  168.9780 C.2   245  CYS245      0.2626
     39  O        179.8950  163.3510  169.4050 O.2   245  CYS245     -0.2714
     40  CB       177.4120  162.5930  170.8730 C.3   245  CYS245      0.0997
     41  SG       178.8470  162.1020  171.8630 S.3   245  CYS245     -0.0797
     42  N        178.4840  163.5680  167.6820 N.am  246  GLY246     -0.1940
     43  CA       179.5420  163.5760  166.7110 C.3   246  GLY246      0.2014
     44  C        179.7490  162.3080  165.9680 C.2   246  GLY246      0.2639
     45  O        180.8080  162.1470  165.3550 O.2   246  GLY246     -0.2714
     46  N        178.7800  161.4060  165.9640 N.am  247  LYS247     -0.1963
     47  CA       179.0630  160.1080  165.3880 C.3   247  LYS247      0.1728
     48  C        178.9510  160.0860  163.8650 C.2   247  LYS247      0.2617
     49  O        179.7860  159.4780  163.1810 O.2   247  LYS247     -0.2715
     50  CB       178.1140  159.0990  166.0230 C.3   247  LYS247      0.0311
     51  CG       176.6450  159.2700  165.7430 C.3   247  LYS247      0.0038
     52  CD       175.8100  158.1450  166.3950 C.3   247  LYS247      0.0206
     53  CE       175.6330  158.1530  167.8970 C.3   247  LYS247      0.1093
     54  NZ       174.8290  159.2930  168.4040 N.3   247  LYS247     -0.1314
     55  N        177.9630  160.7590  163.3080 N.am  248  THR248     -0.1937
     56  CA       177.8160  160.7380  161.8600 C.3   248  THR248      0.2028
     57  C        178.9520  161.4380  161.1310 C.2   248  THR248      0.2642
     58  O        179.2920  161.0520  160.0090 O.2   248  THR248     -0.2714
     59  CB       176.4660  161.3210  161.4640 C.3   248  THR248      0.1808
     60  OG1      176.2480  161.1600  160.0570 O.3   248  THR248     -0.2208
     61  CG2      176.3160  162.7350  161.9100 C.3   248  THR248      0.0379
     62  N        179.5830  162.4220  161.7640 N.am  249  LEU249     -0.1977
     63  CA       180.8320  162.9650  161.2400 C.3   249  LEU249      0.1596
     64  C        181.8550  161.8870  161.0270 C.2   249  LEU249      0.2287
     65  O        182.4760  161.7720  159.9580 O.2   249  LEU249     -0.2864
     66  CB       181.3960  163.9600  162.2310 C.3   249  LEU249      0.0297
     67  CG       182.6850  164.6650  161.8420 C.3   249  LEU249      0.0022
     68  CD1      182.5220  165.4990  160.6170 C.3   249  LEU249      0.0001
     69  CD2      183.1630  165.4840  163.0150 C.3   249  LEU249      0.0001
     70  N        181.0880  159.6630  158.1990 N.3   252  ARG252     -0.1245
     71  CA       181.4120  160.2190  156.8920 C.3   252  ARG252      0.1563
     72  C        182.8800  160.0630  156.5890 C.2   252  ARG252      0.2260
     73  O        183.2520  159.5770  155.5140 O.2   252  ARG252     -0.2867
     74  CB       180.9970  161.6630  156.7340 C.3   252  ARG252      0.0307
     75  CG       179.5340  161.8530  156.7330 C.3   252  ARG252      0.0489
     76  CD       179.2050  163.2780  156.5740 C.3   252  ARG252      0.2205
     77  NE       179.6100  164.0440  157.7180 N.pl3 252  ARG252     -0.0865
     78  CZ       179.5580  165.3590  157.7710 C.cat 252  ARG252      0.5346
     79  NH1      179.9590  165.9640  158.8630 N.pl3 252  ARG252      0.1354
     80  NH2      179.1280  166.0650  156.7420 N.pl3 252  ARG252      0.1354
     81  N        170.1940  155.3910  161.2260 N.3   310  GLU310     -0.1245
     82  CA       169.0370  155.1500  162.0830 C.3   310  GLU310      0.1567
     83  C        168.5330  153.7290  161.9490 C.2   310  GLU310      0.2260
     84  O        167.3510  153.4530  161.7380 O.2   310  GLU310     -0.2867
     85  CB       167.9480  156.1710  161.8490 C.3   310  GLU310      0.0388
     86  CG       168.2840  157.6040  162.2850 C.3   310  GLU310      0.1160
     87  CD       169.3810  158.3010  161.5300 C.2   310  GLU310      0.3649
     88  OE1      170.3000  157.6250  161.0650 O.co2 310  GLU310     -0.2457
     89  OE2      169.3310  159.5380  161.3890 O.co2 310  GLU310     -0.2457
     90  N        174.6360  152.9190  162.8880 N.3   353  MET353     -0.1230
     91  CA       174.4570  154.1990  163.5520 C.3   353  MET353      0.1702
     92  C        173.1280  154.2060  164.2750 C.2   353  MET353      0.2593
     93  O        172.0900  154.0120  163.6410 O.2   353  MET353     -0.2718
     94  CB       174.4740  155.2810  162.4950 C.3   353  MET353      0.0401
     95  CG       175.7800  155.4260  161.8510 C.3   353  MET353      0.0596
     96  SD       175.7420  156.6300  160.5350 S.3   353  MET353     -0.1393
     97  CE       175.5510  158.1330  161.4350 C.3   353  MET353      0.0692
     98  N        173.1440  154.4370  165.5800 N.am  354  THR354     -0.1939
     99  CA       171.8930  154.4520  166.3150 C.3   354  THR354      0.2028
    100  C        171.9190  155.3160  167.5530 C.2   354  THR354      0.2642
    101  O        172.9390  155.4350  168.2330 O.2   354  THR354     -0.2714
    102  CB       171.4500  153.0590  166.7240 C.3   354  THR354      0.1808
    103  OG1      170.1400  153.1590  167.2950 O.3   354  THR354     -0.2208
    104  CG2      172.3910  152.4310  167.7310 C.3   354  THR354      0.0379
    105  N        170.7840  155.9470  167.7970 N.am  355  ASN355     -0.1971
    106  CA       170.5260  156.5400  169.0930 C.3   355  ASN355      0.1688
    107  C        170.2830  155.4400  170.1080 C.2   355  ASN355      0.2292
    108  O        170.8060  155.4700  171.2260 O.2   355  ASN355     -0.2864
    109  CB       169.3040  157.4250  168.9900 C.3   355  ASN355      0.1181
    110  CG       169.5550  158.6410  168.1640 C.2   355  ASN355      0.2629
    111  OD1      170.6030  159.2770  168.2720 O.2   355  ASN355     -0.2716
    112  ND2      168.6320  158.9250  167.2570 N.am  355  ASN355     -0.0877
    113  N        187.7480  169.8980  169.7400 N.3   387  ILE387     -0.1245
    114  CA       186.5210  170.0500  168.9690 C.3   387  ILE387      0.1561
    115  C        186.3020  171.5140  168.6690 C.2   387  ILE387      0.2260
    116  O        185.6560  171.8760  167.6800 O.2   387  ILE387     -0.2867
    117  CB       185.3280  169.4560  169.7250 C.3   387  ILE387      0.0252
    118  CG1      185.5260  167.9720  170.0280 C.3   387  ILE387      0.0019
    119  CG2      184.0340  169.6620  168.9370 C.3   387  ILE387      0.0019
    120  CD1      185.6710  167.0800  168.8510 C.3   387  ILE387      0.0001
    121  N        189.3270  173.0180  166.2460 N.3   390  ILE390     -0.1231
    122  CA       189.2520  172.5160  164.8840 C.3   390  ILE390      0.1692
    123  C        188.3000  173.3550  164.0660 C.2   390  ILE390      0.2592
    124  O        188.4930  173.5370  162.8610 O.2   390  ILE390     -0.2718
    125  CB       188.8260  171.0370  164.9070 C.3   390  ILE390      0.0266
    126  CG1      188.9630  170.4240  163.5200 C.3   390  ILE390      0.0019
    127  CG2      187.4370  170.8860  165.3900 C.3   390  ILE390      0.0020
    128  CD1      188.8770  168.9070  163.4590 C.3   390  ILE390      0.0001
    129  N        187.2830  173.9040  164.7070 N.am  391  HIS391     -0.1976
    130  CA       186.3890  174.8040  164.0150 C.3   391  HIS391      0.1656
    131  C        186.9920  176.1780  163.9020 C.2   391  HIS391      0.2291
    132  O        186.9460  176.8020  162.8390 O.2   391  HIS391     -0.2864
    133  CB       185.0680  174.8910  164.7540 C.3   391  HIS391      0.0771
    134  CG       184.2780  173.6300  164.7090 C.ar  391  HIS391      0.0820
    135  ND1      183.1380  173.4320  165.4530 N.ar  391  HIS391     -0.2267
    136  CD2      184.4710  172.4940  164.0050 C.ar  391  HIS391      0.1154
    137  CE1      182.6630  172.2250  165.2070 C.ar  391  HIS391      0.1986
    138  NE2      183.4530  171.6350  164.3300 N.ar  391  HIS391     -0.2212
    139  N        179.8970  168.5240  170.8910 N.3   419  GLY419     -0.1210
    140  CA       179.7850  168.3880  169.4660 C.3   419  GLY419      0.1956
    141  C        179.0130  169.5270  168.8680 C.2   419  GLY419      0.2611
    142  O        179.4040  170.6980  168.9170 O.2   419  GLY419     -0.2717
    143  N        177.9000  169.1540  168.2680 N.am  420  ALA420     -0.1979
    144  CA       176.9880  170.1230  167.7040 C.3   420  ALA420      0.1597
    145  C        176.5890  171.1640  168.7260 C.2   420  ALA420      0.2287
    146  O        176.5050  172.3510  168.4060 O.2   420  ALA420     -0.2864
    147  CB       175.7750  169.3920  167.1570 C.3   420  ALA420      0.0319
    148  N        179.2990  173.4580  168.7600 N.3   423  GLU423     -0.1245
    149  CA       179.4070  174.2020  167.5220 C.3   423  GLU423      0.1567
    150  C        178.2790  175.1950  167.3300 C.2   423  GLU423      0.2260
    151  O        178.4000  176.1210  166.5120 O.2   423  GLU423     -0.2867
    152  CB       179.3960  173.1770  166.4010 C.3   423  GLU423      0.0388
    153  CG       179.7160  173.6460  164.9870 C.3   423  GLU423      0.1160
    154  CD       178.5240  174.2390  164.2440 C.2   423  GLU423      0.3649
    155  OE1      177.3770  173.8460  164.5290 O.co2 423  GLU423     -0.2457
    156  OE2      178.7330  175.0820  163.3490 O.co2 423  GLU423     -0.2457
    157  N        178.4050  178.9740  165.5810 N.3   427  ARG427     -0.1245
    158  CA       177.6780  179.3880  164.3980 C.3   427  ARG427      0.1563
    159  C        176.8630  180.6370  164.7180 C.2   427  ARG427      0.2260
    160  O        176.8970  181.6490  163.9880 O.2   427  ARG427     -0.2867
    161  CB       176.8710  178.1710  163.9420 C.3   427  ARG427      0.0307
    162  CG       176.1220  178.2850  162.6680 C.3   427  ARG427      0.0489
    163  CD       175.4160  176.9740  162.2140 C.3   427  ARG427      0.2205
    164  NE       174.3320  176.4060  163.0300 N.pl3 427  ARG427     -0.0865
    165  CZ       174.3600  175.2440  163.6930 C.cat 427  ARG427      0.5346
    166  NH1      175.4030  174.4270  163.6500 N.pl3 427  ARG427      0.1354
    167  NH2      173.2830  174.8540  164.3680 N.pl3 427  ARG427      0.1354
@<TRIPOS>BOND
     1    73    72    2
     2    76    75    1
     3    76    77    1
     4    72    71    1
     5    75    74    1
     6    74    71    1
     7    80    78    1
     8    71    70    1
     9    77    78    2
    10    78    79    1
    11    65    64    2
    12    58    57    2
    13    60    59    1
    14     2     1    1
    15     2     3    1
    16    96    97    1
    17    96    95    1
    18    68    67    1
    19    64    63    1
    20    88    87   ar
    21    12    10    1
    22    57    62   am
    23    57    56    1
    24    81    82    1
    25    63    62    1
    26    63    66    1
    27    89    87   ar
    28    59    56    1
    29    59    61    1
    30    87    86    1
    31     3     4    2
    32     3     5   am
    33    84    83    2
    34    67    66    1
    35    67    69    1
    36    85    82    1
    37    85    86    1
    38    95    94    1
    39    56    55    1
    40    83    82    1
    41    10     9    1
    42     5     6    1
    43   163   162    1
    44   163   164    1
    45    94    91    1
    46   162   161    1
    47   132   131    2
    48   124   123    2
    49    90    91    1
    50   164   165    2
    51    49    48    2
    52     6     9    1
    53     6     7    1
    54    55    48   am
    55   156   154   ar
    56   128   126    1
    57     9    11    1
    58   126   125    1
    59    91    92    1
    60    93    92    2
    61   166   165    1
    62   165   167    1
    63    48    47    1
    64   131   130    1
    65   161   158    1
    66   160   159    2
    67   136   138   ar
    68   136   134   ar
    69   130   129    1
    70   130   133    1
    71   123   129   am
    72   123   122    1
    73   154   155   ar
    74   154   153    1
    75    92    98   am
    76   138   137   ar
    77   158   159    1
    78   158   157    1
    79     7     8    2
    80   134   133    1
    81   134   135   ar
    82   122   125    1
    83   122   121    1
    84   125   127    1
    85   153   152    1
    86   137   135   ar
    87    45    44    2
    88    47    46    1
    89    47    50    1
    90    98    99    1
    91    51    50    1
    92    51    52    1
    93    46    44   am
    94    44    43    1
    95    99   102    1
    96    99   100    1
    97    52    53    1
    98   152   149    1
    99   151   150    2
   100    43    42    1
   101   102   103    1
   102   102   104    1
   103   147   144    1
   104   112   110   am
   105   150   149    1
   106   149   148    1
   107    13    14    1
   108   100   105   am
   109   100   101    2
   110   116   115    2
   111    42    38   am
   112   144   143    1
   113   144   145    1
   114   105   106    1
   115    16    15    2
   116    53    54    1
   117   110   111    2
   118   110   109    1
   119   143   141   am
   120   146   145    2
   121   115   114    1
   122    33    32    1
   123    33    34    1
   124    32    27   am
   125    14    15    1
   126   120   118    1
   127    15    17   am
   128   141   142    2
   129   141   140    1
   130   119   117    1
   131   114   117    1
   132   114   113    1
   133    20    19    2
   134    38    39    2
   135    38    37    1
   136   109   106    1
   137   106   107    1
   138    34    36   am
   139    34    35    2
   140    36    37    1
   141   140   139    1
   142    19    18    1
   143    23    22    1
   144   117   118    1
   145    21    18    1
   146    21    22    1
   147    29    26    1
   148    29    30    1
   149    26    27    1
   150    26    25    1
   151    37    40    1
   152    27    28    2
   153    17    18    1
   154   107   108    2
   155    22    24    1
   156    40    41    1
   157    25    31    1
   158    30    31    1
