@<TRIPOS>MOLECULE
tmp/6mdnD00.pdb
 179 175 0 0 0
SMALL
GASTEIGER

@<TRIPOS>ATOM
      1  N        167.1080  177.7130  193.1310 N.3   477  TYR477     -0.1227
      2  CA       167.5810  177.2750  194.4250 C.3   477  TYR477      0.1736
      3  C        168.2840  178.3810  195.1690 C.2   477  TYR477      0.2595
      4  O        168.1830  178.4720  196.3960 O.2   477  TYR477     -0.2718
      5  CB       168.5270  176.1250  194.2030 C.3   477  TYR477      0.0548
      6  CG       167.7800  174.9720  193.6610 C.ar  477  TYR477     -0.0200
      7  CD1      167.0650  174.1400  194.4820 C.ar  477  TYR477     -0.0009
      8  CD2      167.7000  174.7810  192.3060 C.ar  477  TYR477     -0.0009
      9  CE1      166.3510  173.1050  193.9730 C.ar  477  TYR477      0.0417
     10  CE2      166.9880  173.7540  191.7860 C.ar  477  TYR477      0.0417
     11  CZ       166.3010  172.9270  192.6230 C.ar  477  TYR477      0.1957
     12  OH       165.5830  171.8910  192.1040 O.3   477  TYR477     -0.2866
     13  N        169.0030  179.2170  194.4420 N.am  478  ILE478     -0.1966
     14  CA       169.8010  180.2770  195.0230 C.3   478  ILE478      0.1727
     15  C        169.2470  181.6230  194.5890 C.2   478  ILE478      0.2616
     16  O        169.5030  182.0560  193.4600 O.2   478  ILE478     -0.2715
     17  CB       171.2580  180.1300  194.5720 C.3   478  ILE478      0.0290
     18  CG1      171.8290  178.7690  194.9590 C.3   478  ILE478      0.0022
     19  CG2      172.1010  181.2320  195.1170 C.3   478  ILE478      0.0023
     20  CD1      171.8640  178.4630  196.3830 C.3   478  ILE478      0.0001
     21  N        168.5660  182.3290  195.4890 N.am  479  MET479     -0.1963
     22  CA       168.1990  183.6860  195.1240 C.3   479  MET479      0.1736
     23  C        169.2620  184.6820  195.4720 C.2   479  MET479      0.2616
     24  O        169.5370  185.6040  194.7020 O.2   479  MET479     -0.2715
     25  CB       167.0130  184.1780  195.9440 C.3   479  MET479      0.0427
     26  CG       165.6880  183.5550  195.7880 C.3   479  MET479      0.0599
     27  SD       165.0500  183.7620  194.1310 S.3   479  MET479     -0.1393
     28  CE       165.4200  182.1410  193.5900 C.3   479  MET479      0.0692
     29  N        169.8880  184.4560  196.6100 N.am  480  ASN480     -0.1958
     30  CA       170.7480  185.4430  197.2250 C.3   480  ASN480      0.1819
     31  C        172.1660  184.9570  197.4390 C.2   480  ASN480      0.2622
     32  O        172.9410  185.6100  198.1440 O.2   480  ASN480     -0.2715
     33  CB       170.0600  185.8940  198.5040 C.3   480  ASN480      0.1195
     34  CG       168.8300  186.7130  198.2190 C.2   480  ASN480      0.2630
     35  OD1      168.8380  187.5660  197.3370 O.2   480  ASN480     -0.2716
     36  ND2      167.7340  186.3880  198.8900 N.am  480  ASN480     -0.0877
     37  N        172.5170  183.8220  196.8650 N.am  481  GLY481     -0.1940
     38  CA       173.7900  183.2380  197.1970 C.3   481  GLY481      0.2014
     39  C        173.8250  182.7160  198.6080 C.2   481  GLY481      0.2639
     40  O        172.8780  182.1130  199.1150 O.2   481  GLY481     -0.2714
     41  N        174.9450  182.9850  199.2530 N.am  482  ILE482     -0.1963
     42  CA       175.1790  182.6540  200.6410 C.3   482  ILE482      0.1727
     43  C        175.7310  183.8630  201.3340 C.2   482  ILE482      0.2616
     44  O        176.8330  184.3270  201.0270 O.2   482  ILE482     -0.2715
     45  CB       176.1370  181.4740  200.8100 C.3   482  ILE482      0.0290
     46  CG1      175.5890  180.2330  200.1500 C.3   482  ILE482      0.0022
     47  CG2      176.4550  181.2390  202.2490 C.3   482  ILE482      0.0023
     48  CD1      174.2460  179.7380  200.7430 C.3   482  ILE482      0.0001
     49  N        174.9790  184.3340  202.2990 N.am  483  ILE483     -0.1977
     50  CA       175.4590  185.3250  203.2270 C.3   483  ILE483      0.1596
     51  C        176.3470  184.6140  204.2070 C.2   483  ILE483      0.2287
     52  O        175.9260  183.6640  204.8680 O.2   483  ILE483     -0.2864
     53  CB       174.3040  186.0160  203.9440 C.3   483  ILE483      0.0276
     54  CG1      173.3940  186.6590  202.9020 C.3   483  ILE483      0.0022
     55  CG2      174.8230  186.9930  204.9840 C.3   483  ILE483      0.0022
     56  CD1      174.0370  187.7020  202.0260 C.3   483  ILE483      0.0001
     57  N        177.5810  184.4700  207.4270 N.3   485  TRP485     -0.1241
     58  CA       176.9970  185.0780  208.6030 C.3   485  TRP485      0.1605
     59  C        177.6110  184.5820  209.8860 C.2   485  TRP485      0.2264
     60  O        177.1090  184.9260  210.9500 O.2   485  TRP485     -0.2867
     61  CB       175.4800  184.9080  208.6430 C.3   485  TRP485      0.0550
     62  CG       174.9660  183.5370  208.6580 C.ar  485  TRP485      0.0003
     63  CD1      174.6360  182.7970  207.5790 C.ar  485  TRP485      0.0946
     64  CD2      174.7300  182.7190  209.7960 C.ar  485  TRP485      0.0152
     65  NE1      174.2010  181.5610  207.9680 N.ar  485  TRP485     -0.2442
     66  CE2      174.2550  181.4880  209.3320 C.ar  485  TRP485      0.0810
     67  CE3      174.9010  182.8980  211.1580 C.ar  485  TRP485      0.0012
     68  CZ2      173.9220  180.4510  210.1870 C.ar  485  TRP485      0.0191
     69  CZ3      174.5630  181.8740  212.0100 C.ar  485  TRP485      0.0001
     70  CH2      174.0800  180.6640  211.5230 C.ar  485  TRP485      0.0015
     71  N        178.6610  178.7400  209.3150 N.3   489  VAL489     -0.1245
     72  CA       178.7170  178.5550  207.8770 C.3   489  VAL489      0.1561
     73  C        180.0930  178.0590  207.4670 C.2   489  VAL489      0.2260
     74  O        180.2240  177.1650  206.6210 O.2   489  VAL489     -0.2867
     75  CB       178.3050  179.8660  207.1720 C.3   489  VAL489      0.0252
     76  CG1      179.2430  180.9790  207.4460 C.3   489  VAL489      0.0019
     77  CG2      178.2900  179.6990  205.7040 C.3   489  VAL489      0.0019
     78  N        163.4050  174.1960  209.6960 N.3   520  PRO520     -0.2102
     79  CA       162.9200  174.6880  208.4200 C.3   520  PRO520      0.1504
     80  C        163.3930  176.0990  208.1570 C.2   520  PRO520      0.2576
     81  O        163.8690  176.8020  209.0460 O.2   520  PRO520     -0.2718
     82  CB       161.4090  174.6290  208.5830 C.3   520  PRO520      0.0282
     83  CG       161.2000  174.7550  210.0020 C.3   520  PRO520      0.0208
     84  CD       162.3160  174.0710  210.6670 C.3   520  PRO520      0.0893
     85  N        163.2590  176.4970  206.8990 N.am  521  HIS521     -0.1962
     86  CA       163.4910  177.8670  206.4860 C.3   521  HIS521      0.1787
     87  C        164.9220  178.2710  206.7820 C.2   521  HIS521      0.2621
     88  O        165.2040  179.4190  207.1290 O.2   521  HIS521     -0.2715
     89  CB       162.5210  178.7990  207.1990 C.3   521  HIS521      0.0785
     90  CG       161.0980  178.5640  206.8510 C.ar  521  HIS521      0.0821
     91  ND1      160.5360  178.9540  205.6560 N.ar  521  HIS521     -0.2267
     92  CD2      160.1120  177.9810  207.5610 C.ar  521  HIS521      0.1154
     93  CE1      159.2600  178.6120  205.6460 C.ar  521  HIS521      0.1986
     94  NE2      158.9770  178.0220  206.7910 N.ar  521  HIS521     -0.2212
     95  N        165.8320  177.3210  206.6250 N.am  522  SER522     -0.1936
     96  CA       167.2440  177.5710  206.8100 C.3   522  SER522      0.2055
     97  C        168.0730  177.5070  205.5480 C.2   522  SER522      0.2644
     98  O        169.2930  177.5710  205.6530 O.2   522  SER522     -0.2714
     99  CB       167.7900  176.5690  207.8040 C.3   522  SER522      0.2130
    100  OG       169.1720  176.7630  207.9880 O.3   522  SER522     -0.2179
    101  N        167.4750  177.3250  204.3770 N.am  523  GLY523     -0.1939
    102  CA       168.2650  177.3200  203.1560 C.3   523  GLY523      0.2014
    103  C        169.2720  176.2070  203.0620 C.2   523  GLY523      0.2639
    104  O        170.2890  176.3430  202.3740 O.2   523  GLY523     -0.2714
    105  N        169.0010  175.0970  203.7260 N.am  524  LYS524     -0.1963
    106  CA       169.9220  173.9760  203.7160 C.3   524  LYS524      0.1728
    107  C        170.1180  173.4670  202.3010 C.2   524  LYS524      0.2617
    108  O        171.2450  173.2540  201.8260 O.2   524  LYS524     -0.2715
    109  CB       169.4120  172.9050  204.6620 C.3   524  LYS524      0.0311
    110  CG       169.4140  173.4190  206.0800 C.3   524  LYS524      0.0038
    111  CD       169.0060  172.3950  207.1250 C.3   524  LYS524      0.0206
    112  CE       167.5670  171.9990  207.1570 C.3   524  LYS524      0.1093
    113  NZ       166.7190  173.1240  207.5700 N.3   524  LYS524     -0.1314
    114  N        169.0160  173.3360  201.5970 N.am  525  THR525     -0.1937
    115  CA       169.0240  172.8170  200.2520 C.3   525  THR525      0.2028
    116  C        169.7180  173.7280  199.2670 C.2   525  THR525      0.2642
    117  O        170.0880  173.2750  198.1820 O.2   525  THR525     -0.2714
    118  CB       167.5730  172.6640  199.8220 C.3   525  THR525      0.1808
    119  OG1      167.5030  172.0090  198.5550 O.3   525  THR525     -0.2208
    120  CG2      166.8390  174.0250  199.7660 C.3   525  THR525      0.0379
    121  N        169.9370  174.9800  199.6300 N.am  526  ALA526     -0.1963
    122  CA       170.6730  175.8790  198.7600 C.3   526  ALA526      0.1728
    123  C        172.1720  175.7050  198.8950 C.2   526  ALA526      0.2616
    124  O        172.9020  175.5680  197.9010 O.2   526  ALA526     -0.2715
    125  CB       170.2880  177.3070  199.0950 C.3   526  ALA526      0.0334
    126  N        172.6490  175.6610  200.1220 N.am  527  LEU527     -0.1977
    127  CA       174.0750  175.5280  200.2780 C.3   527  LEU527      0.1596
    128  C        174.5330  174.1450  199.9120 C.2   527  LEU527      0.2287
    129  O        175.7100  173.9520  199.6030 O.2   527  LEU527     -0.2864
    130  CB       174.4430  175.8700  201.7040 C.3   527  LEU527      0.0297
    131  CG       173.8600  175.0130  202.8210 C.3   527  LEU527      0.0022
    132  CD1      174.6220  173.7400  203.1020 C.3   527  LEU527      0.0001
    133  CD2      173.8000  175.8160  204.0560 C.3   527  LEU527      0.0001
    134  N        164.5120  167.9590  200.4960 N.3   579  ASP579     -0.1239
    135  CA       163.2570  167.9620  201.2020 C.3   579  ASP579      0.1674
    136  C        162.5800  166.5920  201.1500 C.2   579  ASP579      0.2266
    137  O        161.4220  166.4710  200.7480 O.2   579  ASP579     -0.2867
    138  CB       162.3690  169.0650  200.6390 C.3   579  ASP579      0.1410
    139  CG       162.8860  170.4490  200.9570 C.2   579  ASP579      0.3668
    140  OD1      163.5490  170.6210  201.9970 O.co2 579  ASP579     -0.2456
    141  OD2      162.6270  171.3740  200.1610 O.co2 579  ASP579     -0.2456
    142  N        164.0680  169.2750  207.2510 N.3   622  SER622     -0.1217
    143  CA       163.9390  170.1620  208.3790 C.3   622  SER622      0.1889
    144  C        163.6700  169.3760  209.6530 C.2   622  SER622      0.2288
    145  O        163.6440  169.9690  210.7340 O.2   622  SER622     -0.2866
    146  CB       162.8090  171.1530  208.1520 C.3   622  SER622      0.2089
    147  OG       161.5730  170.4800  208.1110 O.3   622  SER622     -0.2183
    148  N        172.8430  172.1820  211.0580 N.3   642  VAL642     -0.1245
    149  CA       172.7630  173.5800  210.7110 C.3   642  VAL642      0.1561
    150  C        172.1510  174.3260  211.8770 C.2   642  VAL642      0.2260
    151  O        170.9230  174.3300  212.0190 O.2   642  VAL642     -0.2867
    152  CB       171.9730  173.8050  209.4310 C.3   642  VAL642      0.0252
    153  CG1      171.8300  175.2700  209.1730 C.3   642  VAL642      0.0019
    154  CG2      172.7040  173.1680  208.3150 C.3   642  VAL642      0.0019
    155  N        167.0370  182.1520  208.1490 N.3   682  ILE682     -0.1231
    156  CA       167.1560  183.1890  207.1300 C.3   682  ILE682      0.1692
    157  C        165.8840  183.3410  206.3110 C.2   682  ILE682      0.2591
    158  O        165.2850  184.4240  206.2560 O.2   682  ILE682     -0.2718
    159  CB       168.3360  182.8150  206.2110 C.3   682  ILE682      0.0266
    160  CG1      169.6620  182.7890  206.9680 C.3   682  ILE682      0.0019
    161  CG2      168.4200  183.6850  204.9860 C.3   682  ILE682      0.0020
    162  CD1      170.8530  182.1700  206.1830 C.3   682  ILE682      0.0001
    163  N        165.3850  182.2320  205.7840 N.am  683  LYS683     -0.1980
    164  CA       164.2860  182.2470  204.8260 C.3   683  LYS683      0.1596
    165  C        163.0330  182.9140  205.3520 C.2   683  LYS683      0.2287
    166  O        162.2180  183.3820  204.5540 O.2   683  LYS683     -0.2864
    167  CB       164.0100  180.8200  204.3700 C.3   683  LYS683      0.0298
    168  CG       162.9280  180.6500  203.3430 C.3   683  LYS683      0.0038
    169  CD       163.3000  181.2480  202.0320 C.3   683  LYS683      0.0206
    170  CE       162.1670  181.0650  201.0190 C.3   683  LYS683      0.1093
    171  NZ       161.9280  179.6310  200.6560 N.3   683  LYS683     -0.1314
    172  N        164.1780  187.0870  205.4890 N.3   686  LEU686     -0.1245
    173  CA       164.0840  187.8130  204.2380 C.3   686  LEU686      0.1561
    174  C        162.7180  188.4120  204.0130 C.2   686  LEU686      0.2260
    175  O        162.5800  189.6130  203.7500 O.2   686  LEU686     -0.2867
    176  CB       164.4000  186.8610  203.1160 C.3   686  LEU686      0.0270
    177  CG       165.8410  186.5870  202.7620 C.3   686  LEU686      0.0019
    178  CD1      166.5020  187.7790  202.2740 C.3   686  LEU686      0.0001
    179  CD2      166.5740  186.1340  203.9640 C.3   686  LEU686      0.0001
@<TRIPOS>BOND
     1    10     8   ar
     2    10    11   ar
     3    12    11    1
     4     8     6   ar
     5    11     9   ar
     6     1     2    1
     7    16    15    2
     8    28    27    1
     9     6     5    1
    10     6     7   ar
    11     9     7   ar
    12    27    26    1
    13     5     2    1
    14     2     3    1
    15    13    14    1
    16    13     3   am
    17    17    18    1
    18    17    14    1
    19    17    19    1
    20    15    14    1
    21    15    21   am
    22    24    23    2
    23    18    20    1
    24    22    23    1
    25    22    21    1
    26    22    25    1
    27     3     4    2
    28    23    29   am
    29    26    25    1
    30    29    30    1
    31    37    38    1
    32    37    31   am
    33    38    39    1
    34    30    31    1
    35    30    33    1
    36    35    34    2
    37    31    32    2
    38   124   123    2
    39   117   116    2
    40    34    33    1
    41    34    36   am
    42   119   118    1
    43    39    40    2
    44    39    41   am
    45   122   123    1
    46   122   125    1
    47   122   121    1
    48   123   126   am
    49    41    42    1
    50   116   121   am
    51   116   115    1
    52   129   128    2
    53   120   118    1
    54   118   115    1
    55   128   127    1
    56   126   127    1
    57    46    48    1
    58    46    45    1
    59   141   139   ar
    60   115   114    1
    61   127   130    1
    62   134   135    1
    63   138   139    1
    64   138   135    1
    65    42    45    1
    66    42    43    1
    67   171   170    1
    68   137   136    2
    69    45    47    1
    70   139   140   ar
    71   170   169    1
    72    44    43    2
    73   136   135    1
    74    43    49   am
    75   114   107   am
    76   130   131    1
    77   108   107    2
    78    56    54    1
    79   169   168    1
    80   178   177    1
    81    49    50    1
    82   107   106    1
    83   104   103    2
    84   177   176    1
    85   177   179    1
    86   131   132    1
    87   131   133    1
    88    54    53    1
    89   103   102    1
    90   103   105   am
    91   176   173    1
    92   102   101    1
    93    50    53    1
    94    50    51    1
    95   168   167    1
    96   106   105    1
    97   106   109    1
    98   175   174    2
    99    53    55    1
   100   174   173    1
   101    51    52    2
   102   173   172    1
   103   167   164    1
   104   101    97   am
   105   166   165    2
   106   109   110    1
   107   164   165    1
   108   164   163    1
   109   161   159    1
   110    97    98    2
   111    97    96    1
   112    93    91   ar
   113    93    94   ar
   114    91    90   ar
   115    77    75    1
   116   163   157   am
   117   110   111    1
   118   162   160    1
   119   159   160    1
   120   159   156    1
   121   158   157    2
   122   157   156    1
   123    86    87    1
   124    86    85    1
   125    86    89    1
   126    74    73    2
   127    95    87   am
   128    95    96    1
   129    87    88    2
   130    94    92   ar
   131    96    99    1
   132    90    89    1
   133    90    92   ar
   134    85    80   am
   135   111   112    1
   136   156   155    1
   137   112   113    1
   138    75    76    1
   139    75    72    1
   140   142   143    1
   141    57    58    1
   142    73    72    1
   143    63    65   ar
   144    63    62   ar
   145    99   100    1
   146    72    71    1
   147    65    66   ar
   148   147   146    1
   149   146   143    1
   150    80    79    1
   151    80    81    2
   152   154   152    1
   153   143   144    1
   154    79    82    1
   155    79    78    1
   156    82    83    1
   157    58    61    1
   158    58    59    1
   159    61    62    1
   160    62    64   ar
   161   153   152    1
   162    66    64   ar
   163    66    68   ar
   164   152   149    1
   165   144   145    2
   166    78    84    1
   167    64    67   ar
   168    59    60    2
   169    83    84    1
   170    68    70   ar
   171   149   148    1
   172   149   150    1
   173    67    69   ar
   174    70    69   ar
   175   150   151    2
