@<TRIPOS>MOLECULE
tmp/6mdnF00.pdb
 164 160 0 0 0
SMALL
GASTEIGER

@<TRIPOS>ATOM
      1  N        155.2030  115.1670  198.1240 N.3   213  TYR213     -0.1241
      2  CA       154.7470  115.8250  199.3400 C.3   213  TYR213      0.1605
      3  C        155.0610  114.9830  200.5590 C.2   213  TYR213      0.2264
      4  O        155.3210  115.5210  201.6400 O.2   213  TYR213     -0.2867
      5  CB       153.2670  116.1350  199.2120 C.3   213  TYR213      0.0534
      6  CG       153.0780  117.1750  198.1590 C.ar  213  TYR213     -0.0201
      7  CD1      153.2740  118.5090  198.4540 C.ar  213  TYR213     -0.0009
      8  CD2      152.7900  116.8310  196.8600 C.ar  213  TYR213     -0.0009
      9  CE1      153.1340  119.4800  197.5000 C.ar  213  TYR213      0.0417
     10  CE2      152.6540  117.8000  195.8860 C.ar  213  TYR213      0.0417
     11  CZ       152.8370  119.1230  196.2120 C.ar  213  TYR213      0.1957
     12  OH       152.7050  120.0930  195.2480 O.3   213  TYR213     -0.2866
     13  N        157.9650  112.6450  201.5550 N.3   215  MET215     -0.1230
     14  CA       159.2750  112.1770  201.1480 C.3   215  MET215      0.1702
     15  C        159.6260  110.8910  201.8630 C.2   215  MET215      0.2592
     16  O        160.2400  109.9980  201.2710 O.2   215  MET215     -0.2718
     17  CB       160.2990  113.2600  201.4530 C.3   215  MET215      0.0401
     18  CG       161.7250  112.9720  201.0460 C.3   215  MET215      0.0596
     19  SD       162.6690  111.9660  202.1990 S.3   215  MET215     -0.1393
     20  CE       162.8710  113.1800  203.4890 C.3   215  MET215      0.0692
     21  N        159.2480  110.7900  203.1270 N.am  216  ASN216     -0.1960
     22  CA       159.4220  109.5880  203.9160 C.3   216  ASN216      0.1819
     23  C        158.0510  109.0320  204.2100 C.2   216  ASN216      0.2622
     24  O        157.1680  109.7790  204.6440 O.2   216  ASN216     -0.2715
     25  CB       160.1040  109.8830  205.2370 C.3   216  ASN216      0.1195
     26  CG       161.5270  110.2620  205.0700 C.2   216  ASN216      0.2630
     27  OD1      162.2570  109.6720  204.2780 O.2   216  ASN216     -0.2716
     28  ND2      161.9360  111.2820  205.7980 N.am  216  ASN216     -0.0877
     29  N        157.8620  107.7390  203.9860 N.am  217  GLY217     -0.1940
     30  CA       156.6690  107.1140  204.5100 C.3   217  GLY217      0.2014
     31  C        156.6700  107.2780  206.0150 C.2   217  GLY217      0.2639
     32  O        157.7160  107.1970  206.6630 O.2   217  GLY217     -0.2714
     33  N        155.5040  107.5460  206.5750 N.am  218  ILE218     -0.1963
     34  CA       155.4630  107.8170  207.9970 C.3   218  ILE218      0.1727
     35  C        155.7860  106.5450  208.7420 C.2   218  ILE218      0.2616
     36  O        155.4060  105.4400  208.3400 O.2   218  ILE218     -0.2715
     37  CB       154.1660  108.4840  208.4610 C.3   218  ILE218      0.0290
     38  CG1      152.9530  107.5980  208.1970 C.3   218  ILE218      0.0022
     39  CG2      154.0990  109.8410  207.8340 C.3   218  ILE218      0.0023
     40  CD1      151.6890  108.1030  208.8370 C.3   218  ILE218      0.0001
     41  N        156.5180  106.7120  209.8120 N.am  219  ILE219     -0.1977
     42  CA       156.8940  105.6450  210.7140 C.3   219  ILE219      0.1596
     43  C        156.0270  105.7400  211.9500 C.2   219  ILE219      0.2287
     44  O        155.7540  106.8330  212.4600 O.2   219  ILE219     -0.2864
     45  CB       158.3930  105.7250  211.0440 C.3   219  ILE219      0.0276
     46  CG1      158.7320  107.0500  211.7490 C.3   219  ILE219      0.0022
     47  CG2      159.1830  105.5550  209.7640 C.3   219  ILE219      0.0022
     48  CD1      160.1150  107.1110  212.3040 C.3   219  ILE219      0.0001
     49  N        155.8290  105.6660  215.4580 N.3   221  TRP221     -0.1241
     50  CA       156.5910  105.9160  216.6500 C.3   221  TRP221      0.1605
     51  C        155.7480  105.8380  217.8970 C.2   221  TRP221      0.2264
     52  O        156.3060  105.7760  218.9960 O.2   221  TRP221     -0.2867
     53  CB       157.2490  107.2930  216.5740 C.3   221  TRP221      0.0550
     54  CG       156.2770  108.4220  216.4190 C.ar  221  TRP221      0.0003
     55  CD1      155.8480  108.9350  215.2340 C.ar  221  TRP221      0.0946
     56  CD2      155.5280  109.0940  217.4370 C.ar  221  TRP221      0.0152
     57  NE1      154.9310  109.9230  215.4460 N.ar  221  TRP221     -0.2442
     58  CE2      154.7060  110.0360  216.7910 C.ar  221  TRP221      0.0810
     59  CE3      155.4920  109.0180  218.8280 C.ar  221  TRP221      0.0012
     60  CZ2      153.8600  110.8910  217.4890 C.ar  221  TRP221      0.0191
     61  CZ3      154.6520  109.8750  219.5150 C.ar  221  TRP221      0.0001
     62  CH2      153.8460  110.7900  218.8460 C.ar  221  TRP221      0.0015
     63  N        150.0790  107.9020  216.6660 N.3   225  VAL225     -0.1245
     64  CA       150.0390  107.7700  215.2220 C.3   225  VAL225      0.1561
     65  C        148.8620  106.8890  214.8350 C.2   225  VAL225      0.2260
     66  O        148.0370  107.2520  213.9870 O.2   225  VAL225     -0.2867
     67  CB       151.3680  107.1790  214.7250 C.3   225  VAL225      0.0252
     68  CG1      151.3590  106.9280  213.2240 C.3   225  VAL225      0.0019
     69  CG2      152.5360  108.0440  215.1200 C.3   225  VAL225      0.0019
     70  N        153.7770  123.2110  214.8460 N.3   256  PRO256     -0.2102
     71  CA       154.6100  123.1540  213.6570 C.3   256  PRO256      0.1504
     72  C        155.7280  122.1550  213.7640 C.2   256  PRO256      0.2576
     73  O        156.1260  121.7190  214.8420 O.2   256  PRO256     -0.2718
     74  CB       155.1940  124.5550  213.5810 C.3   256  PRO256      0.0282
     75  CG       155.2010  124.9990  214.9430 C.3   256  PRO256      0.0208
     76  CD       154.0200  124.4390  215.6010 C.3   256  PRO256      0.0893
     77  N        156.2140  121.7840  212.5930 N.am  257  HIS257     -0.1962
     78  CA       157.2140  120.7560  212.4440 C.3   257  HIS257      0.1787
     79  C        156.7770  119.4400  213.0600 C.2   257  HIS257      0.2621
     80  O        157.6050  118.6310  213.4810 O.2   257  HIS257     -0.2715
     81  CB       158.5440  121.2320  213.0150 C.3   257  HIS257      0.0785
     82  CG       159.1560  122.3430  212.2290 C.ar  257  HIS257      0.0821
     83  ND1      160.2580  123.0440  212.6640 N.ar  257  HIS257     -0.2267
     84  CD2      158.8100  122.8830  211.0390 C.ar  257  HIS257      0.1154
     85  CE1      160.5710  123.9630  211.7700 C.ar  257  HIS257      0.1986
     86  NE2      159.7090  123.8860  210.7730 N.ar  257  HIS257     -0.2212
     87  N        155.4760  119.1920  213.0220 N.am  258  SER258     -0.1936
     88  CA       154.9250  117.8750  213.2620 C.3   258  SER258      0.2055
     89  C        154.2780  117.5690  211.9370 C.2   258  SER258      0.2644
     90  O        153.3230  118.2460  211.5430 O.2   258  SER258     -0.2714
     91  CB       153.9020  117.8770  214.3840 C.3   258  SER258      0.2130
     92  OG       153.3510  116.5900  214.5760 O.3   258  SER258     -0.2179
     93  N        154.8040  116.5650  211.2460 N.am  259  GLY259     -0.1939
     94  CA       154.2590  116.3270  209.9440 C.3   259  GLY259      0.2014
     95  C        152.8580  115.8420  210.0870 C.2   259  GLY259      0.2639
     96  O        152.5720  114.7390  210.5590 O.2   259  GLY259     -0.2714
     97  N        151.9790  116.7200  209.6630 N.am  260  LYS260     -0.1963
     98  CA       150.6150  116.4020  209.3590 C.3   260  LYS260      0.1728
     99  C        150.2260  116.6150  207.9150 C.2   260  LYS260      0.2617
    100  O        149.0820  116.3250  207.5570 O.2   260  LYS260     -0.2715
    101  CB       149.7720  117.2150  210.3270 C.3   260  LYS260      0.0311
    102  CG       149.9180  118.6960  210.1750 C.3   260  LYS260      0.0038
    103  CD       149.0930  119.3700  211.2350 C.3   260  LYS260      0.0206
    104  CE       149.1710  120.8640  211.1550 C.3   260  LYS260      0.1093
    105  NZ       150.5430  121.3270  211.5070 N.3   260  LYS260     -0.1314
    106  N        151.1440  117.0480  207.0650 N.am  261  THR261     -0.1937
    107  CA       150.7310  117.3070  205.6990 C.3   261  THR261      0.2028
    108  C        150.8220  116.0480  204.8620 C.2   261  THR261      0.2642
    109  O        149.9100  115.7250  204.0980 O.2   261  THR261     -0.2714
    110  CB       151.6530  118.3670  205.1200 C.3   261  THR261      0.1808
    111  OG1      151.5720  119.5490  205.9170 O.3   261  THR261     -0.2208
    112  CG2      151.2540  118.7470  203.7210 C.3   261  THR261      0.0379
    113  N        151.8980  115.3040  205.0800 N.am  262  ALA262     -0.1963
    114  CA       152.0950  113.9970  204.4780 C.3   262  ALA262      0.1728
    115  C        151.1600  113.0000  205.1190 C.2   262  ALA262      0.2616
    116  O        150.6810  112.0610  204.4740 O.2   262  ALA262     -0.2715
    117  CB       153.5460  113.5720  204.6130 C.3   262  ALA262      0.0334
    118  N        150.8810  113.2320  206.3920 N.am  263  LEU263     -0.1977
    119  CA       149.9740  112.4060  207.1580 C.3   263  LEU263      0.1596
    120  C        148.5890  112.4080  206.5430 C.2   263  LEU263      0.2287
    121  O        147.9380  111.3630  206.4150 O.2   263  LEU263     -0.2864
    122  CB       149.9200  113.0090  208.5410 C.3   263  LEU263      0.0297
    123  CG       149.2200  112.3620  209.7040 C.3   263  LEU263      0.0022
    124  CD1      149.8780  112.8430  210.9470 C.3   263  LEU263      0.0001
    125  CD2      147.7830  112.7140  209.7300 C.3   263  LEU263      0.0001
    126  N        148.0750  123.7050  205.2000 N.3   315  ASP315     -0.1239
    127  CA       148.8560  124.8570  205.6290 C.3   315  ASP315      0.1674
    128  C        148.0990  126.1470  205.3530 C.2   315  ASP315      0.2266
    129  O        148.6490  127.1450  204.8840 O.2   315  ASP315     -0.2867
    130  CB       150.2190  124.8380  204.9490 C.3   315  ASP315      0.1410
    131  CG       151.0920  123.7080  205.4350 C.2   315  ASP315      0.3668
    132  OD1      150.9430  123.2920  206.6000 O.co2 315  ASP315     -0.2456
    133  OD2      151.9140  123.2160  204.6370 O.co2 315  ASP315     -0.2456
    134  N        148.6540  124.9890  211.5170 N.3   358  SER358     -0.1217
    135  CA       149.6950  125.2280  212.5040 C.3   358  SER358      0.1889
    136  C        149.0930  125.7380  213.8060 C.2   358  SER358      0.2288
    137  O        149.3530  125.1860  214.8800 O.2   358  SER358     -0.2866
    138  CB       150.7060  126.2210  211.9730 C.3   358  SER358      0.2089
    139  OG       151.3730  125.6910  210.8480 O.3   358  SER358     -0.2183
    140  N        158.4980  116.1740  214.6790 N.3   418  ILE418     -0.1231
    141  CA       159.2770  115.2190  213.9070 C.3   418  ILE418      0.1692
    142  C        160.1620  115.8200  212.8400 C.2   418  ILE418      0.2591
    143  O        161.2470  115.3020  212.5610 O.2   418  ILE418     -0.2718
    144  CB       158.2690  114.2500  213.2740 C.3   418  ILE418      0.0266
    145  CG1      157.3940  113.5650  214.3290 C.3   418  ILE418      0.0019
    146  CG2      158.9060  113.2820  212.3250 C.3   418  ILE418      0.0020
    147  CD1      158.0950  112.9040  215.4520 C.3   418  ILE418      0.0001
    148  N        159.7430  116.9090  212.2420 N.am  419  LYS419     -0.1980
    149  CA       160.4600  117.4540  211.1020 C.3   419  LYS419      0.1596
    150  C        161.7990  118.0690  211.4920 C.2   419  LYS419      0.2287
    151  O        162.8460  117.7410  210.9050 O.2   419  LYS419     -0.2864
    152  CB       159.4870  118.4290  210.4490 C.3   419  LYS419      0.0298
    153  CG       159.7960  119.1420  209.1700 C.3   419  LYS419      0.0038
    154  CD       158.5030  119.9570  208.7880 C.3   419  LYS419      0.0206
    155  CE       158.5800  120.7910  207.5250 C.3   419  LYS419      0.1093
    156  NZ       157.2840  121.4880  207.3070 N.3   419  LYS419     -0.1314
    157  N        164.1270  115.1250  212.5230 N.3   422  LEU422     -0.1245
    158  CA       164.6320  114.3740  211.3990 C.3   422  LEU422      0.1561
    159  C        165.7110  115.1300  210.6690 C.2   422  LEU422      0.2260
    160  O        166.6020  114.5150  210.0780 O.2   422  LEU422     -0.2867
    161  CB       163.4680  114.0460  210.4940 C.3   422  LEU422      0.0270
    162  CG       163.6620  113.1150  209.3160 C.3   422  LEU422      0.0019
    163  CD1      162.3630  112.4710  209.0400 C.3   422  LEU422      0.0001
    164  CD2      164.1160  113.8320  208.0690 C.3   422  LEU422      0.0001
@<TRIPOS>BOND
     1    12    11    1
     2    10    11   ar
     3    10     8   ar
     4    11     9   ar
     5     8     6   ar
     6     9     7   ar
     7     1     2    1
     8     6     7   ar
     9     6     5    1
    10     5     2    1
    11     2     3    1
    12     3     4    2
    13    18    17    1
    14    18    19    1
    15    14    17    1
    16    14    13    1
    17    14    15    1
    18    16    15    2
    19    15    21   am
    20    19    20    1
    21    21    22    1
    22   112   110    1
    23    22    23    1
    24    22    25    1
    25    29    23   am
    26    29    30    1
    27   109   108    2
    28    23    24    2
    29    27    26    2
    30   116   115    2
    31   114   117    1
    32   114   113    1
    33   114   115    1
    34    30    31    1
    35   133   131   ar
    36   108   113   am
    37   108   107    1
    38   129   128    2
    39   130   131    1
    40   130   127    1
    41    26    25    1
    42    26    28   am
    43   115   118   am
    44   110   107    1
    45   110   111    1
    46   126   127    1
    47   128   127    1
    48   131   132   ar
    49   107   106    1
    50    31    33   am
    51    31    32    2
    52   118   119    1
    53   121   120    2
    54   120   119    1
    55    33    34    1
    56   106    99   am
    57   119   122    1
    58   156   155    1
    59   155   154    1
    60   100    99    2
    61    39    37    1
    62    99    98    1
    63    34    37    1
    64    34    35    1
    65   164   162    1
    66    38    37    1
    67    38    40    1
    68    36    35    2
    69   122   123    1
    70    35    41   am
    71   154   153    1
    72   163   162    1
    73   153   152    1
    74   162   161    1
    75    98    97    1
    76    98   101    1
    77    97    95   am
    78   123   125    1
    79   123   124    1
    80    47    45    1
    81    41    42    1
    82    94    95    1
    83    94    93    1
    84   160   159    2
    85    95    96    2
    86   102   101    1
    87   102   103    1
    88   152   149    1
    89   161   158    1
    90   159   158    1
    91    42    45    1
    92    42    43    1
    93    86    84   ar
    94    86    85   ar
    95   139   138    1
    96   151   150    2
    97    84    82   ar
    98    45    46    1
    99   149   150    1
   100   149   148    1
   101   104   103    1
   102   104   105    1
   103    93    89   am
   104   158   157    1
   105   134   135    1
   106    90    89    2
   107    46    48    1
   108    85    83   ar
   109    89    88    1
   110    43    44    2
   111   138   135    1
   112    82    83   ar
   113    82    81    1
   114   148   142   am
   115   146   144    1
   116    78    77    1
   117    78    81    1
   118    78    79    1
   119   135   136    1
   120   143   142    2
   121    77    72   am
   122   142   141    1
   123    87    79   am
   124    87    88    1
   125    79    80    2
   126    68    67    1
   127    88    91    1
   128   144   141    1
   129   144   145    1
   130    74    71    1
   131    74    75    1
   132    71    72    1
   133    71    70    1
   134    72    73    2
   135   136   137    2
   136   141   140    1
   137    66    65    2
   138   145   147    1
   139    91    92    1
   140    67    69    1
   141    67    64    1
   142    65    64    1
   143    70    76    1
   144    75    76    1
   145    64    63    1
   146    55    57   ar
   147    55    54   ar
   148    57    58   ar
   149    49    50    1
   150    54    53    1
   151    54    56   ar
   152    53    50    1
   153    50    51    1
   154    58    56   ar
   155    58    60   ar
   156    56    59   ar
   157    60    62   ar
   158    51    52    2
   159    59    61   ar
   160    62    61   ar
