@<TRIPOS>MOLECULE
tmp/6mdoE01.pdb
 137 128 0 0 0
SMALL
GASTEIGER

@<TRIPOS>ATOM
      1  N        186.5120  126.0230  165.2980 N.3     6  ILE6       -0.1245
      2  CA       185.9560  126.9460  166.2890 C.3     6  ILE6        0.1561
      3  C        186.6010  126.7400  167.6500 C.2     6  ILE6        0.2260
      4  O        187.0140  127.6970  168.3120 O.2     6  ILE6       -0.2867
      5  CB       184.4210  126.8460  166.3570 C.3     6  ILE6        0.0252
      6  CG1      183.9000  125.4450  166.7060 C.3     6  ILE6        0.0019
      7  CG2      183.8470  127.2880  165.0480 C.3     6  ILE6        0.0019
      8  CD1      182.4410  125.4100  167.0270 C.3     6  ILE6        0.0001
      9  N        184.8990  126.1490  170.1400 N.3     8  GLY8       -0.1225
     10  CA       184.0230  126.7360  171.1340 C.3     8  GLY8        0.1811
     11  C        183.5340  125.7370  172.1500 C.2     8  GLY8        0.2280
     12  O        183.6490  125.9540  173.3590 O.2     8  GLY8       -0.2866
     13  N        173.6960  136.3590  172.3940 N.3    39  PRO39      -0.2102
     14  CA       174.5270  137.2570  171.5710 C.3    39  PRO39       0.1504
     15  C        174.9220  136.6670  170.2280 C.2    39  PRO39       0.2576
     16  O        175.4240  137.4060  169.3750 O.2    39  PRO39      -0.2718
     17  CB       175.7610  137.4390  172.4480 C.3    39  PRO39       0.0282
     18  CG       175.9100  136.1470  173.0800 C.3    39  PRO39       0.0208
     19  CD       174.5460  135.5980  173.3230 C.3    39  PRO39       0.0893
     20  N        174.7240  135.3710  170.0760 N.am   40  GLY40      -0.1943
     21  CA       175.0610  134.5640  168.9340 C.3    40  GLY40       0.2014
     22  C        176.4080  133.8570  168.9970 C.2    40  GLY40       0.2639
     23  O        176.5070  132.7300  168.5170 O.2    40  GLY40      -0.2714
     24  N        177.4160  134.4310  169.6650 N.am   41  CYS41      -0.1953
     25  CA       178.5400  133.6990  170.2800 C.3    41  CYS41       0.1843
     26  C        179.1650  132.6340  169.3700 C.2    41  CYS41       0.2626
     27  O        179.3610  131.4870  169.7790 O.2    41  CYS41      -0.2714
     28  CB       178.1440  133.1010  171.6290 C.3    41  CYS41       0.0997
     29  SG       176.7690  131.9680  171.6470 S.3    41  CYS41      -0.0797
     30  N        179.4590  133.0050  168.1190 N.am   42  GLY42      -0.1940
     31  CA       180.1890  132.1160  167.2270 C.3    42  GLY42       0.2014
     32  C        179.4090  131.3350  166.1850 C.2    42  GLY42       0.2639
     33  O        179.9820  130.4080  165.6010 O.2    42  GLY42      -0.2714
     34  N        178.1250  131.6370  165.9670 N.am   43  LYS43      -0.1963
     35  CA       177.3570  130.9610  164.9190 C.3    43  LYS43       0.1728
     36  C        178.0820  130.9610  163.5870 C.2    43  LYS43       0.2617
     37  O        178.1180  129.9430  162.8790 O.2    43  LYS43      -0.2715
     38  CB       176.0230  131.6510  164.6660 C.3    43  LYS43       0.0311
     39  CG       175.2130  132.0410  165.8280 C.3    43  LYS43       0.0038
     40  CD       174.7760  130.8710  166.6060 C.3    43  LYS43       0.0206
     41  CE       173.8700  131.2410  167.7440 C.3    43  LYS43       0.1093
     42  NZ       172.6020  131.8490  167.2860 N.3    43  LYS43      -0.1314
     43  N        178.6490  132.1100  163.2290 N.am   44  THR44      -0.1937
     44  CA       179.1410  132.3200  161.8790 C.3    44  THR44       0.2028
     45  C        180.2520  131.3390  161.5480 C.2    44  THR44       0.2642
     46  O        180.2570  130.7390  160.4670 O.2    44  THR44      -0.2714
     47  CB       179.6110  133.7660  161.7440 C.3    44  THR44       0.1808
     48  OG1      178.5400  134.6440  162.1070 O.3    44  THR44      -0.2208
     49  CG2      180.0130  134.0760  160.3400 C.3    44  THR44       0.0379
     50  N        181.1900  131.1450  162.4750 N.am   45  LEU45      -0.1977
     51  CA       182.2880  130.2290  162.2100 C.3    45  LEU45       0.1596
     52  C        181.7770  128.8150  162.0680 C.2    45  LEU45       0.2287
     53  O        182.2440  128.0640  161.2120 O.2    45  LEU45      -0.2864
     54  CB       183.3210  130.2800  163.3130 C.3    45  LEU45       0.0297
     55  CG       183.9990  131.6120  163.5540 C.3    45  LEU45       0.0022
     56  CD1      184.9040  131.4170  164.7170 C.3    45  LEU45       0.0001
     57  CD2      184.7730  132.0990  162.3550 C.3    45  LEU45       0.0001
     58  N        179.9780  128.4880  158.6430 N.3    48  ARG48      -0.1245
     59  CA       180.9580  128.5920  157.5770 C.3    48  ARG48       0.1563
     60  C        181.8650  127.3760  157.5530 C.2    48  ARG48       0.2260
     61  O        182.2470  126.9110  156.4780 O.2    48  ARG48      -0.2867
     62  CB       181.7860  129.8620  157.7510 C.3    48  ARG48       0.0307
     63  CG       182.7920  130.0940  156.6520 C.3    48  ARG48       0.0489
     64  CD       183.6370  131.3060  156.9090 C.3    48  ARG48       0.2205
     65  NE       182.8480  132.5360  156.9660 N.pl3  48  ARG48      -0.0865
     66  CZ       182.6590  133.3010  158.0380 C.cat  48  ARG48       0.5346
     67  NH1      183.1910  133.0230  159.2220 N.pl3  48  ARG48       0.1354
     68  NH2      181.9130  134.3830  157.9140 N.pl3  48  ARG48       0.1354
     69  N        168.6920  133.8840  160.4270 N.3   106  GLU106     -0.1245
     70  CA       167.7360  134.8690  160.9520 C.3   106  GLU106      0.1567
     71  C        166.2910  134.5320  160.5970 C.2   106  GLU106      0.2260
     72  O        165.5360  135.3320  160.0420 O.2   106  GLU106     -0.2867
     73  CB       168.1160  136.2840  160.5240 C.3   106  GLU106      0.0388
     74  CG       169.1650  136.9240  161.4430 C.3   106  GLU106      0.1160
     75  CD       170.5970  136.6690  161.0590 C.2   106  GLU106      0.3649
     76  OE1      170.8530  136.3000  159.9040 O.co2 106  GLU106     -0.2457
     77  OE2      171.4810  136.8460  161.9220 O.co2 106  GLU106     -0.2457
     78  N        170.1390  130.3180  162.3550 N.3   149  MET149     -0.1245
     79  CA       170.7120  131.1220  163.4170 C.3   149  MET149      0.1570
     80  C        169.6140  132.0220  163.9490 C.2   149  MET149      0.2261
     81  O        168.9320  132.6930  163.1690 O.2   149  MET149     -0.2867
     82  CB       171.8660  131.9670  162.9000 C.3   149  MET149      0.0387
     83  CG       173.0580  131.1830  162.4490 C.3   149  MET149      0.0595
     84  SD       174.3140  132.2800  161.7630 S.3   149  MET149     -0.1393
     85  CE       175.5600  131.1180  161.2210 C.3   149  MET149      0.0692
     86  N        169.1750  134.7820  167.2910 N.3   151  ASN151     -0.1240
     87  CA       169.6170  135.3880  168.5310 C.3   151  ASN151      0.1653
     88  C        168.5150  135.3600  169.5780 C.2   151  ASN151      0.2266
     89  O        168.8110  135.3230  170.7750 O.2   151  ASN151     -0.2867
     90  CB       170.0800  136.8150  168.2670 C.3   151  ASN151      0.1155
     91  CG       171.3100  136.8760  167.3630 C.2   151  ASN151      0.2627
     92  OD1      171.2440  137.3850  166.2440 O.2   151  ASN151     -0.2716
     93  ND2      172.4350  136.3550  167.8480 N.am  151  ASN151     -0.0877
     94  N        189.3010  128.9660  173.2620 N.3   183  ILE183     -0.1245
     95  CA       188.9440  130.1280  172.4400 C.3   183  ILE183      0.1561
     96  C        190.1610  131.0180  172.2670 C.2   183  ILE183      0.2260
     97  O        190.5580  131.3920  171.1530 O.2   183  ILE183     -0.2867
     98  CB       187.8050  130.9330  173.0970 C.3   183  ILE183      0.0252
     99  CG1      186.4990  130.1500  173.2400 C.3   183  ILE183      0.0019
    100  CG2      187.5350  132.2540  172.3820 C.3   183  ILE183      0.0019
    101  CD1      185.7560  129.7830  172.0050 C.3   183  ILE183      0.0001
    102  N        193.0820  129.3640  170.2640 N.3   186  ILE186     -0.1231
    103  CA       192.9750  129.3710  168.8100 C.3   186  ILE186      0.1692
    104  C        193.1550  130.7770  168.2570 C.2   186  ILE186      0.2592
    105  O        193.8050  130.9660  167.2220 O.2   186  ILE186     -0.2718
    106  CB       191.6460  128.7440  168.3470 C.3   186  ILE186      0.0266
    107  CG1      191.6180  128.6830  166.8260 C.3   186  ILE186      0.0019
    108  CG2      190.4580  129.4920  168.8450 C.3   186  ILE186      0.0020
    109  CD1      190.5590  127.8040  166.2850 C.3   186  ILE186      0.0001
    110  N        192.5830  131.7840  168.9190 N.am  187  HIS187     -0.1976
    111  CA       192.7650  133.1500  168.4390 C.3   187  HIS187      0.1656
    112  C        194.2230  133.5640  168.4460 C.2   187  HIS187      0.2291
    113  O        194.6430  134.3870  167.6250 O.2   187  HIS187     -0.2864
    114  CB       191.9380  134.0970  169.2700 C.3   187  HIS187      0.0771
    115  CG       190.4850  133.9390  169.0300 C.ar  187  HIS187      0.0820
    116  ND1      189.7310  132.9800  169.6650 N.ar  187  HIS187     -0.2267
    117  CD2      189.6510  134.5910  168.1930 C.ar  187  HIS187      0.1154
    118  CE1      188.4870  133.0620  169.2380 C.ar  187  HIS187      0.1986
    119  NE2      188.4110  134.0330  168.3500 N.ar  187  HIS187     -0.2212
    120  N        182.6320  134.2440  173.7760 N.3   215  GLY215     -0.1210
    121  CA       182.6430  134.3900  172.3390 C.3   215  GLY215      0.1956
    122  C        183.5240  135.4740  171.7720 C.2   215  GLY215      0.2611
    123  O        184.7410  135.4990  171.9640 O.2   215  GLY215     -0.2717
    124  N        182.8730  136.3850  171.0610 N.am  216  ALA216     -0.1979
    125  CA       183.5500  137.4970  170.4250 C.3   216  ALA216      0.1597
    126  C        184.1920  138.4630  171.4060 C.2   216  ALA216      0.2287
    127  O        185.1050  139.1930  171.0160 O.2   216  ALA216     -0.2864
    128  CB       182.5510  138.2550  169.5740 C.3   216  ALA216      0.0319
    129  N        187.7290  137.6280  171.6580 N.3   219  GLU219     -0.1245
    130  CA       188.3650  138.0670  170.4340 C.3   219  GLU219      0.1567
    131  C        188.6500  139.5540  170.4860 C.2   219  GLU219      0.2260
    132  O        189.7340  140.0000  170.1110 O.2   219  GLU219     -0.2867
    133  CB       187.4330  137.7400  169.2790 C.3   219  GLU219      0.0388
    134  CG       187.9990  137.8080  167.8860 C.3   219  GLU219      0.1160
    135  CD       187.9990  139.1880  167.2800 C.2   219  GLU219      0.3649
    136  OE1      187.2430  140.0750  167.7290 O.co2 219  GLU219     -0.2457
    137  OE2      188.7300  139.3570  166.2880 O.co2 219  GLU219     -0.2457
@<TRIPOS>BOND
     1    61    60    2
     2    63    64    1
     3    63    62    1
     4    64    65    1
     5    65    66    2
     6    60    59    1
     7    59    62    1
     8    59    58    1
     9    68    66    1
    10    66    67    1
    11    76    75   ar
    12    72    71    2
    13    49    47    1
    14    69    70    1
    15    46    45    2
    16    73    70    1
    17    73    74    1
    18    71    70    1
    19    75    74    1
    20    75    77   ar
    21    53    52    2
    22    85    84    1
    23    45    44    1
    24    45    50   am
    25    47    44    1
    26    47    48    1
    27    84    83    1
    28    44    43    1
    29    52    51    1
    30    51    50    1
    31    51    54    1
    32    78    79    1
    33    57    55    1
    34    83    82    1
    35    37    36    2
    36    82    79    1
    37    81    80    2
    38    43    36   am
    39    54    55    1
    40    79    80    1
    41    55    56    1
    42    36    35    1
    43    38    35    1
    44    38    39    1
    45    35    34    1
    46     7     5    1
    47     1     2    1
    48    33    32    2
    49    39    40    1
    50    34    32   am
    51    32    31    1
    52    92    91    2
    53   109   107    1
    54   137   135   ar
    55     2     5    1
    56     2     3    1
    57     5     6    1
    58    40    41    1
    59     6     8    1
    60   107   106    1
    61   105   104    2
    62    31    30    1
    63   135   136   ar
    64   135   134    1
    65    42    41    1
    66    86    87    1
    67    91    93   am
    68    91    90    1
    69   113   112    2
    70     3     4    2
    71   134   133    1
    72    30    26   am
    73   117   119   ar
    74   117   115   ar
    75   104   103    1
    76   104   110   am
    77    90    87    1
    78   106   103    1
    79   106   108    1
    80   119   118   ar
    81   111   112    1
    82   111   110    1
    83   111   114    1
    84    23    22    2
    85    87    88    1
    86   103   102    1
    87    21    22    1
    88    21    20    1
    89    22    24   am
    90   115   114    1
    91   115   116   ar
    92   118   116   ar
    93   133   130    1
    94    26    27    2
    95    26    25    1
    96    16    15    2
    97   128   125    1
    98    88    89    2
    99    24    25    1
   100    20    15   am
   101   132   131    2
   102     9    10    1
   103    15    14    1
   104    25    28    1
   105   125   124    1
   106   125   126    1
   107   130   131    1
   108   130   129    1
   109   127   126    2
   110   124   122   am
   111    10    11    1
   112    97    96    2
   113    14    13    1
   114    14    17    1
   115    28    29    1
   116   122   123    2
   117   122   121    1
   118   101    99    1
   119    11    12    2
   120    96    95    1
   121   121   120    1
   122   100    98    1
   123    13    19    1
   124    95    98    1
   125    95    94    1
   126    17    18    1
   127    18    19    1
   128    98    99    1
