@<TRIPOS>MOLECULE
tmp/6mdqA04.pdb
 140 129 0 0 0
SMALL
GASTEIGER

@<TRIPOS>ATOM
      1  N         56.8100   38.8850   74.4530 N.3    14  LYS14      -0.1231
      2  CA        56.7470   37.8700   73.4070 C.3    14  LYS14       0.1693
      3  C         55.5650   36.9240   73.5830 C.2    14  LYS14       0.2592
      4  O         54.7740   36.7410   72.6580 O.2    14  LYS14      -0.2718
      5  CB        58.0660   37.1060   73.3340 C.3    14  LYS14       0.0285
      6  CG        59.1690   37.9550   72.7290 C.3    14  LYS14       0.0035
      7  CD        60.4160   37.1520   72.4070 C.3    14  LYS14       0.0206
      8  CE        61.3520   37.9350   71.4990 C.3    14  LYS14       0.1093
      9  NZ        60.7930   38.1490   70.1310 N.3    14  LYS14      -0.1314
     10  N         55.4300   36.3380   74.7650 N.am   15  HIS15      -0.1976
     11  CA        54.3060   35.4470   75.0240 C.3    15  HIS15       0.1656
     12  C         52.9820   36.1990   75.0800 C.2    15  HIS15       0.2291
     13  O         51.9550   35.6790   74.6440 O.2    15  HIS15      -0.2864
     14  CB        54.5360   34.6260   76.2920 C.3    15  HIS15       0.0771
     15  CG        55.5750   33.5630   76.1240 C.ar   15  HIS15       0.0820
     16  ND1       56.0450   32.8020   77.1720 N.ar   15  HIS15      -0.2267
     17  CD2       56.2470   33.1460   75.0250 C.ar   15  HIS15       0.1154
     18  CE1       56.9530   31.9530   76.7230 C.ar   15  HIS15       0.1986
     19  NE2       57.0940   32.1420   75.4230 N.ar   15  HIS15      -0.2212
     20  N         52.1360   38.8710   73.2850 N.3    17  LYS17      -0.1231
     21  CA        51.7440   39.0710   71.8880 C.3    17  LYS17       0.1693
     22  C         51.2810   37.7830   71.2100 C.2    17  LYS17       0.2592
     23  O         50.2890   37.7880   70.4790 O.2    17  LYS17      -0.2718
     24  CB        52.8930   39.6860   71.0890 C.3    17  LYS17       0.0285
     25  CG        52.9730   41.1950   71.2160 C.3    17  LYS17       0.0035
     26  CD        54.2340   41.7420   70.5700 C.3    17  LYS17       0.0206
     27  CE        54.0470   43.1780   70.1150 C.3    17  LYS17       0.1093
     28  NZ        53.4370   43.2560   68.7630 N.3    17  LYS17      -0.1314
     29  N         52.0040   36.6920   71.4470 N.am   18  GLY18      -0.1957
     30  CA        51.6560   35.4000   70.8650 C.3    18  GLY18       0.1869
     31  C         50.2660   34.9510   71.2750 C.2    18  GLY18       0.2309
     32  O         49.4590   34.5650   70.4320 O.2    18  GLY18      -0.2863
     33  N         47.5850   37.2030   69.7820 N.3    21  LEU21      -0.1245
     34  CA        47.4000   36.8450   68.3780 C.3    21  LEU21       0.1561
     35  C         46.5470   35.5870   68.2440 C.2    21  LEU21       0.2260
     36  O         45.6290   35.5310   67.4210 O.2    21  LEU21      -0.2867
     37  CB        48.7430   36.6260   67.6810 C.3    21  LEU21       0.0270
     38  CG        48.6490   36.1250   66.2340 C.3    21  LEU21       0.0019
     39  CD1       47.8200   37.0640   65.3700 C.3    21  LEU21       0.0001
     40  CD2       50.0370   35.9390   65.6430 C.3    21  LEU21       0.0001
     41  N         46.0480   37.6990   58.0320 N.3    33  PHE33      -0.1241
     42  CA        47.1250   37.7630   59.0240 C.3    33  PHE33       0.1605
     43  C         47.5410   39.1930   59.3840 C.2    33  PHE33       0.2264
     44  O         47.7810   39.4940   60.5540 O.2    33  PHE33      -0.2867
     45  CB        48.3410   36.9760   58.5260 C.3    33  PHE33       0.0534
     46  CG        49.5300   37.0530   59.4410 C.ar   33  PHE33      -0.0203
     47  CD1       49.4680   36.5260   60.7230 C.ar   33  PHE33      -0.0042
     48  CD2       50.7130   37.6450   59.0190 C.ar   33  PHE33      -0.0042
     49  CE1       50.5610   36.5940   61.5710 C.ar   33  PHE33      -0.0003
     50  CE2       51.8090   37.7160   59.8620 C.ar   33  PHE33      -0.0003
     51  CZ        51.7340   37.1890   61.1390 C.ar   33  PHE33      -0.0000
     52  N         47.6540   41.1420   63.1960 N.3    37  VAL37      -0.1245
     53  CA        48.9410   41.6850   63.6470 C.3    37  VAL37       0.1561
     54  C         48.8000   43.1350   64.1140 C.2    37  VAL37       0.2260
     55  O         49.3390   43.5090   65.1550 O.2    37  VAL37      -0.2867
     56  CB        50.0140   41.5850   62.5330 C.3    37  VAL37       0.0252
     57  CG1       51.2040   42.4980   62.8080 C.3    37  VAL37       0.0019
     58  CG2       50.4870   40.1470   62.3840 C.3    37  VAL37       0.0019
     59  N         47.0310   43.2300   67.4590 N.3    40  VAL40      -0.1231
     60  CA        47.9510   42.7420   68.4880 C.3    40  VAL40       0.1692
     61  C         48.8850   43.8680   68.9300 C.2    40  VAL40       0.2592
     62  O         49.0520   44.1110   70.1260 O.2    40  VAL40      -0.2718
     63  CB        48.7880   41.5430   67.9840 C.3    40  VAL40       0.0266
     64  CG1       49.9180   41.2170   68.9520 C.3    40  VAL40       0.0020
     65  CG2       47.9050   40.3190   67.7830 C.3    40  VAL40       0.0020
     66  N         49.4900   44.5420   67.9540 N.am   41  ASN41      -0.1974
     67  CA        50.4000   45.6580   68.2210 C.3    41  ASN41       0.1688
     68  C         49.6950   46.7860   68.9690 C.2    41  ASN41       0.2292
     69  O         50.2370   47.3290   69.9300 O.2    41  ASN41      -0.2864
     70  CB        51.0000   46.1920   66.9150 C.3    41  ASN41       0.1181
     71  CG        51.9190   45.1910   66.2370 C.2    41  ASN41       0.2629
     72  OD1       52.4170   44.2580   66.8650 O.2    41  ASN41      -0.2716
     73  ND2       52.1520   45.3840   64.9440 N.am   41  ASN41      -0.0877
     74  N         59.8450   36.2860   62.7990 N.3   128  ASP128     -0.1239
     75  CA        58.7220   36.6760   63.6610 C.3   128  ASP128      0.1674
     76  C         57.4060   36.6500   62.8900 C.2   128  ASP128      0.2266
     77  O         56.3910   36.1640   63.3940 O.2   128  ASP128     -0.2867
     78  CB        58.9460   38.0720   64.2570 C.3   128  ASP128      0.1410
     79  CG        60.0910   38.1110   65.2600 C.2   128  ASP128      0.3668
     80  OD1       60.8080   37.0970   65.4040 O.co2 128  ASP128     -0.2456
     81  OD2       60.2760   39.1650   65.9050 O.co2 128  ASP128     -0.2456
     82  N         56.7240   32.6970   62.0560 N.3   131  LEU131     -0.1231
     83  CA        56.2220   31.9410   63.2060 C.3   131  LEU131      0.1693
     84  C         54.8510   32.4530   63.6410 C.2   131  LEU131      0.2592
     85  O         53.9890   31.6700   64.0450 O.2   131  LEU131     -0.2718
     86  CB        57.2020   32.0180   64.3790 C.3   131  LEU131      0.0284
     87  CG        58.6160   31.4730   64.1480 C.3   131  LEU131      0.0019
     88  CD1       59.4760   31.6950   65.3830 C.3   131  LEU131      0.0001
     89  CD2       58.5980   30.0000   63.7680 C.3   131  LEU131      0.0001
     90  N         54.6570   33.7670   63.5570 N.am  132  GLY132     -0.1957
     91  CA        53.3640   34.3850   63.8530 C.3   132  GLY132      0.1869
     92  C         52.2820   33.9350   62.8970 C.2   132  GLY132      0.2309
     93  O         51.1380   33.7160   63.3000 O.2   132  GLY132     -0.2863
     94  N         51.1140   30.4270   64.0510 N.3   135  LEU135     -0.1245
     95  CA        50.1650   30.5500   65.1640 C.3   135  LEU135      0.1561
     96  C         48.7830   30.9190   64.6440 C.2   135  LEU135      0.2260
     97  O         47.7800   30.3320   65.0440 O.2   135  LEU135     -0.2867
     98  CB        50.6080   31.6340   66.1510 C.3   135  LEU135      0.0270
     99  CG        51.8860   31.4300   66.9640 C.3   135  LEU135      0.0019
    100  CD1       52.1960   32.7020   67.7350 C.3   135  LEU135      0.0001
    101  CD2       51.7580   30.2460   67.9100 C.3   135  LEU135      0.0001
    102  N         51.9130   27.9470   71.4900 N.3   151  LEU151     -0.1245
    103  CA        53.2220   28.6040   71.5200 C.3   151  LEU151      0.1561
    104  C         54.3440   27.5730   71.6010 C.2   151  LEU151      0.2260
    105  O         55.3950   27.7490   70.9850 O.2   151  LEU151     -0.2867
    106  CB        53.3430   29.5640   72.7080 C.3   151  LEU151      0.0270
    107  CG        52.3170   30.6910   72.8590 C.3   151  LEU151      0.0019
    108  CD1       52.7960   31.6630   73.9260 C.3   151  LEU151      0.0001
    109  CD2       52.0620   31.4230   71.5500 C.3   151  LEU151      0.0001
    110  N         54.7620   26.1560   68.1430 N.3   154  ALA154     -0.1231
    111  CA        55.4270   27.1440   67.2930 C.3   154  ALA154      0.1694
    112  C         56.9490   27.0810   67.4430 C.2   154  ALA154      0.2591
    113  O         57.6790   27.3470   66.4870 O.2   154  ALA154     -0.2718
    114  CB        54.9220   28.5430   67.6090 C.3   154  ALA154      0.0304
    115  N         57.4200   26.7360   68.6420 N.am  155  GLU155     -0.1979
    116  CA        58.8550   26.5550   68.8970 C.3   155  GLU155      0.1602
    117  C         59.3990   25.2940   68.2250 C.2   155  GLU155      0.2287
    118  O         60.5170   25.2970   67.7080 O.2   155  GLU155     -0.2864
    119  CB        59.1470   26.5140   70.4010 C.3   155  GLU155      0.0415
    120  CG        59.0160   27.8640   71.0890 C.3   155  GLU155      0.1163
    121  CD        59.5240   27.8560   72.5180 C.2   155  GLU155      0.3649
    122  OE1       59.3740   26.8240   73.2060 O.co2 155  GLU155     -0.2457
    123  OE2       60.0690   28.8910   72.9590 O.co2 155  GLU155     -0.2457
    124  N         59.5780   26.1580   64.6800 N.3   158  LYS158     -0.1245
    125  CA        60.7910   26.9520   64.4630 C.3   158  LYS158      0.1561
    126  C         62.0450   26.0760   64.3800 C.2   158  LYS158      0.2260
    127  O         62.8870   26.2770   63.5050 O.2   158  LYS158     -0.2867
    128  CB        60.9670   27.9860   65.5800 C.3   158  LYS158      0.0271
    129  CG        62.1140   28.9630   65.3520 C.3   158  LYS158      0.0035
    130  CD        62.3750   29.8280   66.5740 C.3   158  LYS158      0.0206
    131  CE        63.5240   30.7940   66.3280 C.3   158  LYS158      0.1093
    132  NZ        63.6810   31.7780   67.4340 N.3   158  LYS158     -0.1314
    133  N         57.6070   26.8100   78.6210 N.3   280  LEU280     -0.1245
    134  CA        56.6710   26.1170   77.7290 C.3   280  LEU280      0.1561
    135  C         56.9580   24.6170   77.6540 C.2   280  LEU280      0.2260
    136  O         56.0330   23.8050   77.6440 O.2   280  LEU280     -0.2867
    137  CB        56.7030   26.7260   76.3230 C.3   280  LEU280      0.0270
    138  CG        56.1300   28.1400   76.1680 C.3   280  LEU280      0.0019
    139  CD1       56.4450   28.6880   74.7840 C.3   280  LEU280      0.0001
    140  CD2       54.6300   28.1650   76.4170 C.3   280  LEU280      0.0001
@<TRIPOS>BOND
     1    41    42    1
     2    45    42    1
     3    45    46    1
     4    48    46   ar
     5    48    50   ar
     6    42    43    1
     7    43    44    2
     8    46    47   ar
     9    50    51   ar
    10    47    49   ar
    11    51    49   ar
    12    82    83    1
    13    58    56    1
    14    56    57    1
    15    56    53    1
    16    74    75    1
    17    76    77    2
    18    76    75    1
    19    92    93    2
    20    92    91    1
    21    52    53    1
    22    83    84    1
    23    83    86    1
    24   127   126    2
    25    90    84   am
    26    90    91    1
    27    84    85    2
    28    53    54    1
    29    75    78    1
    30    89    87    1
    31    94    95    1
    32    54    55    2
    33    87    86    1
    34    87    88    1
    35    78    79    1
    36   126   125    1
    37   125   124    1
    38   125   128    1
    39    96    97    2
    40    96    95    1
    41    73    71   am
    42    95    98    1
    43    79    80   ar
    44    79    81   ar
    45   129   128    1
    46   129   130    1
    47    39    38    1
    48    40    38    1
    49    98    99    1
    50    38    37    1
    51    71    72    2
    52    71    70    1
    53   131   130    1
    54   131   132    1
    55   113   112    2
    56    70    67    1
    57    99   100    1
    58    99   101    1
    59   111   112    1
    60   111   114    1
    61   111   110    1
    62    36    35    2
    63   112   115   am
    64    59    60    1
    65    37    34    1
    66   118   117    2
    67    65    63    1
    68    66    67    1
    69    66    61   am
    70    63    60    1
    71    63    64    1
    72    67    68    1
    73   117   116    1
    74    35    34    1
    75    34    33    1
    76    60    61    1
    77   115   116    1
    78    28    27    1
    79   116   119    1
    80    61    62    2
    81    68    69    2
    82    27    26    1
    83     9     8    1
    84   119   120    1
    85    32    31    2
    86    23    22    2
    87    26    25    1
    88    30    31    1
    89    30    29    1
    90   105   104    2
    91    24    25    1
    92    24    21    1
    93   120   121    1
    94    22    29   am
    95    22    21    1
    96   102   103    1
    97     8     7    1
    98   103   104    1
    99   103   106    1
   100   109   107    1
   101    21    20    1
   102     7     6    1
   103   121   123   ar
   104   121   122   ar
   105     4     3    2
   106   106   107    1
   107     6     5    1
   108   107   108    1
   109     5     2    1
   110     2     3    1
   111     2     1    1
   112     3    10   am
   113    13    12    2
   114    10    11    1
   115   139   138    1
   116    11    12    1
   117    11    14    1
   118    17    19   ar
   119    17    15   ar
   120    19    18   ar
   121    15    14    1
   122    15    16   ar
   123   138   137    1
   124   138   140    1
   125   137   134    1
   126    18    16   ar
   127   136   135    2
   128   135   134    1
   129   134   133    1
