@<TRIPOS>MOLECULE
tmp/6mdqA02.pdb
 141 132 0 0 0
SMALL
GASTEIGER

@<TRIPOS>ATOM
      1  N         45.9220   15.8050   67.5350 N.3   187  LEU187     -0.1245
      2  CA        45.6870   15.1610   68.8290 C.3   187  LEU187      0.1561
      3  C         45.4910   16.1930   69.9420 C.2   187  LEU187      0.2260
      4  O         44.5340   16.1100   70.7150 O.2   187  LEU187     -0.2867
      5  CB        46.8510   14.2280   69.1850 C.3   187  LEU187      0.0270
      6  CG        46.8070   13.5420   70.5580 C.3   187  LEU187      0.0019
      7  CD1       45.5620   12.6810   70.7140 C.3   187  LEU187      0.0001
      8  CD2       48.0580   12.7040   70.7700 C.3   187  LEU187      0.0001
      9  N         42.1470   16.8280   72.2090 N.3   191  LYS191     -0.1245
     10  CA        42.1860   16.7090   73.6710 C.3   191  LYS191      0.1561
     11  C         41.6210   17.9410   74.3700 C.2   191  LYS191      0.2260
     12  O         40.8280   17.8220   75.3070 O.2   191  LYS191     -0.2867
     13  CB        43.6200   16.4700   74.1560 C.3   191  LYS191      0.0271
     14  CG        44.1230   15.0520   73.9350 C.3   191  LYS191      0.0035
     15  CD        45.6010   14.9050   74.2700 C.3   191  LYS191      0.0206
     16  CE        45.9260   15.4150   75.6660 C.3   191  LYS191      0.1093
     17  NZ        47.1860   14.8330   76.2020 N.3   191  LYS191     -0.1314
     18  N         37.8340   18.9230   76.6100 N.3   195  LYS195     -0.1245
     19  CA        37.7580   19.6520   77.8730 C.3   195  LYS195      0.1561
     20  C         36.7690   20.8110   77.7710 C.2   195  LYS195      0.2260
     21  O         35.9270   20.9900   78.6520 O.2   195  LYS195     -0.2867
     22  CB        39.1400   20.1620   78.2970 C.3   195  LYS195      0.0271
     23  CG        40.1250   19.0490   78.6140 C.3   195  LYS195      0.0035
     24  CD        41.4600   19.5910   79.1030 C.3   195  LYS195      0.0206
     25  CE        42.5550   18.5370   79.0180 C.3   195  LYS195      0.1093
     26  NZ        42.2530   17.3180   79.8170 N.3   195  LYS195     -0.1314
     27  N         36.8390   13.9250   85.5810 N.3   210  TRP210     -0.1241
     28  CA        37.7630   13.4100   84.5720 C.3   210  TRP210      0.1605
     29  C         39.2120   13.6430   84.9980 C.2   210  TRP210      0.2264
     30  O         40.0540   12.7520   84.8850 O.2   210  TRP210     -0.2867
     31  CB        37.5000   14.0950   83.2260 C.3   210  TRP210      0.0550
     32  CG        38.1820   13.4510   82.0580 C.ar  210  TRP210      0.0003
     33  CD1       37.6220   12.5880   81.1640 C.ar  210  TRP210      0.0946
     34  CD2       39.5470   13.6240   81.6500 C.ar  210  TRP210      0.0152
     35  NE1       38.5530   12.2060   80.2280 N.ar  210  TRP210     -0.2442
     36  CE2       39.7420   12.8280   80.5020 C.ar  210  TRP210      0.0810
     37  CE3       40.6240   14.3730   82.1440 C.ar  210  TRP210      0.0012
     38  CZ2       40.9700   12.7570   79.8390 C.ar  210  TRP210      0.0191
     39  CZ3       41.8440   14.3040   81.4840 C.ar  210  TRP210      0.0001
     40  CH2       42.0070   13.4990   80.3440 C.ar  210  TRP210      0.0015
     41  N         42.3210   10.9630   85.8180 N.3   214  ARG214     -0.1245
     42  CA        43.5400   10.9650   85.0080 C.3   214  ARG214      0.1563
     43  C         44.7920   11.2770   85.8240 C.2   214  ARG214      0.2260
     44  O         45.8180   10.6110   85.6680 O.2   214  ARG214     -0.2867
     45  CB        43.4280   11.9510   83.8410 C.3   214  ARG214      0.0307
     46  CG        44.5420   11.8190   82.8070 C.3   214  ARG214      0.0489
     47  CD        44.3960   10.5540   81.9680 C.3   214  ARG214      0.2205
     48  NE        45.6210   10.2260   81.2350 N.pl3 214  ARG214     -0.0865
     49  CZ        46.5670    9.3750   81.6420 C.cat 214  ARG214      0.5346
     50  NH1       46.4680    8.7260   82.8000 N.pl3 214  ARG214      0.1354
     51  NH2       47.6310    9.1690   80.8750 N.pl3 214  ARG214      0.1354
     52  N         48.2570    9.1700   86.7640 N.3   218  LYS218     -0.1245
     53  CA        49.5810    9.7440   86.5080 C.3   218  LYS218      0.1561
     54  C         50.4340    9.8640   87.7680 C.2   218  LYS218      0.2260
     55  O         51.6290    9.5630   87.7350 O.2   218  LYS218     -0.2867
     56  CB        49.4500   11.1260   85.8600 C.3   218  LYS218      0.0271
     57  CG        49.0480   11.0980   84.3950 C.3   218  LYS218      0.0035
     58  CD        48.9330   12.5100   83.8420 C.3   218  LYS218      0.0206
     59  CE        48.7310   12.5220   82.3350 C.3   218  LYS218      0.1093
     60  NZ        49.9960   12.2740   81.5880 N.3   218  LYS218     -0.1314
     61  N         52.2580   17.9920   81.3910 N.3   287  ALA287     -0.1231
     62  CA        50.9540   17.6490   80.8220 C.3   287  ALA287      0.1694
     63  C         50.9490   16.2810   80.1370 C.2   287  ALA287      0.2591
     64  O         49.9300   15.5950   80.1410 O.2   287  ALA287     -0.2718
     65  CB        50.5090   18.7260   79.8420 C.3   287  ALA287      0.0304
     66  N         52.0840   15.8950   79.5540 N.am  288  GLU288     -0.1979
     67  CA        52.2170   14.6120   78.8560 C.3   288  GLU288      0.1602
     68  C         53.0700   13.6010   79.6290 C.2   288  GLU288      0.2287
     69  O         53.5450   12.6210   79.0530 O.2   288  GLU288     -0.2864
     70  CB        52.8280   14.8390   77.4670 C.3   288  GLU288      0.0415
     71  CG        51.9960   15.7320   76.5540 C.3   288  GLU288      0.1163
     72  CD        50.6270   15.1520   76.2390 C.2   288  GLU288      0.3649
     73  OE1       50.4980   13.9100   76.1710 O.co2 288  GLU288     -0.2457
     74  OE2       49.6760   15.9420   76.0550 O.co2 288  GLU288     -0.2457
     75  N         53.0900    7.9260   83.4880 N.3   291  GLU291     -0.1245
     76  CA        52.5100    7.5290   84.7660 C.3   291  GLU291      0.1567
     77  C         53.5840    6.9480   85.6820 C.2   291  GLU291      0.2260
     78  O         54.4280    6.1640   85.2460 O.2   291  GLU291     -0.2867
     79  CB        51.3920    6.5100   84.5430 C.3   291  GLU291      0.0388
     80  CG        50.1970    7.0830   83.7910 C.3   291  GLU291      0.1160
     81  CD        49.3750    6.0380   83.0610 C.2   291  GLU291      0.3649
     82  OE1       49.7560    4.8460   83.0620 O.co2 291  GLU291     -0.2457
     83  OE2       48.3380    6.4180   82.4780 O.co2 291  GLU291     -0.2457
     84  N         48.0610    3.3650   66.3950 N.3   432  ARG432     -0.1245
     85  CA        48.6760    3.9530   67.5810 C.3   432  ARG432      0.1563
     86  C         48.6620    3.0060   68.7820 C.2   432  ARG432      0.2260
     87  O         49.6890    2.8170   69.4370 O.2   432  ARG432     -0.2867
     88  CB        47.9550    5.2530   67.9510 C.3   432  ARG432      0.0307
     89  CG        48.6400    6.0620   69.0400 C.3   432  ARG432      0.0489
     90  CD        47.8030    7.2620   69.4480 C.3   432  ARG432      0.2205
     91  NE        48.4910    8.0870   70.4400 N.pl3 432  ARG432     -0.0865
     92  CZ        49.4500    8.9710   70.1650 C.cat 432  ARG432      0.5346
     93  NH1       49.8660    9.1670   68.9160 N.pl3 432  ARG432      0.1354
     94  NH2       50.0020    9.6660   71.1530 N.pl3 432  ARG432      0.1354
     95  N         51.0190   -1.1150   71.2160 N.3   436  LEU436     -0.1245
     96  CA        51.4930   -0.8620   72.5810 C.3   436  LEU436      0.1561
     97  C         51.5090   -2.1440   73.4150 C.2   436  LEU436      0.2260
     98  O         50.9000   -3.1450   73.0270 O.2   436  LEU436     -0.2867
     99  CB        50.5980    0.1710   73.2800 C.3   436  LEU436      0.0270
    100  CG        50.5500    1.5900   72.7080 C.3   436  LEU436      0.0019
    101  CD1       49.4440    2.3880   73.3830 C.3   436  LEU436      0.0001
    102  CD2       51.8870    2.2960   72.8680 C.3   436  LEU436      0.0001
    103  N         43.3830    1.7730   77.7830 N.3   443  PRO443     -0.2102
    104  CA        43.3880    3.2210   77.9840 C.3   443  PRO443      0.1504
    105  C         43.6470    4.0000   76.6980 C.2   443  PRO443      0.2576
    106  O         42.9390    4.9640   76.4280 O.2   443  PRO443     -0.2718
    107  CB        44.5140    3.4530   79.0070 C.3   443  PRO443      0.0282
    108  CG        45.2020    2.1440   79.1810 C.3   443  PRO443      0.0208
    109  CD        44.2400    1.0840   78.7590 C.3   443  PRO443      0.0893
    110  N         44.6280    3.5750   75.9040 N.am  444  CYS444     -0.1971
    111  CA        44.9410    4.2680   74.6520 C.3   444  CYS444      0.1712
    112  C         43.7330    4.2850   73.7230 C.2   444  CYS444      0.2296
    113  O         43.3700    5.3350   73.1950 O.2   444  CYS444     -0.2864
    114  CB        46.1430    3.6260   73.9430 C.3   444  CYS444      0.0983
    115  SG        46.6750    4.4600   72.4190 S.3   444  CYS444     -0.0798
    116  N         40.4640    6.2040   75.3950 N.3   447  ASN447     -0.1225
    117  CA        40.7360    7.6340   75.5570 C.3   447  ASN447      0.1785
    118  C         40.7540    8.3450   74.2040 C.2   447  ASN447      0.2597
    119  O         40.2080    9.4400   74.0780 O.2   447  ASN447     -0.2718
    120  CB        42.0410    7.8840   76.3260 C.3   447  ASN447      0.1169
    121  CG        41.9440    7.4950   77.7990 C.2   447  ASN447      0.2627
    122  OD1       40.8540    7.2870   78.3340 O.2   447  ASN447     -0.2716
    123  ND2       43.0930    7.3990   78.4610 N.am  447  ASN447     -0.0877
    124  N         41.3600    7.7220   73.1930 N.am  448  HIS448     -0.1975
    125  CA        41.3670    8.2970   71.8410 C.3   448  HIS448      0.1656
    126  C         39.9930    8.2300   71.1760 C.2   448  HIS448      0.2291
    127  O         39.6250    9.1190   70.4120 O.2   448  HIS448     -0.2864
    128  CB        42.4070    7.6170   70.9510 C.3   448  HIS448      0.0771
    129  CG        43.7940    8.1500   71.1350 C.ar  448  HIS448      0.0820
    130  ND1       44.6010    7.7810   72.1890 N.ar  448  HIS448     -0.2267
    131  CD2       44.5140    9.0270   70.3970 C.ar  448  HIS448      0.1154
    132  CE1       45.7590    8.4080   72.0930 C.ar  448  HIS448      0.1986
    133  NE2       45.7330    9.1690   71.0150 N.ar  448  HIS448     -0.2212
    134  N         37.9390   11.1520   72.1000 N.3   451  LEU451     -0.1245
    135  CA        38.3050   12.3480   71.3410 C.3   451  LEU451      0.1561
    136  C         37.6140   12.3760   69.9760 C.2   451  LEU451      0.2260
    137  O         37.0920   13.4110   69.5600 O.2   451  LEU451     -0.2867
    138  CB        39.8250   12.4280   71.1560 C.3   451  LEU451      0.0270
    139  CG        40.6920   12.4380   72.4180 C.3   451  LEU451      0.0019
    140  CD1       42.1600   12.5650   72.0410 C.3   451  LEU451      0.0001
    141  CD2       40.2880   13.5520   73.3690 C.3   451  LEU451      0.0001
@<TRIPOS>BOND
     1    84    85    1
     2     1     2    1
     3    85    88    1
     4    85    86    1
     5    88    89    1
     6    86    87    2
     7     2     5    1
     8     2     3    1
     9    93    92    1
    10    89    90    1
    11     5     6    1
    12    90    91    1
    13   137   136    2
    14     3     4    2
    15   136   135    1
    16    92    91    2
    17    92    94    1
    18   131   133   ar
    19   131   129   ar
    20   127   126    2
    21     6     7    1
    22     6     8    1
    23   128   129    1
    24   128   125    1
    25   133   132   ar
    26   129   130   ar
    27   138   135    1
    28   138   139    1
    29   126   125    1
    30    95    96    1
    31   135   134    1
    32   125   124    1
    33   140   139    1
    34   132   130   ar
    35     9    10    1
    36   139   141    1
    37   115   114    1
    38    96    99    1
    39    96    97    1
    40   100   102    1
    41   100    99    1
    42   100   101    1
    43    98    97    2
    44   124   118   am
    45   113   112    2
    46    10    13    1
    47    10    11    1
    48   112   111    1
    49    14    13    1
    50    14    15    1
    51   114   111    1
    52   119   118    2
    53   118   117    1
    54    15    16    1
    55    11    12    2
    56   111   110    1
    57   116   117    1
    58   117   120    1
    59    16    17    1
    60   110   105   am
    61    74    72   ar
    62    73    72   ar
    63    72    71    1
    64   120   121    1
    65   106   105    2
    66    71    70    1
    67    18    19    1
    68   105   104    1
    69    70    67    1
    70    20    19    1
    71    20    21    2
    72   103   104    1
    73   103   109    1
    74   121   122    2
    75   121   123   am
    76    19    22    1
    77   104   107    1
    78    22    23    1
    79    23    24    1
    80   109   108    1
    81    67    66    1
    82    67    68    1
    83   107   108    1
    84    25    24    1
    85    25    26    1
    86    69    68    2
    87    66    63   am
    88    38    40   ar
    89    38    36   ar
    90    65    62    1
    91    63    64    2
    92    63    62    1
    93    35    36   ar
    94    35    33   ar
    95    40    39   ar
    96    36    34   ar
    97    62    61    1
    98    51    49    1
    99    33    32   ar
   100    48    49    2
   101    48    47    1
   102    39    37   ar
   103    60    59    1
   104    49    50    1
   105    34    32   ar
   106    34    37   ar
   107    47    46    1
   108    32    31    1
   109    59    58    1
   110    83    81   ar
   111    46    45    1
   112    81    82   ar
   113    81    80    1
   114    31    28    1
   115    75    76    1
   116    80    79    1
   117    45    42    1
   118    58    57    1
   119    57    56    1
   120    79    76    1
   121    28    29    1
   122    28    27    1
   123    76    77    1
   124    30    29    2
   125    42    41    1
   126    42    43    1
   127    78    77    2
   128    44    43    2
   129    56    53    1
   130    53    52    1
   131    53    54    1
   132    55    54    2
