@<TRIPOS>MOLECULE
tmp/6mdqA03.pdb
 129 119 0 0 0
SMALL
GASTEIGER

@<TRIPOS>ATOM
      1  N         31.9780   20.3570   87.0410 N.3   205  ARG205     -0.1231
      2  CA        31.9170   19.1140   87.8130 C.3   205  ARG205      0.1694
      3  C         32.4690   17.9230   87.0170 C.2   205  ARG205      0.2591
      4  O         33.2460   17.1210   87.5380 O.2   205  ARG205     -0.2718
      5  CB        30.4620   18.8480   88.2150 C.3   205  ARG205      0.0321
      6  CG        30.2660   18.0560   89.4940 C.3   205  ARG205      0.0489
      7  CD        28.9040   18.3720   90.0950 C.3   205  ARG205      0.2205
      8  NE        28.5130   17.4340   91.1460 N.pl3 205  ARG205     -0.0865
      9  CZ        28.9240   17.4840   92.4140 C.cat 205  ARG205      0.5346
     10  NH1       29.7710   18.4240   92.8280 N.pl3 205  ARG205      0.1354
     11  NH2       28.4900   16.5690   93.2730 N.pl3 205  ARG205      0.1354
     12  N         32.0700   17.8280   85.7510 N.am  206  ALA206     -0.1980
     13  CA        32.5130   16.7460   84.8690 C.3   206  ALA206      0.1597
     14  C         34.0010   16.8390   84.5430 C.2   206  ALA206      0.2287
     15  O         34.6820   15.8180   84.4530 O.2   206  ALA206     -0.2864
     16  CB        31.6990   16.7490   83.5840 C.3   206  ALA206      0.0319
     17  N         36.3660   18.2460   86.4390 N.3   208  LYS208     -0.1231
     18  CA        37.1090   17.9010   87.6520 C.3   208  LYS208      0.1693
     19  C         37.1520   16.3900   87.8710 C.2   208  LYS208      0.2591
     20  O         38.1990   15.8410   88.2130 O.2   208  LYS208     -0.2718
     21  CB        36.5040   18.5960   88.8730 C.3   208  LYS208      0.0285
     22  CG        36.7820   20.0890   88.9110 C.3   208  LYS208      0.0035
     23  CD        36.1450   20.7590   90.1150 C.3   208  LYS208      0.0206
     24  CE        36.6370   22.1890   90.2600 C.3   208  LYS208      0.1093
     25  NZ        35.8680   22.9480   91.2840 N.3   208  LYS208     -0.1314
     26  N         36.0150   15.7300   87.6630 N.am  209  ALA209     -0.1980
     27  CA        35.9160   14.2730   87.7880 C.3   209  ALA209      0.1597
     28  C         36.9020   13.5720   86.8620 C.2   209  ALA209      0.2287
     29  O         37.6930   12.7350   87.2980 O.2   209  ALA209     -0.2864
     30  CB        34.4990   13.8160   87.4790 C.3   209  ALA209      0.0319
     31  N         40.4750   14.2770   88.0850 N.3   212  VAL212     -0.1245
     32  CA        40.8370   13.4900   89.2720 C.3   212  VAL212      0.1561
     33  C         41.2690   12.0810   88.8710 C.2   212  VAL212      0.2260
     34  O         42.2840   11.5780   89.3550 O.2   212  VAL212     -0.2867
     35  CB        39.6780   13.4110   90.2950 C.3   212  VAL212      0.0252
     36  CG1       39.9300   12.3310   91.3390 C.3   212  VAL212      0.0019
     37  CG2       39.4870   14.7540   90.9850 C.3   212  VAL212      0.0019
     38  N         45.5370   12.5580   98.1870 N.3   224  PHE224     -0.1241
     39  CA        44.2690   13.0630   97.6530 C.3   224  PHE224      0.1605
     40  C         44.2010   14.5900   97.7030 C.2   224  PHE224      0.2264
     41  O         43.7190   15.2220   96.7660 O.2   224  PHE224     -0.2867
     42  CB        43.0850   12.4650   98.4190 C.3   224  PHE224      0.0534
     43  CG        41.7430   12.9750   97.9610 C.ar  224  PHE224     -0.0203
     44  CD1       41.3050   12.7450   96.6640 C.ar  224  PHE224     -0.0042
     45  CD2       40.9160   13.6810   98.8270 C.ar  224  PHE224     -0.0042
     46  CE1       40.0710   13.2090   96.2370 C.ar  224  PHE224     -0.0003
     47  CE2       39.6800   14.1470   98.4060 C.ar  224  PHE224     -0.0003
     48  CZ        39.2570   13.9120   97.1090 C.ar  224  PHE224     -0.0000
     49  N         43.7230   16.8850   94.5270 N.3   228  SER228     -0.1217
     50  CA        42.5950   17.8230   94.5570 C.3   228  SER228      0.1889
     51  C         43.0620   19.2560   94.3180 C.2   228  SER228      0.2288
     52  O         42.4360   20.0070   93.5690 O.2   228  SER228     -0.2866
     53  CB        41.8650   17.7410   95.8980 C.3   228  SER228      0.2089
     54  OG        41.4050   16.4240   96.1520 O.3   228  SER228     -0.2183
     55  N         29.1010   13.6670  100.1640 N.3   319  LYS319     -0.1231
     56  CA        29.1120   12.8230   98.9710 C.3   319  LYS319      0.1693
     57  C         30.3100   13.1190   98.0690 C.2   319  LYS319      0.2592
     58  O         31.0360   12.2050   97.6740 O.2   319  LYS319     -0.2718
     59  CB        27.8120   13.0040   98.1810 C.3   319  LYS319      0.0285
     60  CG        27.6730   12.1230   96.9590 C.3   319  LYS319      0.0035
     61  CD        26.3250   12.1980   96.2780 C.3   319  LYS319      0.0206
     62  CE        25.9400   13.6210   95.9420 C.3   319  LYS319      0.1093
     63  NZ        25.1360   13.6760   94.6940 N.3   319  LYS319     -0.1314
     64  N         30.5100   14.4000   97.7600 N.am  320  ASP320     -0.1960
     65  CA        31.5960   14.8430   96.8760 C.3   320  ASP320      0.1840
     66  C         32.9630   14.3320   97.3220 C.2   320  ASP320      0.2621
     67  O         33.7230   13.7870   96.5180 O.2   320  ASP320     -0.2715
     68  CB        31.6430   16.3740   96.8090 C.3   320  ASP320      0.1450
     69  CG        30.4290   16.9740   96.1250 C.2   320  ASP320      0.3671
     70  OD1       29.4690   16.2290   95.8340 O.co2 320  ASP320     -0.2456
     71  OD2       30.4330   18.1980   95.8780 O.co2 320  ASP320     -0.2456
     72  N         33.2610   14.5100   98.6070 N.am  321  VAL321     -0.1977
     73  CA        34.5610   14.1420   99.1700 C.3   321  VAL321      0.1596
     74  C         34.7220   12.6220   99.2330 C.2   321  VAL321      0.2287
     75  O         35.7790   12.0940   98.8840 O.2   321  VAL321     -0.2864
     76  CB        34.7630   14.7490  100.5800 C.3   321  VAL321      0.0276
     77  CG1       36.1010   14.3240  101.1770 C.3   321  VAL321      0.0022
     78  CG2       34.6810   16.2700  100.5280 C.3   321  VAL321      0.0022
     79  N         33.0440   10.2140   97.4610 N.3   323  LEU323     -0.1231
     80  CA        33.1270    9.7030   96.0900 C.3   323  LEU323      0.1693
     81  C         34.4240   10.1360   95.4070 C.2   323  LEU323      0.2592
     82  O         35.0170    9.3710   94.6410 O.2   323  LEU323     -0.2718
     83  CB        31.9290   10.1760   95.2610 C.3   323  LEU323      0.0284
     84  CG        30.5390    9.6880   95.6790 C.3   323  LEU323      0.0019
     85  CD1       29.4780   10.4000   94.8530 C.3   323  LEU323      0.0001
     86  CD2       30.4040    8.1790   95.5360 C.3   323  LEU323      0.0001
     87  N         34.8490   11.3680   95.6790 N.am  324  GLY324     -0.1957
     88  CA        36.1200   11.8770   95.1750 C.3   324  GLY324      0.1869
     89  C         37.2950   11.0400   95.6430 C.2   324  GLY324      0.2309
     90  O         38.1860   10.7150   94.8560 O.2   324  GLY324     -0.2863
     91  N         37.2000    7.6300   93.7770 N.3   327  LEU327     -0.1245
     92  CA        37.6880    7.7910   92.4080 C.3   327  LEU327      0.1561
     93  C         39.2090    7.9170   92.3820 C.2   327  LEU327      0.2260
     94  O         39.8680    7.2860   91.5590 O.2   327  LEU327     -0.2867
     95  CB        37.0410    9.0120   91.7440 C.3   327  LEU327      0.0270
     96  CG        37.4080    9.2850   90.2800 C.3   327  LEU327      0.0019
     97  CD1       36.9960    8.1410   89.3630 C.3   327  LEU327      0.0001
     98  CD2       36.7740   10.5850   89.8150 C.3   327  LEU327      0.0001
     99  N         35.2610    6.6330   85.4180 N.3   343  LEU343     -0.1245
    100  CA        34.0930    7.4670   85.7000 C.3   343  LEU343      0.1561
    101  C         32.7930    6.6620   85.7120 C.2   343  LEU343      0.2260
    102  O         31.8830    6.9770   86.4770 O.2   343  LEU343     -0.2867
    103  CB        33.9940    8.6170   84.6960 C.3   343  LEU343      0.0270
    104  CG        35.1400    9.6330   84.7310 C.3   343  LEU343      0.0019
    105  CD1       34.9550   10.6640   83.6290 C.3   343  LEU343      0.0001
    106  CD2       35.2480   10.3170   86.0860 C.3   343  LEU343      0.0001
    107  N         32.9090    4.7730   89.0170 N.3   346  ALA346     -0.1231
    108  CA        32.5600    5.6970   90.0980 C.3   346  ALA346      0.1694
    109  C         31.0530    5.9460   90.1690 C.2   346  ALA346      0.2591
    110  O         30.4800    6.0000   91.2600 O.2   346  ALA346     -0.2718
    111  CB        33.3040    7.0130   89.9350 C.3   346  ALA346      0.0304
    112  N         30.4230    6.1030   89.0070 N.am  347  LYS347     -0.1980
    113  CA        28.9650    6.2500   88.9220 C.3   347  LYS347      0.1596
    114  C         28.2120    5.0060   89.4080 C.2   347  LYS347      0.2287
    115  O         27.1370    5.1220   89.9960 O.2   347  LYS347     -0.2864
    116  CB        28.5280    6.5880   87.4900 C.3   347  LYS347      0.0298
    117  CG        28.5720    8.0740   87.1600 C.3   347  LYS347      0.0038
    118  CD        27.9850    8.3680   85.7860 C.3   347  LYS347      0.0206
    119  CE        26.4630    8.2970   85.7860 C.3   347  LYS347      0.1093
    120  NZ        25.8890    8.5270   84.4310 N.3   347  LYS347     -0.1314
    121  N         28.5030    5.0320   93.2770 N.3   350  GLU350     -0.1245
    122  CA        27.5040    5.9950   93.7580 C.3   350  GLU350      0.1567
    123  C         26.0980    5.4060   93.7140 C.2   350  GLU350      0.2260
    124  O         25.3560    5.4880   94.6910 O.2   350  GLU350     -0.2867
    125  CB        27.5380    7.2730   92.9120 C.3   350  GLU350      0.0388
    126  CG        26.5840    8.3650   93.3880 C.3   350  GLU350      0.1160
    127  CD        26.5210    9.5630   92.4550 C.2   350  GLU350      0.3649
    128  OE1       26.9270    9.4430   91.2790 O.co2 350  GLU350     -0.2457
    129  OE2       26.0520   10.6320   92.8980 O.co2 350  GLU350     -0.2457
@<TRIPOS>BOND
     1    16    13    1
     2   105   104    1
     3   120   119    1
     4    15    14    2
     5    14    13    1
     6   103   104    1
     7   103   100    1
     8   104   106    1
     9    13    12    1
    10    99   100    1
    11   100   101    1
    12   101   102    2
    13    12     3   am
    14   119   118    1
    15   118   117    1
    16    17    18    1
    17    28    29    2
    18    28    27    1
    19     3     4    2
    20     3     2    1
    21     1     2    1
    22   117   116    1
    23    30    27    1
    24   116   113    1
    25    18    19    1
    26    18    21    1
    27    26    27    1
    28    26    19   am
    29     2     5    1
    30    19    20    2
    31    31    32    1
    32     5     6    1
    33    33    32    1
    34    33    34    2
    35    21    22    1
    36    22    23    1
    37   113   112    1
    38   113   114    1
    39   112   109   am
    40   107   108    1
    41    32    35    1
    42    97    96    1
    43   114   115    2
    44     6     7    1
    45    98    96    1
    46   111   108    1
    47     7     8    1
    48   108   109    1
    49    23    24    1
    50   109   110    2
    51    24    25    1
    52    96    95    1
    53    35    37    1
    54    35    36    1
    55     8     9    2
    56   128   127   ar
    57    94    93    2
    58    95    92    1
    59    93    92    1
    60    92    91    1
    61     9    10    1
    62     9    11    1
    63   127   129   ar
    64   127   126    1
    65   125   126    1
    66   125   122    1
    67   121   122    1
    68    52    51    2
    69   123   122    1
    70   123   124    2
    71    51    50    1
    72    49    50    1
    73    50    53    1
    74    82    81    2
    75    63    62    1
    76    85    84    1
    77    90    89    2
    78    88    89    1
    79    88    87    1
    80    83    84    1
    81    83    80    1
    82    81    87   am
    83    81    80    1
    84    86    84    1
    85    70    69   ar
    86    71    69   ar
    87    53    54    1
    88    62    61    1
    89    80    79    1
    90    69    68    1
    91    46    44   ar
    92    46    48   ar
    93    61    60    1
    94    67    66    2
    95    44    43   ar
    96    41    40    2
    97    68    65    1
    98    65    66    1
    99    65    64    1
   100    60    59    1
   101    48    47   ar
   102    66    72   am
   103    39    40    1
   104    39    38    1
   105    39    42    1
   106    58    57    2
   107    64    57   am
   108    43    42    1
   109    43    45   ar
   110    57    56    1
   111    59    56    1
   112    47    45   ar
   113    72    73    1
   114    75    74    2
   115    56    55    1
   116    73    74    1
   117    73    76    1
   118    78    76    1
   119    76    77    1
