@<TRIPOS>MOLECULE
tmp/6mdqA01.pdb
 96 93 0 0 0
SMALL
GASTEIGER

@<TRIPOS>ATOM
      1  N         33.8840   25.4910   64.5750 N.3   105  ASP105     -0.1225
      2  CA        34.6970   24.2760   64.6830 C.3   105  ASP105      0.1805
      3  C         35.0540   23.6450   63.3360 C.2   105  ASP105      0.2598
      4  O         35.9290   22.7770   63.2720 O.2   105  ASP105     -0.2718
      5  CB        33.9720   23.2390   65.5430 C.3   105  ASP105      0.1424
      6  CG        33.9190   23.6330   66.9980 C.2   105  ASP105      0.3668
      7  OD1       34.9980   23.7440   67.6160 O.co2 105  ASP105     -0.2456
      8  OD2       32.8040   23.8180   67.5340 O.co2 105  ASP105     -0.2456
      9  N         34.3670   24.0570   62.2710 N.am  106  HIS106     -0.1962
     10  CA        34.6670   23.5730   60.9270 C.3   106  HIS106      0.1772
     11  C         34.5850   24.7090   59.8990 C.2   106  HIS106      0.2462
     12  O         33.5840   24.8420   59.1900 O.2   106  HIS106     -0.2730
     13  CB        33.7250   22.4260   60.5530 C.3   106  HIS106      0.0785
     14  CG        34.1630   21.6660   59.3420 C.ar  106  HIS106      0.0821
     15  ND1       35.3600   20.9840   59.2890 N.ar  106  HIS106     -0.2267
     16  CD2       33.5730   21.4840   58.1380 C.ar  106  HIS106      0.1154
     17  CE1       35.4870   20.4140   58.1050 C.ar  106  HIS106      0.1986
     18  NE2       34.4160   20.7010   57.3870 N.ar  106  HIS106     -0.2212
     19  N         35.6450   25.5360   59.8190 N.am  107  PRO107     -0.2716
     20  CA        35.6980   26.6510   58.8670 C.3   107  PRO107      0.1536
     21  C         36.0330   26.2410   57.4250 C.2   107  PRO107      0.2599
     22  O         35.8710   27.0490   56.5100 O.2   107  PRO107     -0.2715
     23  CB        36.7960   27.5460   59.4460 C.3   107  PRO107      0.0310
     24  CG        37.7030   26.6060   60.1590 C.3   107  PRO107      0.0237
     25  CD        36.8330   25.5030   60.6940 C.3   107  PRO107      0.0939
     26  N         36.5000   25.0060   57.2360 N.am  108  ASN108     -0.1959
     27  CA        36.7760   24.4450   55.9070 C.3   108  ASN108      0.1819
     28  C         37.8070   25.2690   55.1250 C.2   108  ASN108      0.2621
     29  O         37.6210   25.5730   53.9440 O.2   108  ASN108     -0.2715
     30  CB        35.4680   24.2970   55.1100 C.3   108  ASN108      0.1195
     31  CG        35.5970   23.3490   53.9260 C.2   108  ASN108      0.2630
     32  OD1       36.5370   22.5570   53.8390 O.2   108  ASN108     -0.2716
     33  ND2       34.6430   23.4270   53.0060 N.am  108  ASN108     -0.0877
     34  N         38.8970   25.6240   55.7980 N.am  109  LEU109     -0.1977
     35  CA        39.9690   26.3970   55.1810 C.3   109  LEU109      0.1596
     36  C         40.8990   25.4760   54.3930 C.2   109  LEU109      0.2287
     37  O         40.9140   24.2650   54.6260 O.2   109  LEU109     -0.2864
     38  CB        40.7500   27.1630   56.2530 C.3   109  LEU109      0.0297
     39  CG        39.9310   28.1910   57.0400 C.3   109  LEU109      0.0022
     40  CD1       40.7310   28.7090   58.2250 C.3   109  LEU109      0.0001
     41  CD2       39.4730   29.3450   56.1580 C.3   109  LEU109      0.0001
     42  N         42.0480   27.6480   62.5000 N.3   141  ARG141     -0.1231
     43  CA        41.5880   26.2930   62.1880 C.3   141  ARG141      0.1694
     44  C         41.1300   25.5430   63.4380 C.2   141  ARG141      0.2592
     45  O         40.2620   24.6720   63.3620 O.2   141  ARG141     -0.2718
     46  CB        42.6930   25.4970   61.4860 C.3   141  ARG141      0.0321
     47  CG        42.7870   25.7890   60.0020 C.3   141  ARG141      0.0489
     48  CD        44.0870   25.2860   59.4010 C.3   141  ARG141      0.2205
     49  NE        44.1930   25.6650   57.9940 N.pl3 141  ARG141     -0.0865
     50  CZ        44.5020   26.8830   57.5500 C.cat 141  ARG141      0.5346
     51  NH1       44.7480   27.8790   58.3980 N.pl3 141  ARG141      0.1354
     52  NH2       44.5640   27.1110   56.2440 N.pl3 141  ARG141      0.1354
     53  N         41.7280   25.8790   64.5780 N.am  142  HIS142     -0.1976
     54  CA        41.4170   25.2370   65.8520 C.3   142  HIS142      0.1656
     55  C         41.0840   26.2990   66.9000 C.2   142  HIS142      0.2291
     56  O         41.9240   26.6420   67.7310 O.2   142  HIS142     -0.2864
     57  CB        42.5940   24.3660   66.2820 C.3   142  HIS142      0.0771
     58  CG        42.9890   23.3650   65.2450 C.ar  142  HIS142      0.0820
     59  ND1       42.4590   22.0940   65.1980 N.ar  142  HIS142     -0.2267
     60  CD2       43.8240   23.4640   64.1840 C.ar  142  HIS142      0.1154
     61  CE1       42.9700   21.4450   64.1670 C.ar  142  HIS142      0.1986
     62  NE2       43.8020   22.2540   63.5360 N.ar  142  HIS142     -0.2212
     63  N         46.7880   17.8710   65.7180 N.3   186  LEU186     -0.1245
     64  CA        45.4390   17.3000   65.6750 C.3   186  LEU186      0.1561
     65  C         45.0470   16.6570   67.0030 C.2   186  LEU186      0.2260
     66  O         43.9690   16.9310   67.5300 O.2   186  LEU186     -0.2867
     67  CB        45.3110   16.2780   64.5390 C.3   186  LEU186      0.0270
     68  CG        45.3230   16.8300   63.1100 C.3   186  LEU186      0.0019
     69  CD1       45.3610   15.6850   62.1090 C.3   186  LEU186      0.0001
     70  CD2       44.1240   17.7300   62.8410 C.3   186  LEU186      0.0001
     71  N         44.6860   19.3770   69.7310 N.3   189  SER189     -0.1217
     72  CA        43.4340   20.0870   69.4830 C.3   189  SER189      0.1889
     73  C         42.2340   19.2730   69.9660 C.2   189  SER189      0.2288
     74  O         41.3440   19.8050   70.6290 O.2   189  SER189     -0.2866
     75  CB        43.2860   20.3970   67.9910 C.3   189  SER189      0.2089
     76  OG        42.0740   21.0830   67.7260 O.3   189  SER189     -0.2183
     77  N         35.9710   11.0380   58.0560 N.3   421  GLU421     -0.1245
     78  CA        36.9080   11.6050   59.0300 C.3   421  GLU421      0.1567
     79  C         36.9960   10.7500   60.2920 C.2   421  GLU421      0.2260
     80  O         38.0940   10.3730   60.7100 O.2   421  GLU421     -0.2867
     81  CB        36.5210   13.0430   59.4040 C.3   421  GLU421      0.0388
     82  CG        37.5740   13.7680   60.2360 C.3   421  GLU421      0.1160
     83  CD        37.1620   15.1760   60.6350 C.2   421  GLU421      0.3649
     84  OE1       37.9740   16.1070   60.4560 O.co2 421  GLU421     -0.2457
     85  OE2       36.0300   15.3590   61.1330 O.co2 421  GLU421     -0.2457
     86  N         34.5600   14.9350   68.5750 N.3   455  ARG455     -0.1245
     87  CA        34.6430   15.6070   67.2770 C.3   455  ARG455      0.1563
     88  C         33.3210   15.4720   66.5190 C.2   455  ARG455      0.2260
     89  O         32.7830   16.4570   66.0160 O.2   455  ARG455     -0.2867
     90  CB        35.8000   15.0200   66.4560 C.3   455  ARG455      0.0307
     91  CG        35.8830   15.4760   65.0040 C.3   455  ARG455      0.0489
     92  CD        35.9830   16.9870   64.8730 C.3   455  ARG455      0.2205
     93  NE        36.3630   17.3750   63.5170 N.pl3 455  ARG455     -0.0865
     94  CZ        36.4860   18.6280   63.0840 C.cat 455  ARG455      0.5346
     95  NH1       36.2580   19.6570   63.8950 N.pl3 455  ARG455      0.1354
     96  NH2       36.8390   18.8520   61.8230 N.pl3 455  ARG455      0.1354
@<TRIPOS>BOND
     1    33    31   am
     2    32    31    2
     3    31    30    1
     4    29    28    2
     5    36    37    2
     6    36    35    1
     7    30    27    1
     8    28    34   am
     9    28    27    1
    10    35    34    1
    11    35    38    1
    12    27    26    1
    13    41    39    1
    14    52    50    1
    15    38    39    1
    16    22    21    2
    17    39    40    1
    18    26    21   am
    19    18    17   ar
    20    18    16   ar
    21    21    20    1
    22    50    49    2
    23    50    51    1
    24    49    48    1
    25    77    78    1
    26    17    15   ar
    27    16    14   ar
    28    20    23    1
    29    20    19    1
    30    78    81    1
    31    78    79    1
    32    12    11    2
    33    15    14   ar
    34    14    13    1
    35    48    47    1
    36    81    82    1
    37    23    24    1
    38    19    11   am
    39    19    25    1
    40    11    10    1
    41    47    46    1
    42    24    25    1
    43    82    83    1
    44    79    80    2
    45    84    83   ar
    46    13    10    1
    47    83    85   ar
    48    10     9    1
    49    46    43    1
    50    96    94    1
    51    69    68    1
    52    43    42    1
    53    43    44    1
    54     9     3   am
    55    70    68    1
    56    94    93    2
    57    94    95    1
    58    68    67    1
    59     4     3    2
    60     3     2    1
    61    45    44    2
    62    44    53   am
    63    93    92    1
    64    62    61   ar
    65    62    60   ar
    66    61    59   ar
    67    60    58   ar
    68    67    64    1
    69     1     2    1
    70    53    54    1
    71     2     5    1
    72    92    91    1
    73    91    90    1
    74    59    58   ar
    75    58    57    1
    76     5     6    1
    77    64    63    1
    78    64    65    1
    79    54    57    1
    80    54    55    1
    81    89    88    2
    82    90    87    1
    83    88    87    1
    84    55    56    2
    85     6     8   ar
    86     6     7   ar
    87    65    66    2
    88    87    86    1
    89    76    75    1
    90    75    72    1
    91    72    71    1
    92    72    73    1
    93    73    74    2
