@<TRIPOS>MOLECULE
tmp/6mdsA03.pdb
 83 80 0 0 0
SMALL
GASTEIGER

@<TRIPOS>ATOM
      1  N          9.5480  -20.1670  -34.3870 N.3    61  PHE61      -0.1227
      2  CA         9.6010  -18.8000  -34.8970 C.3    61  PHE61       0.1736
      3  C          8.2660  -18.1150  -34.6380 C.2    61  PHE61       0.2595
      4  O          7.2920  -18.3830  -35.3420 O.2    61  PHE61      -0.2718
      5  CB         9.9370  -18.7490  -36.3810 C.3    61  PHE61       0.0547
      6  CG        10.1990  -17.3500  -36.8670 C.ar   61  PHE61      -0.0202
      7  CD1       11.4520  -16.7570  -36.6880 C.ar   61  PHE61      -0.0042
      8  CD2        9.1960  -16.6110  -37.4760 C.ar   61  PHE61      -0.0042
      9  CE1       11.6910  -15.4600  -37.1230 C.ar   61  PHE61      -0.0003
     10  CE2        9.4350  -15.3130  -37.9060 C.ar   61  PHE61      -0.0003
     11  CZ        10.6830  -14.7450  -37.7250 C.ar   61  PHE61      -0.0000
     12  N          8.2460  -17.1860  -33.6730 N.am   62  HIS62      -0.1961
     13  CA         7.0200  -16.6610  -33.0840 C.3    62  HIS62       0.1787
     14  C          6.5920  -15.3390  -33.7190 C.2    62  HIS62       0.2620
     15  O          7.3740  -14.3880  -33.7700 O.2    62  HIS62      -0.2715
     16  CB         7.2040  -16.4610  -31.5770 C.3    62  HIS62       0.0785
     17  CG         6.1150  -15.6500  -30.9420 C.ar   62  HIS62       0.0821
     18  ND1        6.3480  -14.7450  -29.9310 N.ar   62  HIS62      -0.2267
     19  CD2        4.7780  -15.6180  -31.1720 C.ar   62  HIS62       0.1154
     20  CE1        5.2060  -14.1800  -29.5770 C.ar   62  HIS62       0.1986
     21  NE2        4.2410  -14.6790  -30.3270 N.ar   62  HIS62      -0.2212
     22  N          5.3330  -15.2720  -34.1540 N.am   63  ASP63      -0.1971
     23  CA         4.6550  -14.0000  -34.3930 C.3    63  ASP63       0.1709
     24  C          3.1560  -14.2600  -34.4670 C.2    63  ASP63       0.2293
     25  O          2.7130  -15.4020  -34.6240 O.2    63  ASP63      -0.2864
     26  CB         5.1570  -13.3030  -35.6640 C.3    63  ASP63       0.1436
     27  CG         4.8340  -11.7950  -35.6940 C.2    63  ASP63       0.3671
     28  OD1        4.5480  -11.1910  -34.6320 O.co2  63  ASP63      -0.2456
     29  OD2        4.9050  -11.2070  -36.7940 O.co2  63  ASP63      -0.2456
     30  N         13.4690  -18.8010  -30.9640 N.3    93  THR93      -0.1203
     31  CA        14.0640  -17.7030  -31.7080 C.3    93  THR93       0.1994
     32  C         13.4730  -16.3900  -31.2240 C.2    93  THR93       0.2618
     33  O         12.2430  -16.2580  -31.1350 O.2    93  THR93      -0.2717
     34  CB        13.8140  -17.8600  -33.2060 C.3    93  THR93       0.1784
     35  OG1       14.4310  -19.0760  -33.6670 O.3    93  THR93      -0.2211
     36  CG2       14.3710  -16.6490  -33.9640 C.3    93  THR93       0.0376
     37  N         14.3550  -15.4330  -30.9070 N.am   94  ILE94      -0.1965
     38  CA        14.0010  -14.0610  -30.5560 C.3    94  ILE94       0.1727
     39  C         14.8570  -13.1180  -31.3890 C.2    94  ILE94       0.2616
     40  O         15.9850  -13.4440  -31.7730 O.2    94  ILE94      -0.2715
     41  CB        14.2060  -13.7530  -29.0590 C.3    94  ILE94       0.0290
     42  CG1       15.6780  -13.8640  -28.6690 C.3    94  ILE94       0.0022
     43  CG2       13.4520  -14.7350  -28.2150 C.3    94  ILE94       0.0023
     44  CD1       15.9430  -13.3030  -27.3240 C.3    94  ILE94       0.0001
     45  N         14.3110  -11.9430  -31.6770 N.am   95  GLY95      -0.1955
     46  CA        15.0660  -10.9370  -32.3970 C.3    95  GLY95       0.1869
     47  C         16.0260  -10.1550  -31.5160 C.2    95  GLY95       0.2309
     48  O         15.9120  -10.0890  -30.2930 O.2    95  GLY95      -0.2863
     49  N         15.1760   -7.5700  -28.6510 N.3    98  GLU98      -0.1245
     50  CA        14.8850   -7.9150  -27.2670 C.3    98  GLU98       0.1567
     51  C         16.1190   -7.8520  -26.3790 C.2    98  GLU98       0.2260
     52  O         15.9860   -7.9850  -25.1650 O.2    98  GLU98      -0.2867
     53  CB        14.2860   -9.3280  -27.2020 C.3    98  GLU98       0.0388
     54  CG        13.4870   -9.6220  -25.9320 C.3    98  GLU98       0.1160
     55  CD        12.0140   -9.4350  -26.1590 C.2    98  GLU98       0.3649
     56  OE1       11.2660   -9.3840  -25.1900 O.co2  98  GLU98      -0.2457
     57  OE2       11.5960   -9.3490  -27.3180 O.co2  98  GLU98      -0.2457
     58  N         12.7390   -3.4030  -27.4770 N.3   103  THR103     -0.1218
     59  CA        11.5040   -4.1610  -27.3020 C.3   103  THR103      0.1862
     60  C         11.5570   -4.9840  -26.0190 C.2   103  THR103      0.2287
     61  O         12.6250   -5.2480  -25.4600 O.2   103  THR103     -0.2866
     62  CB        11.2350   -5.1660  -28.4450 C.3   103  THR103      0.1770
     63  OG1       12.4310   -5.8960  -28.7190 O.3   103  THR103     -0.2211
     64  CG2       10.7570   -4.4790  -29.7220 C.3   103  THR103      0.0375
     65  N         12.1010  -16.9310  -22.1530 N.3   127  PHE127     -0.1241
     66  CA        12.1020  -17.5340  -23.4810 C.3   127  PHE127      0.1605
     67  C         12.6420  -18.9670  -23.5290 C.2   127  PHE127      0.2264
     68  O         12.4100  -19.6460  -24.5320 O.2   127  PHE127     -0.2867
     69  CB        12.8880  -16.6600  -24.4610 C.3   127  PHE127      0.0534
     70  CG        12.2380  -15.3210  -24.7550 C.ar  127  PHE127     -0.0203
     71  CD1       11.1460  -15.2380  -25.6030 C.ar  127  PHE127     -0.0042
     72  CD2       12.7260  -14.1380  -24.1860 C.ar  127  PHE127     -0.0042
     73  CE1       10.5370  -13.9940  -25.8780 C.ar  127  PHE127     -0.0003
     74  CE2       12.1230  -12.8990  -24.4550 C.ar  127  PHE127     -0.0003
     75  CZ        11.0310  -12.8320  -25.3050 C.ar  127  PHE127     -0.0000
     76  N         18.1610  -13.6470  -33.4970 N.3   139  ASP139     -0.1239
     77  CA        17.9740  -13.2750  -34.8910 C.3   139  ASP139      0.1674
     78  C         18.5090  -11.8610  -35.1140 C.2   139  ASP139      0.2266
     79  O         17.9540  -10.9050  -34.5680 O.2   139  ASP139     -0.2867
     80  CB        16.4820  -13.3650  -35.1990 C.3   139  ASP139      0.1410
     81  CG        16.1670  -13.2000  -36.6550 C.2   139  ASP139      0.3668
     82  OD1       17.0560  -12.7660  -37.4170 O.co2 139  ASP139     -0.2456
     83  OD2       15.0050  -13.4830  -37.0360 O.co2 139  ASP139     -0.2456
@<TRIPOS>BOND
     1    10    11   ar
     2    10     8   ar
     3    11     9   ar
     4     8     6   ar
     5    82    81   ar
     6     9     7   ar
     7    83    81   ar
     8     6     7   ar
     9     6     5    1
    10    29    27   ar
    11    81    80    1
    12     5     2    1
    13    27    26    1
    14    27    28   ar
    15    26    23    1
    16     4     3    2
    17    80    77    1
    18    78    77    1
    19    78    79    2
    20     2     3    1
    21     2     1    1
    22    77    76    1
    23     3    12   am
    24    25    24    2
    25    24    23    1
    26    23    22    1
    27    22    14   am
    28    36    34    1
    29    15    14    2
    30    14    13    1
    31    12    13    1
    32    35    34    1
    33    34    31    1
    34    13    16    1
    35    46    45    1
    36    46    47    1
    37    40    39    2
    38    31    32    1
    39    31    30    1
    40    45    39   am
    41    16    17    1
    42    47    48    2
    43    39    38    1
    44    32    33    2
    45    32    37   am
    46    19    17   ar
    47    19    21   ar
    48    17    18   ar
    49    37    38    1
    50    38    41    1
    51    21    20   ar
    52    18    20   ar
    53    64    62    1
    54    41    42    1
    55    41    43    1
    56    63    62    1
    57    42    44    1
    58    49    50    1
    59    62    59    1
    60    58    59    1
    61    57    55   ar
    62    59    60    1
    63    50    53    1
    64    50    51    1
    65    53    54    1
    66    51    52    2
    67    55    54    1
    68    55    56   ar
    69    60    61    2
    70    73    71   ar
    71    73    75   ar
    72    71    70   ar
    73    75    74   ar
    74    70    69    1
    75    70    72   ar
    76    68    67    2
    77    69    66    1
    78    74    72   ar
    79    67    66    1
    80    66    65    1
