@<TRIPOS>MOLECULE
tmp/6mdsA00.pdb
 125 118 0 0 0
SMALL
GASTEIGER

@<TRIPOS>ATOM
      1  N         12.5520  -23.6610  -39.5040 N.3    25  TYR25      -0.1241
      2  CA        11.8350  -22.6390  -38.7580 C.3    25  TYR25       0.1605
      3  C         10.3430  -22.8590  -38.9440 C.2    25  TYR25       0.2264
      4  O          9.8440  -22.7670  -40.0690 O.2    25  TYR25      -0.2867
      5  CB        12.2200  -21.2490  -39.2390 C.3    25  TYR25       0.0534
      6  CG        13.5340  -20.7100  -38.7390 C.ar   25  TYR25      -0.0201
      7  CD1       13.5850  -19.8790  -37.6200 C.ar   25  TYR25      -0.0009
      8  CD2       14.7230  -20.9990  -39.3970 C.ar   25  TYR25      -0.0009
      9  CE1       14.7760  -19.3680  -37.1590 C.ar   25  TYR25       0.0417
     10  CE2       15.9350  -20.4890  -38.9460 C.ar   25  TYR25       0.0417
     11  CZ        15.9470  -19.6690  -37.8310 C.ar   25  TYR25       0.1957
     12  OH        17.1390  -19.1740  -37.3810 O.3    25  TYR25      -0.2866
     13  N          9.5480  -20.1670  -34.3870 N.3    61  PHE61      -0.1241
     14  CA         9.6010  -18.8000  -34.8970 C.3    61  PHE61       0.1605
     15  C          8.2660  -18.1150  -34.6380 C.2    61  PHE61       0.2264
     16  O          7.2920  -18.3830  -35.3420 O.2    61  PHE61      -0.2867
     17  CB         9.9370  -18.7490  -36.3810 C.3    61  PHE61       0.0534
     18  CG        10.1990  -17.3500  -36.8670 C.ar   61  PHE61      -0.0203
     19  CD1       11.4520  -16.7570  -36.6880 C.ar   61  PHE61      -0.0042
     20  CD2        9.1960  -16.6110  -37.4760 C.ar   61  PHE61      -0.0042
     21  CE1       11.6910  -15.4600  -37.1230 C.ar   61  PHE61      -0.0003
     22  CE2        9.4350  -15.3130  -37.9060 C.ar   61  PHE61      -0.0003
     23  CZ        10.6830  -14.7450  -37.7250 C.ar   61  PHE61      -0.0000
     24  N         18.1610  -13.6470  -33.4970 N.3   139  ASP139     -0.1239
     25  CA        17.9740  -13.2750  -34.8910 C.3   139  ASP139      0.1674
     26  C         18.5090  -11.8610  -35.1140 C.2   139  ASP139      0.2266
     27  O         17.9540  -10.9050  -34.5680 O.2   139  ASP139     -0.2867
     28  CB        16.4820  -13.3650  -35.1990 C.3   139  ASP139      0.1410
     29  CG        16.1670  -13.2000  -36.6550 C.2   139  ASP139      0.3668
     30  OD1       17.0560  -12.7660  -37.4170 O.co2 139  ASP139     -0.2456
     31  OD2       15.0050  -13.4830  -37.0360 O.co2 139  ASP139     -0.2456
     32  N         19.4360   -9.1440  -37.9760 N.3   141  GLU141     -0.1245
     33  CA        19.2540   -8.8580  -39.3810 C.3   141  GLU141      0.1567
     34  C         19.6300   -7.4300  -39.7150 C.2   141  GLU141      0.2260
     35  O         19.8960   -6.5950  -38.8430 O.2   141  GLU141     -0.2867
     36  CB        17.8150   -9.1310  -39.7890 C.3   141  GLU141      0.0388
     37  CG        17.6840  -10.5380  -40.2590 C.3   141  GLU141      0.1160
     38  CD        16.2670  -10.9730  -40.3540 C.2   141  GLU141      0.3649
     39  OE1       15.4440  -10.1910  -40.8940 O.co2 141  GLU141     -0.2457
     40  OE2       15.9730  -12.0840  -39.8560 O.co2 141  GLU141     -0.2457
     41  N         21.2600  -16.5600  -35.8130 N.3   181  ASP181     -0.1239
     42  CA        20.9490  -16.5470  -37.2350 C.3   181  ASP181      0.1674
     43  C         21.0540  -15.1100  -37.7340 C.2   181  ASP181      0.2266
     44  O         20.7400  -14.1700  -37.0040 O.2   181  ASP181     -0.2867
     45  CB        19.5850  -17.1790  -37.5420 C.3   181  ASP181      0.1410
     46  CG        18.4210  -16.3240  -37.1130 C.2   181  ASP181      0.3668
     47  OD1       17.9660  -16.4660  -35.9550 O.co2 181  ASP181     -0.2456
     48  OD2       17.9390  -15.5290  -37.9460 O.co2 181  ASP181     -0.2456
     49  N         21.8480  -12.2570  -41.3930 N.3   183  THR183     -0.1218
     50  CA        21.9050  -11.9090  -42.8080 C.3   183  THR183      0.1862
     51  C         23.0860  -11.0080  -43.1100 C.2   183  THR183      0.2287
     52  O         23.2120  -10.5200  -44.2420 O.2   183  THR183     -0.2866
     53  CB        20.6220  -11.1880  -43.2280 C.3   183  THR183      0.1770
     54  OG1       20.4850  -10.0180  -42.4220 O.3   183  THR183     -0.2211
     55  CG2       19.4150  -12.0430  -43.0220 C.3   183  THR183      0.0375
     56  N         21.1910  -16.9730  -43.2600 N.3   205  GLN205     -0.1245
     57  CA        20.1160  -16.9870  -44.2370 C.3   205  GLN205      0.1566
     58  C         20.6410  -16.5470  -45.5920 C.2   205  GLN205      0.2260
     59  O         21.2540  -15.4800  -45.7150 O.2   205  GLN205     -0.2867
     60  CB        18.9740  -16.0720  -43.8040 C.3   205  GLN205      0.0367
     61  CG        18.6180  -16.1570  -42.3290 C.3   205  GLN205      0.0905
     62  CD        17.6800  -15.0330  -41.9070 C.2   205  GLN205      0.2608
     63  OE1       17.5760  -14.6910  -40.7270 O.2   205  GLN205     -0.2717
     64  NE2       16.9880  -14.4560  -42.8810 N.am  205  GLN205     -0.0878
     65  N         18.4000  -16.7590  -48.6080 N.3   207  TYR207     -0.1241
     66  CA        17.2360  -16.9980  -49.4480 C.3   207  TYR207      0.1605
     67  C         17.4410  -16.3530  -50.8120 C.2   207  TYR207      0.2264
     68  O         18.0440  -15.2850  -50.9320 O.2   207  TYR207     -0.2867
     69  CB        15.9640  -16.4720  -48.7860 C.3   207  TYR207      0.0534
     70  CG        15.8000  -16.8140  -47.3110 C.ar  207  TYR207     -0.0201
     71  CD1       16.4490  -17.8990  -46.7360 C.ar  207  TYR207     -0.0009
     72  CD2       14.9830  -16.0350  -46.4920 C.ar  207  TYR207     -0.0009
     73  CE1       16.3020  -18.1880  -45.4040 C.ar  207  TYR207      0.0417
     74  CE2       14.8360  -16.3340  -45.1510 C.ar  207  TYR207      0.0417
     75  CZ        15.5010  -17.3960  -44.6270 C.ar  207  TYR207      0.1957
     76  OH        15.3690  -17.6800  -43.3060 O.3   207  TYR207     -0.2866
     77  N         14.4630  -20.7250  -48.1800 N.3   240  SER240     -0.1217
     78  CA        13.0980  -20.4970  -47.7080 C.3   240  SER240      0.1889
     79  C         12.0760  -21.2380  -48.5590 C.2   240  SER240      0.2288
     80  O         12.1890  -21.2940  -49.7840 O.2   240  SER240     -0.2866
     81  CB        12.7230  -19.0120  -47.7170 C.3   240  SER240      0.2089
     82  OG        11.3160  -18.8930  -47.5600 O.3   240  SER240     -0.2183
     83  N          6.1780  -18.7110  -49.0350 N.3   243  GLU243     -0.1245
     84  CA         5.1970  -18.2430  -48.0630 C.3   243  GLU243      0.1567
     85  C          3.9750  -17.7020  -48.7890 C.2   243  GLU243      0.2260
     86  O          4.1070  -16.9200  -49.7350 O.2   243  GLU243     -0.2867
     87  CB         5.7810  -17.1790  -47.1500 C.3   243  GLU243      0.0388
     88  CG         6.7610  -17.7190  -46.1470 C.3   243  GLU243      0.1160
     89  CD         7.0570  -16.7140  -45.0670 C.2   243  GLU243      0.3649
     90  OE1        6.3400  -16.7250  -44.0330 O.co2 243  GLU243     -0.2457
     91  OE2        7.9820  -15.8820  -45.2690 O.co2 243  GLU243     -0.2457
     92  N          9.8900  -10.6810  -51.0370 N.3   250  ASN250     -0.1240
     93  CA         9.8670  -11.9010  -50.2470 C.3   250  ASN250      0.1653
     94  C          9.5810  -13.0920  -51.1430 C.2   250  ASN250      0.2266
     95  O          8.8710  -14.0260  -50.7600 O.2   250  ASN250     -0.2867
     96  CB         8.8510  -11.8100  -49.1030 C.3   250  ASN250      0.1155
     97  CG         9.0410  -12.9170  -48.0850 C.2   250  ASN250      0.2627
     98  OD1       10.1720  -13.3400  -47.8510 O.2   250  ASN250     -0.2716
     99  ND2        7.9500  -13.4070  -47.4940 N.am  250  ASN250     -0.0877
    100  N         11.7030  -15.6940  -53.2860 N.3   252  TRP252     -0.1241
    101  CA        13.0650  -16.1960  -53.3990 C.3   252  TRP252      0.1605
    102  C         13.2400  -17.2640  -54.4640 C.2   252  TRP252      0.2264
    103  O         14.3460  -17.4080  -54.9950 O.2   252  TRP252     -0.2867
    104  CB        13.5090  -16.7590  -52.0470 C.3   252  TRP252      0.0550
    105  CG        13.2160  -15.7930  -50.9290 C.ar  252  TRP252      0.0003
    106  CD1       12.2580  -15.9210  -49.9510 C.ar  252  TRP252      0.0946
    107  CD2       13.8660  -14.5360  -50.6940 C.ar  252  TRP252      0.0152
    108  NE1       12.2980  -14.8280  -49.1120 N.ar  252  TRP252     -0.2442
    109  CE2       13.2700  -13.9640  -49.5510 C.ar  252  TRP252      0.0810
    110  CE3       14.8920  -13.8470  -51.3360 C.ar  252  TRP252      0.0012
    111  CZ2       13.6640  -12.7290  -49.0450 C.ar  252  TRP252      0.0191
    112  CZ3       15.2880  -12.6320  -50.8350 C.ar  252  TRP252      0.0001
    113  CH2       14.6720  -12.0790  -49.6980 C.ar  252  TRP252      0.0015
    114  N         13.4390  -21.8970  -44.0140 N.3   294  TYR294     -0.1241
    115  CA        12.4640  -21.0240  -43.3860 C.3   294  TYR294      0.1605
    116  C         11.0700  -21.4450  -43.8360 C.2   294  TYR294      0.2264
    117  O         10.8820  -21.8580  -44.9780 O.2   294  TYR294     -0.2867
    118  CB        12.7220  -19.5470  -43.7230 C.3   294  TYR294      0.0534
    119  CG        11.7190  -18.6620  -43.0030 C.ar  294  TYR294     -0.0201
    120  CD1       11.7650  -18.5420  -41.6210 C.ar  294  TYR294     -0.0009
    121  CD2       10.6780  -18.0420  -43.6740 C.ar  294  TYR294     -0.0009
    122  CE1       10.8490  -17.7950  -40.9310 C.ar  294  TYR294      0.0417
    123  CE2        9.7450  -17.2860  -42.9790 C.ar  294  TYR294      0.0417
    124  CZ         9.8440  -17.1700  -41.6090 C.ar  294  TYR294      0.1957
    125  OH         8.9500  -16.4310  -40.8820 O.3   294  TYR294     -0.2866
@<TRIPOS>BOND
     1   103   102    2
     2   102   101    1
     3   101   100    1
     4   101   104    1
     5   104   105    1
     6   110   112   ar
     7   110   107   ar
     8    94    95    2
     9    94    93    1
    10    92    93    1
    11    68    67    2
    12   105   107   ar
    13   105   106   ar
    14   112   113   ar
    15    67    66    1
    16   107   109   ar
    17    93    96    1
    18   106   108   ar
    19    80    79    2
    20    86    85    2
    21   113   111   ar
    22   109   108   ar
    23   109   111   ar
    24    66    69    1
    25    66    65    1
    26    96    97    1
    27    83    84    1
    28    85    84    1
    29    69    70    1
    30    79    78    1
    31    77    78    1
    32    97    98    2
    33    97    99   am
    34    84    87    1
    35    81    78    1
    36    81    82    1
    37    70    71   ar
    38    70    72   ar
    39    87    88    1
    40    71    73   ar
    41    72    74   ar
    42    88    89    1
    43    59    58    2
    44    58    57    1
    45    73    75   ar
    46    91    89   ar
    47    74    75   ar
    48    89    90   ar
    49   117   116    2
    50    75    76    1
    51    52    51    2
    52    57    60    1
    53    57    56    1
    54   114   115    1
    55   116   115    1
    56    60    61    1
    57   118   115    1
    58   118   119    1
    59   121   119   ar
    60   121   123   ar
    61    53    55    1
    62    53    50    1
    63    53    54    1
    64    51    50    1
    65   119   120   ar
    66   123   124   ar
    67    64    62   am
    68    50    49    1
    69    61    62    1
    70    62    63    2
    71   120   122   ar
    72   124   122   ar
    73   124   125    1
    74    39    38   ar
    75    38    37    1
    76    38    40   ar
    77    37    36    1
    78     4     3    2
    79    36    33    1
    80    34    33    1
    81    34    35    2
    82     1     2    1
    83     8    10   ar
    84     8     6   ar
    85    33    32    1
    86     5     2    1
    87     5     6    1
    88    10    11   ar
    89     3     2    1
    90     6     7   ar
    91    48    46   ar
    92    22    23   ar
    93    22    20   ar
    94    11    12    1
    95    11     9   ar
    96    43    42    1
    97    43    44    2
    98    23    21   ar
    99     7     9   ar
   100    45    42    1
   101    45    46    1
   102    20    18   ar
   103    30    29   ar
   104    42    41    1
   105    21    19   ar
   106    46    47   ar
   107    31    29   ar
   108    18    19   ar
   109    18    17    1
   110    29    28    1
   111    17    14    1
   112    16    15    2
   113    28    25    1
   114    26    25    1
   115    26    27    2
   116    14    15    1
   117    14    13    1
   118    25    24    1
