@<TRIPOS>MOLECULE
tmp/6mdsA05.pdb
 98 97 0 0 0
SMALL
GASTEIGER

@<TRIPOS>ATOM
      1  N          6.6220  -21.5430  -38.2240 N.3    27  ARG27      -0.1245
      2  CA         5.9150  -20.3030  -37.8970 C.3    27  ARG27       0.1563
      3  C          4.7610  -20.5900  -36.9260 C.2    27  ARG27       0.2260
      4  O          3.8050  -21.2850  -37.2850 O.2    27  ARG27      -0.2867
      5  CB         5.4260  -19.6480  -39.1910 C.3    27  ARG27       0.0307
      6  CG         6.5700  -19.3800  -40.1740 C.3    27  ARG27       0.0489
      7  CD         6.0940  -18.8430  -41.4940 C.3    27  ARG27       0.2205
      8  NE         5.0800  -19.7050  -42.0650 N.pl3  27  ARG27      -0.0865
      9  CZ         4.2830  -19.3590  -43.0770 C.cat  27  ARG27       0.5346
     10  NH1        4.3830  -18.1620  -43.6520 N.pl3  27  ARG27       0.1354
     11  NH2        3.3640  -20.2060  -43.5110 N.pl3  27  ARG27       0.1354
     12  N          2.1520  -19.2210  -35.7990 N.3    29  TRP29      -0.1227
     13  CA         0.7670  -18.9790  -36.1380 C.3    29  TRP29       0.1737
     14  C          0.2360  -19.9960  -37.1330 C.2    29  TRP29       0.2595
     15  O         -0.9690  -19.9770  -37.4310 O.2    29  TRP29      -0.2718
     16  CB         0.5920  -17.5410  -36.6480 C.3    29  TRP29       0.0564
     17  CG         1.2990  -17.1590  -37.9060 C.ar   29  TRP29       0.0003
     18  CD1        0.7410  -17.0370  -39.1430 C.ar   29  TRP29       0.0946
     19  CD2        2.6850  -16.7960  -38.0560 C.ar   29  TRP29       0.0152
     20  NE1        1.6890  -16.6340  -40.0600 N.ar   29  TRP29      -0.2442
     21  CE2        2.8890  -16.4730  -39.4140 C.ar   29  TRP29       0.0810
     22  CE3        3.7770  -16.7250  -37.1780 C.ar   29  TRP29       0.0012
     23  CZ2        4.1420  -16.0810  -39.9140 C.ar   29  TRP29       0.0191
     24  CZ3        5.0270  -16.3210  -37.6790 C.ar   29  TRP29       0.0001
     25  CH2        5.1920  -16.0140  -39.0300 C.ar   29  TRP29       0.0015
     26  N          1.0750  -20.9160  -37.6060 N.am   30  HIS30      -0.1975
     27  CA         0.6100  -22.0340  -38.4180 C.3    30  HIS30       0.1656
     28  C          0.5620  -23.3580  -37.6670 C.2    30  HIS30       0.2291
     29  O          0.4430  -24.4050  -38.3010 O.2    30  HIS30      -0.2864
     30  CB         1.4620  -22.1700  -39.6700 C.3    30  HIS30       0.0771
     31  CG         1.0630  -21.2160  -40.7430 C.ar   30  HIS30       0.0820
     32  ND1        0.1160  -21.5260  -41.6940 N.ar   30  HIS30      -0.2267
     33  CD2        1.4500  -19.9450  -40.9930 C.ar   30  HIS30       0.1154
     34  CE1       -0.0490  -20.4930  -42.4990 C.ar   30  HIS30       0.1986
     35  NE2        0.7440  -19.5170  -42.0920 N.ar   30  HIS30      -0.2212
     36  N         -4.8540  -21.0830  -37.9030 N.3    43  HIS43      -0.1241
     37  CA        -4.7810  -22.0590  -38.9770 C.3    43  HIS43       0.1621
     38  C         -4.8310  -23.4780  -38.4220 C.2    43  HIS43       0.2264
     39  O         -3.9320  -23.8820  -37.6740 O.2    43  HIS43      -0.2867
     40  CB        -3.5130  -21.8740  -39.8100 C.3    43  HIS43       0.0745
     41  CG        -3.5010  -20.6400  -40.6640 C.ar   43  HIS43       0.0817
     42  ND1       -2.7340  -19.5290  -40.3660 N.ar   43  HIS43      -0.2268
     43  CD2       -4.1230  -20.3610  -41.8320 C.ar   43  HIS43       0.1154
     44  CE1       -2.8980  -18.6160  -41.3060 C.ar   43  HIS43       0.1986
     45  NE2       -3.7310  -19.0980  -42.2100 N.ar   43  HIS43      -0.2212
     46  N          2.3790  -13.1970  -34.2650 N.3    64  HIS64      -0.1241
     47  CA         0.9220  -13.2030  -34.4150 C.3    64  HIS64       0.1621
     48  C          0.2160  -14.0840  -33.3790 C.2    64  HIS64       0.2264
     49  O         -0.9680  -13.8820  -33.0900 O.2    64  HIS64      -0.2867
     50  CB         0.5460  -13.6180  -35.8440 C.3    64  HIS64       0.0745
     51  CG         1.2540  -12.8260  -36.8990 C.ar   64  HIS64       0.0817
     52  ND1        1.0440  -11.4760  -37.0850 N.ar   64  HIS64      -0.2268
     53  CD2        2.1790  -13.1910  -37.8170 C.ar   64  HIS64       0.1154
     54  CE1        1.8080  -11.0440  -38.0740 C.ar   64  HIS64       0.1986
     55  NE2        2.5070  -12.0660  -38.5360 N.ar   64  HIS64      -0.2212
     56  N          6.1780  -18.7110  -49.0350 N.3   243  GLU243     -0.1231
     57  CA         5.1970  -18.2430  -48.0630 C.3   243  GLU243      0.1699
     58  C          3.9750  -17.7020  -48.7890 C.2   243  GLU243      0.2592
     59  O          4.1070  -16.9200  -49.7350 O.2   243  GLU243     -0.2718
     60  CB         5.7810  -17.1790  -47.1500 C.3   243  GLU243      0.0402
     61  CG         6.7610  -17.7190  -46.1470 C.3   243  GLU243      0.1161
     62  CD         7.0570  -16.7140  -45.0670 C.2   243  GLU243      0.3649
     63  OE1        6.3400  -16.7250  -44.0330 O.co2 243  GLU243     -0.2457
     64  OE2        7.9820  -15.8820  -45.2690 O.co2 243  GLU243     -0.2457
     65  N          2.7930  -18.1390  -48.3570 N.am  244  GLU244     -0.1966
     66  CA         1.5520  -17.6950  -48.9900 C.3   244  GLU244      0.1733
     67  C          1.4450  -16.1690  -48.9690 C.2   244  GLU244      0.2617
     68  O          1.8730  -15.5070  -48.0140 O.2   244  GLU244     -0.2715
     69  CB         0.3470  -18.3300  -48.2950 C.3   244  GLU244      0.0429
     70  CG        -0.0690  -17.7130  -46.9480 C.3   244  GLU244      0.1163
     71  CD         0.7390  -18.2260  -45.7530 C.2   244  GLU244      0.3649
     72  OE1        1.6850  -19.0380  -45.9320 O.co2 244  GLU244     -0.2457
     73  OE2        0.4080  -17.8320  -44.6110 O.co2 244  GLU244     -0.2457
     74  N          0.9310  -15.6040  -50.0630 N.am  245  SER245     -0.1936
     75  CA         0.7410  -14.1560  -50.2060 C.3   245  SER245      0.2055
     76  C          2.0470  -13.3900  -50.1220 C.2   245  SER245      0.2643
     77  O          2.0450  -12.1990  -49.8390 O.2   245  SER245     -0.2714
     78  CB        -0.2550  -13.5970  -49.1920 C.3   245  SER245      0.2130
     79  OG        -1.5050  -14.2200  -49.3780 O.3   245  SER245     -0.2179
     80  N          3.1810  -14.0510  -50.3220 N.am  246  ALA246     -0.1963
     81  CA         4.4350  -13.3230  -50.3600 C.3   246  ALA246      0.1728
     82  C          4.4260  -12.3530  -51.5300 C.2   246  ALA246      0.2616
     83  O          4.0270  -12.7070  -52.6450 O.2   246  ALA246     -0.2715
     84  CB         5.6100  -14.2850  -50.4750 C.3   246  ALA246      0.0334
     85  N          4.8700  -11.1310  -51.2590 N.am  247  SER247     -0.1950
     86  CA         4.9720  -10.0650  -52.2400 C.3   247  SER247      0.1924
     87  C          6.4200   -9.9050  -52.6920 C.2   247  SER247      0.2314
     88  O          7.3460  -10.5120  -52.1400 O.2   247  SER247     -0.2863
     89  CB         4.4780   -8.7340  -51.6550 C.3   247  SER247      0.2116
     90  OG         3.1640   -8.8130  -51.1400 O.3   247  SER247     -0.2180
     91  N          9.8900  -10.6810  -51.0370 N.3   250  ASN250     -0.1240
     92  CA         9.8670  -11.9010  -50.2470 C.3   250  ASN250      0.1653
     93  C          9.5810  -13.0920  -51.1430 C.2   250  ASN250      0.2266
     94  O          8.8710  -14.0260  -50.7600 O.2   250  ASN250     -0.2867
     95  CB         8.8510  -11.8100  -49.1030 C.3   250  ASN250      0.1155
     96  CG         9.0410  -12.9170  -48.0850 C.2   250  ASN250      0.2627
     97  OD1       10.1720  -13.3400  -47.8510 O.2   250  ASN250     -0.2716
     98  ND2        7.9500  -13.4070  -47.4940 N.am  250  ASN250     -0.0877
@<TRIPOS>BOND
     1    87    86    1
     2    87    88    2
     3    83    82    2
     4    86    89    1
     5    86    85    1
     6    89    90    1
     7    82    85   am
     8    82    81    1
     9    93    94    2
    10    93    92    1
    11    91    92    1
    12    84    81    1
    13    81    80    1
    14    80    76   am
    15    92    95    1
    16    75    76    1
    17    75    74    1
    18    75    78    1
    19    76    77    2
    20    74    67   am
    21    59    58    2
    22    79    78    1
    23    95    96    1
    24    56    57    1
    25    66    67    1
    26    66    65    1
    27    66    69    1
    28    67    68    2
    29    58    65   am
    30    58    57    1
    31    69    70    1
    32    96    97    2
    33    96    98   am
    34    57    60    1
    35    60    61    1
    36    70    71    1
    37    61    62    1
    38    72    71   ar
    39    71    73   ar
    40    64    62   ar
    41    62    63   ar
    42    10     9    1
    43    11     9    1
    44     9     8    2
    45    34    35   ar
    46    34    32   ar
    47    45    43   ar
    48    45    44   ar
    49    35    33   ar
    50     8     7    1
    51    43    41   ar
    52    32    31   ar
    53     7     6    1
    54    44    42   ar
    55    33    31   ar
    56    31    30    1
    57    41    42   ar
    58    41    40    1
    59     6     5    1
    60    20    21   ar
    61    20    18   ar
    62    23    21   ar
    63    23    25   ar
    64    40    37    1
    65    30    27    1
    66    21    19   ar
    67     5     2    1
    68    18    17   ar
    69    25    24   ar
    70    37    38    1
    71    37    36    1
    72    55    54   ar
    73    55    53   ar
    74    38    39    2
    75    27    28    1
    76    27    26    1
    77    29    28    2
    78     1     2    1
    79    54    52   ar
    80    19    17   ar
    81    19    22   ar
    82    17    16    1
    83     2     3    1
    84    53    51   ar
    85    24    22   ar
    86    26    14   am
    87    15    14    2
    88     4     3    2
    89    14    13    1
    90    52    51   ar
    91    51    50    1
    92    16    13    1
    93    13    12    1
    94    50    47    1
    95    47    46    1
    96    47    48    1
    97    48    49    2
