@<TRIPOS>MOLECULE
tmp/6mdvA05.pdb
 88 86 0 0 0
SMALL
GASTEIGER

@<TRIPOS>ATOM
      1  N          9.2040  -19.8970  -34.1680 N.3    61  PHE61      -0.1241
      2  CA         9.2860  -18.5360  -34.6890 C.3    61  PHE61       0.1605
      3  C          7.9420  -17.8590  -34.4940 C.2    61  PHE61       0.2264
      4  O          6.9410  -18.2710  -35.0930 O.2    61  PHE61      -0.2867
      5  CB         9.6990  -18.5100  -36.1590 C.3    61  PHE61       0.0534
      6  CG         9.9960  -17.1340  -36.6620 C.ar   61  PHE61      -0.0203
      7  CD1       11.2530  -16.5850  -36.5060 C.ar   61  PHE61      -0.0042
      8  CD2        9.0010  -16.3670  -37.2400 C.ar   61  PHE61      -0.0042
      9  CE1       11.5180  -15.3050  -36.9430 C.ar   61  PHE61      -0.0003
     10  CE2        9.2560  -15.0880  -37.6790 C.ar   61  PHE61      -0.0003
     11  CZ        10.5150  -14.5600  -37.5310 C.ar   61  PHE61      -0.0000
     12  N         14.1160  -11.8720  -31.4230 N.3    95  GLY95      -0.1210
     13  CA        14.8670  -10.8830  -32.1700 C.3    95  GLY95       0.1956
     14  C         15.8430  -10.0810  -31.3070 C.2    95  GLY95       0.2612
     15  O         15.6830   -9.9760  -30.0940 O.2    95  GLY95      -0.2717
     16  N         16.8850   -9.5400  -31.9550 N.am   96  VAL96      -0.1965
     17  CA        17.8940   -8.7600  -31.2360 C.3    96  VAL96       0.1727
     18  C         17.2670   -7.5880  -30.4830 C.2    96  VAL96       0.2616
     19  O         17.8360   -7.1010  -29.5000 O.2    96  VAL96      -0.2715
     20  CB        18.9840   -8.2450  -32.2120 C.3    96  VAL96       0.0290
     21  CG1       18.4460   -7.1760  -33.1480 C.3    96  VAL96       0.0023
     22  CG2       20.1840   -7.7580  -31.4680 C.3    96  VAL96       0.0023
     23  N         16.0990   -7.1210  -30.9110 N.am   97  ASN97      -0.1972
     24  CA        15.4770   -5.9900  -30.2340 C.3    97  ASN97       0.1688
     25  C         15.0260   -6.3410  -28.8330 C.2    97  ASN97       0.2292
     26  O         14.7700   -5.4400  -28.0310 O.2    97  ASN97      -0.2864
     27  CB        14.2910   -5.4610  -31.0400 C.3    97  ASN97       0.1181
     28  CG        14.7240   -4.5840  -32.1690 C.2    97  ASN97       0.2629
     29  OD1       15.9190   -4.2980  -32.3280 O.2    97  ASN97      -0.2716
     30  ND2       13.7730   -4.1580  -32.9750 N.am   97  ASN97      -0.0877
     31  N         17.8290  -13.6540  -33.3750 N.3   139  ASP139     -0.1239
     32  CA        17.7030  -13.2970  -34.7800 C.3   139  ASP139      0.1674
     33  C         18.2510  -11.8830  -34.9840 C.2   139  ASP139      0.2266
     34  O         17.6870  -10.9080  -34.4680 O.2   139  ASP139     -0.2867
     35  CB        16.2260  -13.4180  -35.1600 C.3   139  ASP139      0.1410
     36  CG        15.9350  -13.1160  -36.6230 C.2   139  ASP139      0.3668
     37  OD1       16.8090  -12.5730  -37.3320 O.co2 139  ASP139     -0.2456
     38  OD2       14.7860  -13.3890  -37.0520 O.co2 139  ASP139     -0.2456
     39  N         19.3060   -9.2360  -37.8540 N.3   141  GLU141     -0.1231
     40  CA        19.2270   -8.8830  -39.2610 C.3   141  GLU141      0.1699
     41  C         19.5260   -7.4000  -39.4430 C.2   141  GLU141      0.2592
     42  O         19.7820   -6.6560  -38.4930 O.2   141  GLU141     -0.2718
     43  CB        17.8540   -9.2250  -39.8150 C.3   141  GLU141      0.0402
     44  CG        17.5940  -10.6610  -39.6560 C.3   141  GLU141      0.1161
     45  CD        16.2920  -11.0840  -40.2290 C.2   141  GLU141      0.3649
     46  OE1       15.7840  -12.1100  -39.7330 O.co2 141  GLU141     -0.2457
     47  OE2       15.7480  -10.3830  -41.1200 O.co2 141  GLU141     -0.2457
     48  N         19.5060   -6.9620  -40.6960 N.am  142  HIS142     -0.1962
     49  CA        19.6490   -5.5370  -40.9550 C.3   142  HIS142      0.1787
     50  C         18.3140   -4.8610  -40.6860 C.2   142  HIS142      0.2620
     51  O         17.2560   -5.3820  -41.0530 O.2   142  HIS142     -0.2715
     52  CB        20.1200   -5.2830  -42.3790 C.3   142  HIS142      0.0785
     53  CG        20.3480   -3.8110  -42.6760 C.ar  142  HIS142      0.0821
     54  ND1       21.3140   -3.3780  -43.6030 N.ar  142  HIS142     -0.2267
     55  CD2       19.7470   -2.6930  -42.1720 C.ar  142  HIS142      0.1154
     56  CE1       21.2950   -2.0600  -43.6530 C.ar  142  HIS142      0.1986
     57  NE2       20.3630   -1.6300  -42.7980 N.ar  142  HIS142     -0.2212
     58  N         18.3700   -3.7440  -39.9810 N.am  143  GLU143     -0.1963
     59  CA        17.2070   -2.9100  -39.7070 C.3   143  GLU143      0.1733
     60  C         17.2200   -1.7830  -40.7340 C.2   143  GLU143      0.2616
     61  O         17.9890   -0.8270  -40.6060 O.2   143  GLU143     -0.2715
     62  CB        17.2570   -2.3570  -38.2920 C.3   143  GLU143      0.0429
     63  CG        16.1630   -1.3650  -38.0320 C.3   143  GLU143      0.1163
     64  CD        14.9060   -2.0660  -37.6120 C.2   143  GLU143      0.3649
     65  OE1       15.0530   -3.0430  -36.8640 O.co2 143  GLU143     -0.2457
     66  OE2       13.7950   -1.6640  -38.0170 O.co2 143  GLU143     -0.2457
     67  N         16.3880   -1.8910  -41.7660 N.am  144  PHE144     -0.1974
     68  CA        16.4700   -0.9230  -42.8560 C.3   144  PHE144      0.1639
     69  C         15.8970    0.4350  -42.4440 C.2   144  PHE144      0.2290
     70  O         16.5580    1.4710  -42.6000 O.2   144  PHE144     -0.2864
     71  CB        15.7340   -1.4530  -44.0880 C.3   144  PHE144      0.0560
     72  CG        15.9720   -2.9120  -44.3620 C.ar  144  PHE144     -0.0200
     73  CD1       15.2750   -3.8890  -43.6520 C.ar  144  PHE144     -0.0042
     74  CD2       16.8780   -3.3120  -45.3450 C.ar  144  PHE144     -0.0042
     75  CE1       15.4850   -5.2430  -43.8990 C.ar  144  PHE144     -0.0003
     76  CE2       17.0890   -4.6590  -45.6070 C.ar  144  PHE144     -0.0003
     77  CZ        16.3890   -5.6290  -44.8810 C.ar  144  PHE144     -0.0000
     78  N         20.2440    0.5960  -36.0990 N.3   148  ARG148     -0.1245
     79  CA        20.6060    0.4100  -34.7080 C.3   148  ARG148      0.1563
     80  C         21.8830    1.1840  -34.4020 C.2   148  ARG148      0.2260
     81  O         22.8280    1.2080  -35.2040 O.2   148  ARG148     -0.2867
     82  CB        20.8090   -1.0760  -34.4000 C.3   148  ARG148      0.0307
     83  CG        19.5450   -1.9170  -34.4270 C.3   148  ARG148      0.0489
     84  CD        19.8040   -3.3170  -33.8690 C.3   148  ARG148      0.2205
     85  NE        20.8400   -4.0130  -34.6190 N.pl3 148  ARG148     -0.0865
     86  CZ        20.5820   -4.8120  -35.6450 C.cat 148  ARG148      0.5346
     87  NH1       19.3260   -5.0260  -36.0220 N.pl3 148  ARG148      0.1354
     88  NH2       21.5820   -5.3920  -36.2890 N.pl3 148  ARG148      0.1354
@<TRIPOS>BOND
     1    76    74   ar
     2    76    77   ar
     3    74    72   ar
     4    77    75   ar
     5    72    71    1
     6    72    73   ar
     7    71    68    1
     8    75    73   ar
     9    56    54   ar
    10    56    57   ar
    11    54    53   ar
    12    68    69    1
    13    68    67    1
    14    57    55   ar
    15    53    52    1
    16    53    55   ar
    17    70    69    2
    18    52    49    1
    19    67    60   am
    20    47    45   ar
    21    51    50    2
    22    49    48    1
    23    49    50    1
    24    60    61    2
    25    60    59    1
    26    48    41   am
    27    50    58   am
    28    45    46   ar
    29    45    44    1
    30    58    59    1
    31    43    44    1
    32    43    40    1
    33    59    62    1
    34    41    40    1
    35    41    42    2
    36    40    39    1
    37    62    63    1
    38    63    64    1
    39    66    64   ar
    40    10    11   ar
    41    10     8   ar
    42    64    65   ar
    43    11     9   ar
    44    37    36   ar
    45     8     6   ar
    46    38    36   ar
    47     9     7   ar
    48     6     7   ar
    49     6     5    1
    50    36    35    1
    51    88    86    1
    52     5     2    1
    53    78    79    1
    54    87    86    1
    55    86    85    2
    56    81    80    2
    57    35    32    1
    58     4     3    2
    59    33    32    1
    60    33    34    2
    61    32    31    1
    62    79    80    1
    63    79    82    1
    64     2     3    1
    65     2     1    1
    66    85    84    1
    67    83    82    1
    68    83    84    1
    69    21    20    1
    70    30    28   am
    71    29    28    2
    72    20    22    1
    73    20    17    1
    74    13    12    1
    75    13    14    1
    76    28    27    1
    77    16    14   am
    78    16    17    1
    79    14    15    2
    80    17    18    1
    81    27    24    1
    82    23    18   am
    83    23    24    1
    84    18    19    2
    85    24    25    1
    86    25    26    2
