@<TRIPOS>MOLECULE
tmp/6mejC00.pdb
 83 80 0 0 0
SMALL
GASTEIGER

@<TRIPOS>ATOM
      1  N         -0.0560   10.6350  -76.2560 N.3    77  ASP77      -0.1225
      2  CA         0.1750   11.0060  -74.8620 C.3    77  ASP77       0.1805
      3  C          0.7250   12.3970  -74.7090 C.2    77  ASP77       0.2598
      4  O          0.9120   12.8450  -73.5670 O.2    77  ASP77      -0.2718
      5  CB         1.0840   10.0030  -74.1770 C.3    77  ASP77       0.1424
      6  CG         0.5350    9.5940  -72.8570 C.2    77  ASP77       0.3668
      7  OD1       -0.5960   10.0350  -72.5790 O.co2  77  ASP77      -0.2456
      8  OD2        1.1910    8.8370  -72.1310 O.co2  77  ASP77      -0.2456
      9  N          0.9740   13.1010  -75.8060 N.am   78  GLN78      -0.1965
     10  CA         1.2160   14.5230  -75.7640 C.3    78  GLN78       0.1733
     11  C          0.0690   15.2110  -75.0340 C.2    78  GLN78       0.2616
     12  O         -1.1130   14.8830  -75.2080 O.2    78  GLN78      -0.2715
     13  CB         1.2950   15.0860  -77.1830 C.3    78  GLN78       0.0408
     14  CG         2.4030   14.5590  -78.0490 C.3    78  GLN78       0.0908
     15  CD         3.8400   14.6860  -77.5120 C.2    78  GLN78       0.2608
     16  OE1        4.1160   14.6290  -76.3010 O.2    78  GLN78      -0.2717
     17  NE2        4.7710   14.8250  -78.4470 N.am   78  GLN78      -0.0878
     18  N          0.4290   16.1540  -74.1870 N.am   79  ARG79      -0.1977
     19  CA        -0.5520   17.1090  -73.6990 C.3    79  ARG79       0.1597
     20  C         -1.1030   17.9100  -74.8760 C.2    79  ARG79       0.2287
     21  O         -0.3500   18.3000  -75.7800 O.2    79  ARG79      -0.2864
     22  CB         0.0900   18.0410  -72.6400 C.3    79  ARG79       0.0334
     23  CG         0.0210   17.4740  -71.2330 C.3    79  ARG79       0.0492
     24  CD         0.1120   18.5900  -70.1920 C.3    79  ARG79       0.2205
     25  NE         0.4480   18.1260  -68.8450 N.pl3  79  ARG79      -0.0865
     26  CZ         1.6390   17.6480  -68.4930 C.cat  79  ARG79       0.5346
     27  NH1        2.6100   17.5540  -69.3970 N.pl3  79  ARG79       0.1354
     28  NH2        1.8550   17.2620  -67.2390 N.pl3  79  ARG79       0.1354
     29  N        -11.1350    9.1190  -62.7650 N.3    97  THR97      -0.1218
     30  CA        -9.9180    9.5390  -63.4440 C.3    97  THR97       0.1862
     31  C         -9.7970   11.0500  -63.5850 C.2    97  THR97       0.2287
     32  O         -8.7820   11.5330  -64.1010 O.2    97  THR97      -0.2866
     33  CB        -9.8420    8.8590  -64.8150 C.3    97  THR97       0.1770
     34  OG1       -9.8930    7.4370  -64.6370 O.3    97  THR97      -0.2211
     35  CG2       -8.5550    9.1920  -65.5670 C.3    97  THR97       0.0375
     36  N         -6.8090   15.2800  -65.8550 N.3   152  ASN152     -0.1225
     37  CA        -6.3860   14.0570  -65.1900 C.3   152  ASN152      0.1785
     38  C         -6.3930   14.1450  -63.6680 C.2   152  ASN152      0.2598
     39  O         -6.2250   15.2160  -63.0670 O.2   152  ASN152     -0.2718
     40  CB        -4.9660   13.7210  -65.6150 C.3   152  ASN152      0.1169
     41  CG        -4.7950   12.3050  -65.9510 C.2   152  ASN152      0.2627
     42  OD1       -5.7130   11.5010  -65.7880 O.2   152  ASN152     -0.2716
     43  ND2       -3.6130   11.9680  -66.4340 N.am  152  ASN152     -0.0877
     44  N         -6.5390   12.9850  -63.0440 N.am  153  SER153     -0.1938
     45  CA        -6.3510   12.8850  -61.6110 C.3   153  SER153      0.2055
     46  C         -4.9630   13.3520  -61.1830 C.2   153  SER153      0.2643
     47  O         -4.7930   13.8200  -60.0510 O.2   153  SER153     -0.2714
     48  CB        -6.5920   11.4460  -61.1900 C.3   153  SER153      0.2130
     49  OG        -7.9760   11.1980  -61.1030 O.3   153  SER153     -0.2179
     50  N         -3.9720   13.2680  -62.0770 N.am  154  THR154     -0.1950
     51  CA        -2.5790   13.5250  -61.7280 C.3   154  THR154      0.1897
     52  C         -2.0000   14.7440  -62.4510 C.2   154  THR154      0.2313
     53  O         -0.7860   14.8250  -62.6450 O.2   154  THR154     -0.2863
     54  CB        -1.7310   12.2810  -62.0190 C.3   154  THR154      0.1794
     55  OG1       -1.3540   12.2610  -63.3960 O.3   154  THR154     -0.2208
     56  CG2       -2.5140   11.0130  -61.7410 C.3   154  THR154      0.0378
     57  N         -2.7980   16.1380  -65.7540 N.3   156  PHE156     -0.1227
     58  CA        -2.6430   16.0950  -67.2060 C.3   156  PHE156      0.1736
     59  C         -3.9460   16.5120  -67.8760 C.2   156  PHE156      0.2596
     60  O         -5.0010   15.9420  -67.5810 O.2   156  PHE156     -0.2718
     61  CB        -2.2460   14.6870  -67.6690 C.3   156  PHE156      0.0547
     62  CG        -0.8450   14.2930  -67.3100 C.ar  156  PHE156     -0.0202
     63  CD1        0.2180   14.6710  -68.1140 C.ar  156  PHE156     -0.0042
     64  CD2       -0.5900   13.5500  -66.1770 C.ar  156  PHE156     -0.0042
     65  CE1        1.5050   14.3110  -67.8100 C.ar  156  PHE156     -0.0003
     66  CE2        0.7120   13.1980  -65.8520 C.ar  156  PHE156     -0.0003
     67  CZ         1.7580   13.5800  -66.6750 C.ar  156  PHE156     -0.0000
     68  N         -3.8850   17.4970  -68.7800 N.am  157  THR157     -0.1939
     69  CA        -5.1040   17.8940  -69.4940 C.3   157  THR157      0.2028
     70  C         -5.4770   16.8470  -70.5350 C.2   157  THR157      0.2642
     71  O         -4.6430   16.4400  -71.3470 O.2   157  THR157     -0.2714
     72  CB        -4.9720   19.2510  -70.1970 C.3   157  THR157      0.1808
     73  OG1       -4.1620   20.1390  -69.4380 O.3   157  THR157     -0.2208
     74  CG2       -6.3370   19.8790  -70.3150 C.3   157  THR157      0.0379
     75  N         -6.7350   16.4390  -70.5260 N.am  158  LYS158     -0.1977
     76  CA        -7.2330   15.4000  -71.4100 C.3   158  LYS158      0.1596
     77  C         -8.1810   16.0060  -72.4380 C.2   158  LYS158      0.2287
     78  O         -8.8590   17.0010  -72.1600 O.2   158  LYS158     -0.2864
     79  CB        -7.9370   14.2870  -70.6130 C.3   158  LYS158      0.0298
     80  CG        -7.0050   13.3990  -69.7700 C.3   158  LYS158      0.0038
     81  CD        -5.8350   12.8520  -70.6010 C.3   158  LYS158      0.0206
     82  CE        -5.1420   11.6520  -69.9380 C.3   158  LYS158      0.1093
     83  NZ        -4.5810   10.6960  -70.9620 N.3   158  LYS158     -0.1314
@<TRIPOS>BOND
     1    17    15   am
     2    14    15    1
     3    14    13    1
     4    15    16    2
     5    13    10    1
     6     1     2    1
     7     9    10    1
     8     9     3   am
     9    21    20    2
    10    10    11    1
    11    12    11    2
    12    11    18   am
    13    20    19    1
    14     2     3    1
    15     2     5    1
    16     3     4    2
    17    18    19    1
    18     5     6    1
    19    19    22    1
    20     6     7   ar
    21     6     8   ar
    22    22    23    1
    23    77    78    2
    24    77    76    1
    25    76    79    1
    26    76    75    1
    27    71    70    2
    28    23    24    1
    29    83    82    1
    30    79    80    1
    31    81    82    1
    32    81    80    1
    33    70    75   am
    34    70    69    1
    35    74    72    1
    36    72    69    1
    37    72    73    1
    38    24    25    1
    39    69    68    1
    40    27    26    1
    41    25    26    2
    42    68    59   am
    43    26    28    1
    44    63    65   ar
    45    63    62   ar
    46    59    60    2
    47    59    58    1
    48    65    67   ar
    49    61    62    1
    50    61    58    1
    51    62    64   ar
    52    58    57    1
    53    67    66   ar
    54    43    41   am
    55    64    66   ar
    56    41    42    2
    57    41    40    1
    58    36    37    1
    59    40    37    1
    60    35    33    1
    61    37    38    1
    62    33    34    1
    63    33    30    1
    64    32    31    2
    65    38    39    2
    66    38    44   am
    67    31    30    1
    68    30    29    1
    69    55    54    1
    70    44    45    1
    71    53    52    2
    72    52    51    1
    73    50    51    1
    74    50    46   am
    75    54    56    1
    76    54    51    1
    77    45    48    1
    78    45    46    1
    79    48    49    1
    80    46    47    2
