@<TRIPOS>MOLECULE
tmp/6melB00.pdb
 58 56 0 0 0
SMALL
GASTEIGER

@<TRIPOS>ATOM
      1  N         15.7670   77.7840  -30.1880 N.3   264  ASN264     -0.1225
      2  CA        16.8310   76.8570  -29.8850 C.3   264  ASN264      0.1785
      3  C         17.6400   77.3540  -28.6630 C.2   264  ASN264      0.2597
      4  O         18.2190   78.4570  -28.6770 O.2   264  ASN264     -0.2718
      5  CB        17.7060   76.5620  -31.1070 C.3   264  ASN264      0.1169
      6  CG        18.5060   77.7240  -31.6680 C.2   264  ASN264      0.2627
      7  OD1       18.0460   78.8800  -31.6380 O.2   264  ASN264     -0.2716
      8  ND2       19.6630   77.3910  -32.2580 N.am  264  ASN264     -0.0877
      9  N         17.6970   76.5020  -27.6280 N.am  265  GLY265     -0.1957
     10  CA        18.4610   76.7430  -26.4020 C.3   265  GLY265      0.1869
     11  C         17.5420   77.2960  -25.3030 C.2   265  GLY265      0.2309
     12  O         16.7230   78.1940  -25.5380 O.2   265  GLY265     -0.2863
     13  N         16.3830   71.9240  -31.0950 N.3   290  GLY290     -0.1210
     14  CA        17.7150   72.1730  -31.6610 C.3   290  GLY290      0.1956
     15  C         17.6180   72.8510  -33.0250 C.2   290  GLY290      0.2612
     16  O         16.7540   72.5280  -33.8540 O.2   290  GLY290     -0.2717
     17  N         18.5380   73.7710  -33.2970 N.am  291  GLY291     -0.1942
     18  CA        18.5600   74.4100  -34.5910 C.3   291  GLY291      0.2014
     19  C         18.8390   73.4040  -35.6900 C.2   291  GLY291      0.2639
     20  O         18.4720   73.6120  -36.7920 O.2   291  GLY291     -0.2714
     21  N         19.5760   72.3510  -35.3470 N.am  292  GLY292     -0.1954
     22  CA        19.8950   71.2410  -36.2260 C.3   292  GLY292      0.1869
     23  C         18.8080   70.1820  -36.2860 C.2   292  GLY292      0.2309
     24  O         19.0200   69.1760  -36.9080 O.2   292  GLY292     -0.2863
     25  N         18.7710   81.0280  -33.4060 N.3   319  PHE319     -0.1227
     26  CA        20.1080   81.5100  -33.7090 C.3   319  PHE319      0.1736
     27  C         20.9010   80.3480  -34.3130 C.2   319  PHE319      0.2596
     28  O         21.2790   79.3910  -33.6160 O.2   319  PHE319     -0.2718
     29  CB        20.7880   82.0890  -32.4750 C.3   319  PHE319      0.0547
     30  CG        21.9900   82.9420  -32.7980 C.ar  319  PHE319     -0.0202
     31  CD1       23.1710   82.3620  -33.2190 C.ar  319  PHE319     -0.0042
     32  CD2       21.8960   84.3330  -32.7850 C.ar  319  PHE319     -0.0042
     33  CE1       24.2430   83.1630  -33.6000 C.ar  319  PHE319     -0.0003
     34  CE2       22.9840   85.1270  -33.1300 C.ar  319  PHE319     -0.0003
     35  CZ        24.1430   84.5400  -33.5440 C.ar  319  PHE319     -0.0000
     36  N         21.1060   80.4140  -35.6300 N.am  320  GLY320     -0.1942
     37  CA        21.9570   79.4400  -36.3220 C.3   320  GLY320      0.2014
     38  C         23.4280   79.8170  -36.1840 C.2   320  GLY320      0.2639
     39  O         23.8980   80.7150  -36.8400 O.2   320  GLY320     -0.2714
     40  N         24.1520   79.1240  -35.3130 N.am  321  GLY321     -0.1939
     41  CA        25.5490   79.3940  -35.1040 C.3   321  GLY321      0.2014
     42  C         26.3880   78.4230  -35.9240 C.2   321  GLY321      0.2639
     43  O         26.7970   78.7340  -37.0370 O.2   321  GLY321     -0.2714
     44  N         26.5780   77.2200  -35.3750 N.am  322  ILE322     -0.1963
     45  CA        27.1510   76.0860  -36.0860 C.3   322  ILE322      0.1727
     46  C         26.1940   75.6460  -37.2020 C.2   322  ILE322      0.2616
     47  O         26.6600   75.1880  -38.2310 O.2   322  ILE322     -0.2715
     48  CB        27.4290   74.9100  -35.1280 C.3   322  ILE322      0.0290
     49  CG1       28.3600   75.3100  -33.9850 C.3   322  ILE322      0.0022
     50  CG2       27.9570   73.6940  -35.8870 C.3   322  ILE322      0.0023
     51  CD1       29.6570   75.9490  -34.4110 C.3   322  ILE322      0.0001
     52  N         24.8720   75.7080  -36.9700 N.am  323  VAL323     -0.1977
     53  CA        23.8980   75.3210  -37.9920 C.3   323  VAL323      0.1596
     54  C         23.5590   76.5560  -38.8260 C.2   323  VAL323      0.2287
     55  O         23.3120   77.5990  -38.2920 O.2   323  VAL323     -0.2864
     56  CB        22.6290   74.7050  -37.3750 C.3   323  VAL323      0.0276
     57  CG1       21.6200   74.3180  -38.4490 C.3   323  VAL323      0.0022
     58  CG2       22.9820   73.4810  -36.5360 C.3   323  VAL323      0.0022
@<TRIPOS>BOND
     1    54    55    2
     2    54    53    1
     3    57    56    1
     4    47    46    2
     5    53    56    1
     6    53    52    1
     7    56    58    1
     8    46    52   am
     9    46    45    1
    10    43    42    2
    11    24    23    2
    12    39    38    2
    13    20    19    2
    14    37    38    1
    15    37    36    1
    16    23    22    1
    17    22    21    1
    18    38    40   am
    19    45    44    1
    20    45    48    1
    21    42    44   am
    22    42    41    1
    23    50    48    1
    24    19    21   am
    25    19    18    1
    26    36    27   am
    27    40    41    1
    28    48    49    1
    29    18    17    1
    30    51    49    1
    31    27    26    1
    32    27    28    2
    33    16    15    2
    34    26    25    1
    35    26    29    1
    36    33    35   ar
    37    33    31   ar
    38    35    34   ar
    39    17    15   am
    40    31    30   ar
    41    34    32   ar
    42    15    14    1
    43    30    32   ar
    44    30    29    1
    45     8     6   am
    46     6     7    2
    47     6     5    1
    48    14    13    1
    49     5     2    1
    50     1     2    1
    51     2     3    1
    52     4     3    2
    53     3     9   am
    54     9    10    1
    55    10    11    1
    56    12    11    2
