@<TRIPOS>MOLECULE
tmp/6meoA06.pdb
 126 124 0 0 0
SMALL
GASTEIGER

@<TRIPOS>ATOM
      1  N        128.7500  164.6380  148.6720 N.3   125  PHE125     -0.1227
      2  CA       128.5120  165.7880  147.8060 C.3   125  PHE125      0.1736
      3  C        128.4520  165.3260  146.3590 C.2   125  PHE125      0.2595
      4  O        129.4260  164.7660  145.8450 O.2   125  PHE125     -0.2718
      5  CB       129.6120  166.8350  147.9950 C.3   125  PHE125      0.0547
      6  CG       129.4520  168.0560  147.1380 C.ar  125  PHE125     -0.0202
      7  CD1      128.5170  169.0260  147.4570 C.ar  125  PHE125     -0.0042
      8  CD2      130.2530  168.2410  146.0190 C.ar  125  PHE125     -0.0042
      9  CE1      128.3760  170.1570  146.6710 C.ar  125  PHE125     -0.0003
     10  CE2      130.1130  169.3660  145.2270 C.ar  125  PHE125     -0.0003
     11  CZ       129.1750  170.3240  145.5540 C.ar  125  PHE125     -0.0000
     12  N        127.3110  165.5660  145.7090 N.am  126  GLU126     -0.1966
     13  CA       127.0850  165.2450  144.3040 C.3   126  GLU126      0.1718
     14  C        125.9130  166.0720  143.7870 C.2   126  GLU126      0.2458
     15  O        124.8490  166.0940  144.4190 O.2   126  GLU126     -0.2730
     16  CB       126.8110  163.7540  144.1110 C.3   126  GLU126      0.0428
     17  CG       126.6390  163.3530  142.6560 C.3   126  GLU126      0.1163
     18  CD       126.4050  161.8660  142.4790 C.2   126  GLU126      0.3649
     19  OE1      126.3540  161.1450  143.4970 O.co2 126  GLU126     -0.2457
     20  OE2      126.2730  161.4200  141.3200 O.co2 126  GLU126     -0.2457
     21  N        126.0640  166.7660  142.6600 N.am  127  PRO127     -0.2727
     22  CA       124.9530  167.5620  142.1290 C.3   127  PRO127      0.1402
     23  C        123.8440  166.6940  141.5510 C.2   127  PRO127      0.2269
     24  O        124.0320  165.5210  141.2220 O.2   127  PRO127     -0.2865
     25  CB       125.6160  168.4050  141.0330 C.3   127  PRO127      0.0296
     26  CG       127.0680  168.4180  141.3880 C.3   127  PRO127      0.0237
     27  CD       127.3310  167.0710  141.9790 C.3   127  PRO127      0.0939
     28  N        122.3420  171.5000  136.5170 N.3   167  LYS167     -0.1245
     29  CA       123.0430  171.0700  137.7160 C.3   167  LYS167      0.1561
     30  C        123.6500  172.2600  138.4520 C.2   167  LYS167      0.2260
     31  O        124.1360  173.2030  137.8170 O.2   167  LYS167     -0.2867
     32  CB       124.1330  170.0540  137.3830 C.3   167  LYS167      0.0271
     33  CG       123.5690  168.6970  137.0120 C.3   167  LYS167      0.0035
     34  CD       124.6600  167.6680  136.8120 C.3   167  LYS167      0.0206
     35  CE       124.0740  166.3140  136.4630 C.3   167  LYS167      0.1093
     36  NZ       125.1360  165.2920  136.2800 N.3   167  LYS167     -0.1314
     37  N        126.4220  172.6530  139.8700 N.3   169  VAL169     -0.1231
     38  CA       127.8770  172.5310  139.9660 C.3   169  VAL169      0.1692
     39  C        128.5480  173.9050  139.9520 C.2   169  VAL169      0.2591
     40  O        128.2040  174.7900  139.1580 O.2   169  VAL169     -0.2718
     41  CB       128.3970  171.5970  138.8560 C.3   169  VAL169      0.0266
     42  CG1      128.0130  172.0850  137.4560 C.3   169  VAL169      0.0020
     43  CG2      129.9040  171.3980  138.9690 C.3   169  VAL169      0.0020
     44  N        129.4650  174.1050  140.8960 N.am  170  VAL170     -0.1980
     45  CA       130.1790  175.3610  141.0950 C.3   170  VAL170      0.1595
     46  C        131.6160  175.1650  140.6350 C.2   170  VAL170      0.2287
     47  O        132.3620  174.3780  141.2300 O.2   170  VAL170     -0.2864
     48  CB       130.1240  175.8000  142.5640 C.3   170  VAL170      0.0276
     49  CG1      131.0220  176.9930  142.8060 C.3   170  VAL170      0.0022
     50  CG2      128.6940  176.1110  142.9660 C.3   170  VAL170      0.0022
     51  N        131.7070  172.7520  134.0190 N.3   176  LEU176     -0.1231
     52  CA       131.5130  171.3190  134.1970 C.3   176  LEU176      0.1693
     53  C        130.1190  170.9020  133.7470 C.2   176  LEU176      0.2592
     54  O        129.5410  171.5610  132.8760 O.2   176  LEU176     -0.2718
     55  CB       131.7670  170.9200  135.6440 C.3   176  LEU176      0.0284
     56  CG       133.2160  171.1680  136.0540 C.3   176  LEU176      0.0019
     57  CD1      133.3800  170.8520  137.5040 C.3   176  LEU176      0.0001
     58  CD2      134.1820  170.3480  135.2240 C.3   176  LEU176      0.0001
     59  N        129.6350  169.7680  134.2840 N.am  177  ASN177     -0.1974
     60  CA       128.3790  169.0800  133.9620 C.3   177  ASN177      0.1688
     61  C        127.2040  169.9830  133.6020 C.2   177  ASN177      0.2292
     62  O        126.8610  170.8980  134.3580 O.2   177  ASN177     -0.2864
     63  CB       127.9420  168.2260  135.1560 C.3   177  ASN177      0.1181
     64  CG       128.8240  167.0220  135.3850 C.2   177  ASN177      0.2629
     65  OD1      129.2860  166.3910  134.4430 O.2   177  ASN177     -0.2716
     66  ND2      129.0440  166.6830  136.6530 N.am  177  ASN177     -0.0877
     67  N        137.0850  173.0520  141.4840 N.3   289  PHE289     -0.1227
     68  CA       135.8560  172.2710  141.5230 C.3   289  PHE289      0.1736
     69  C        135.8390  171.4550  142.8040 C.2   289  PHE289      0.2595
     70  O        136.8250  171.4040  143.5440 O.2   289  PHE289     -0.2718
     71  CB       135.6890  171.3800  140.2880 C.3   289  PHE289      0.0547
     72  CG       136.6650  170.2460  140.1920 C.ar  289  PHE289     -0.0202
     73  CD1      137.9190  170.4440  139.6470 C.ar  289  PHE289     -0.0042
     74  CD2      136.3030  168.9640  140.5690 C.ar  289  PHE289     -0.0042
     75  CE1      138.8100  169.4050  139.5150 C.ar  289  PHE289     -0.0003
     76  CE2      137.1960  167.9200  140.4440 C.ar  289  PHE289     -0.0003
     77  CZ       138.4520  168.1470  139.9190 C.ar  289  PHE289     -0.0000
     78  N        134.7020  170.8170  143.0730 N.am  290  ASN290     -0.1960
     79  CA       134.4760  170.1880  144.3630 C.3   290  ASN290      0.1819
     80  C        134.0720  168.7360  144.1520 C.2   290  ASN290      0.2621
     81  O        133.3020  168.4320  143.2380 O.2   290  ASN290     -0.2715
     82  CB       133.3630  170.9110  145.1250 C.3   290  ASN290      0.1195
     83  CG       133.5710  172.4180  145.1810 C.2   290  ASN290      0.2630
     84  OD1      134.6920  172.9060  145.2880 O.2   290  ASN290     -0.2716
     85  ND2      132.4760  173.1610  145.1040 N.am  290  ASN290     -0.0877
     86  N        134.5590  167.8460  145.0260 N.am  291  CYS291     -0.1968
     87  CA       134.1870  166.4250  144.9840 C.3   291  CYS291      0.1712
     88  C        134.2140  165.8890  146.4170 C.2   291  CYS291      0.2296
     89  O        135.2560  165.4360  146.8940 O.2   291  CYS291     -0.2864
     90  CB       135.1100  165.6040  144.0950 C.3   291  CYS291      0.0983
     91  SG       134.9930  165.8120  142.3090 S.3   291  CYS291     -0.0798
     92  N        137.1120  159.8930  143.0480 N.3   346  LYS346     -0.1231
     93  CA       137.1930  159.9730  141.5960 C.3   346  LYS346      0.1693
     94  C        136.1350  160.9330  141.0750 C.2   346  LYS346      0.2592
     95  O        134.9560  160.8140  141.4240 O.2   346  LYS346     -0.2718
     96  CB       137.0170  158.5920  140.9600 C.3   346  LYS346      0.0285
     97  CG       138.1710  157.6480  141.2380 C.3   346  LYS346      0.0035
     98  CD       137.9630  156.3030  140.5670 C.3   346  LYS346      0.0206
     99  CE       139.1200  155.3610  140.8570 C.3   346  LYS346      0.1093
    100  NZ       138.9350  154.0340  140.2080 N.3   346  LYS346     -0.1314
    101  N        136.5620  161.8820  140.2450 N.am  347  CYS347     -0.1956
    102  CA       135.6760  162.8650  139.6290 C.3   347  CYS347      0.1843
    103  C        135.6500  162.5670  138.1310 C.2   347  CYS347      0.2626
    104  O        136.4450  163.1120  137.3640 O.2   347  CYS347     -0.2714
    105  CB       136.1670  164.2830  139.9070 C.3   347  CYS347      0.0997
    106  SG       136.4850  164.6050  141.6550 S.3   347  CYS347     -0.0797
    107  N        134.7400  161.6830  137.7170 N.am  348  SER348     -0.1936
    108  CA       134.5800  161.3490  136.2990 C.3   348  SER348      0.2055
    109  C        133.6170  162.3610  135.6880 C.2   348  SER348      0.2644
    110  O        132.4420  162.0870  135.4410 O.2   348  SER348     -0.2714
    111  CB       134.0850  159.9190  136.1310 C.3   348  SER348      0.2130
    112  OG       135.0270  158.9940  136.6410 O.3   348  SER348     -0.2179
    113  N        134.1440  163.5510  135.4280 N.am  349  SER349     -0.1935
    114  CA       133.3360  164.7080  135.0810 C.3   349  SER349      0.2055
    115  C        133.1980  164.8640  133.5660 C.2   349  SER349      0.2643
    116  O        133.5290  163.9740  132.7790 O.2   349  SER349     -0.2714
    117  CB       133.9320  165.9610  135.7160 C.3   349  SER349      0.2130
    118  OG       133.1830  167.1080  135.3630 O.3   349  SER349     -0.2179
    119  N        132.6960  166.0260  133.1620 N.am  350  ASN350     -0.1971
    120  CA       132.4670  166.4280  131.7850 C.3   350  ASN350      0.1688
    121  C        132.9960  167.8460  131.6330 C.2   350  ASN350      0.2292
    122  O        133.2850  168.5260  132.6200 O.2   350  ASN350     -0.2864
    123  CB       130.9720  166.4040  131.4430 C.3   350  ASN350      0.1181
    124  CG       130.3860  165.0050  131.3960 C.2   350  ASN350      0.2629
    125  OD1      129.9570  164.4850  132.4220 O.2   350  ASN350     -0.2716
    126  ND2      130.2710  164.4310  130.1920 N.am  350  ASN350     -0.0877
@<TRIPOS>BOND
     1   126   124   am
     2   124   123    1
     3   124   125    2
     4   123   120    1
     5   121   120    1
     6   121   122    2
     7   120   119    1
     8   116   115    2
     9    54    53    2
    10   119   115   am
    11   115   114    1
    12    61    60    1
    13    61    62    2
    14    53    52    1
    15    53    59   am
    16    60    59    1
    17    60    63    1
    18    51    52    1
    19    52    55    1
    20    65    64    2
    21   114   113    1
    22   114   117    1
    23    63    64    1
    24    58    56    1
    25   118   117    1
    26    64    66   am
    27   113   109   am
    28   110   109    2
    29    55    56    1
    30   109   108    1
    31    56    57    1
    32   111   108    1
    33   111   112    1
    34    36    35    1
    35   108   107    1
    36    35    34    1
    37    28    29    1
    38    34    33    1
    39    33    32    1
    40   104   103    2
    41    32    29    1
    42    42    41    1
    43    29    30    1
    44   107   103   am
    45    31    30    2
    46   103   102    1
    47    41    43    1
    48    41    38    1
    49    40    39    2
    50    75    73   ar
    51    75    77   ar
    52   102   105    1
    53   102   101    1
    54    73    72   ar
    55    37    38    1
    56   105   106    1
    57    77    76   ar
    58    39    38    1
    59    39    44   am
    60    72    71    1
    61    72    74   ar
    62   100    99    1
    63   101    94   am
    64    71    68    1
    65    76    74   ar
    66    98    99    1
    67    98    97    1
    68    46    45    1
    69    46    47    2
    70    44    45    1
    71    96    97    1
    72    96    93    1
    73    25    26    1
    74    25    22    1
    75    94    95    2
    76    94    93    1
    77    45    48    1
    78    24    23    2
    79    20    18   ar
    80    26    27    1
    81    67    68    1
    82    68    69    1
    83    23    22    1
    84    93    92    1
    85   106    91    1
    86    27    21    1
    87    22    21    1
    88    91    90    1
    89    18    17    1
    90    18    19   ar
    91    48    49    1
    92    48    50    1
    93    17    16    1
    94    21    14   am
    95    69    78   am
    96    69    70    2
    97    78    79    1
    98    81    80    2
    99    14    13    1
   100    14    15    2
   101    90    87    1
   102    16    13    1
   103    80    79    1
   104    80    86   am
   105    13    12    1
   106    79    82    1
   107    87    86    1
   108    87    88    1
   109    85    83   am
   110    82    83    1
   111    83    84    2
   112    10    11   ar
   113    10     8   ar
   114    11     9   ar
   115    12     3   am
   116     4     3    2
   117     8     6   ar
   118     3     2    1
   119    88    89    2
   120     9     7   ar
   121     6     7   ar
   122     6     5    1
   123     2     5    1
   124     2     1    1
