@<TRIPOS>MOLECULE
tmp/6mezA06.pdb
 169 165 0 0 0
SMALL
GASTEIGER

@<TRIPOS>ATOM
      1  N        -13.6900   43.5050  -55.5650 N.3    32  ALA32      -0.1231
      2  CA       -13.5400   44.6650  -56.4370 C.3    32  ALA32       0.1694
      3  C        -14.6050   44.6840  -57.5440 C.2    32  ALA32       0.2592
      4  O        -14.6150   45.5840  -58.3860 O.2    32  ALA32      -0.2718
      5  CB       -12.1430   44.6850  -57.0570 C.3    32  ALA32       0.0304
      6  N        -15.4870   43.6880  -57.5560 N.am   33  ILE33      -0.1966
      7  CA       -16.4920   43.6030  -58.6230 C.3    33  ILE33       0.1712
      8  C        -17.4850   44.7560  -58.4930 C.2    33  ILE33       0.2458
      9  O        -18.0290   44.9660  -57.4170 O.2    33  ILE33      -0.2730
     10  CB       -17.2870   42.2730  -58.5650 C.3    33  ILE33       0.0289
     11  CG1      -16.3620   41.0940  -58.2270 C.3    33  ILE33       0.0022
     12  CG2      -18.0720   42.0670  -59.8700 C.3    33  ILE33       0.0023
     13  CD1      -15.2890   40.8410  -59.2310 C.3    33  ILE33       0.0001
     14  N        -17.7420   45.4940  -59.5870 N.am   34  PRO34      -0.2727
     15  CA       -18.6290   46.6660  -59.4360 C.3    34  PRO34       0.1402
     16  C        -20.1190   46.3200  -59.3910 C.2    34  PRO34       0.2269
     17  O        -20.9610   47.2170  -59.3910 O.2    34  PRO34      -0.2865
     18  CB       -18.2950   47.5200  -60.6610 C.3    34  PRO34       0.0296
     19  CG       -17.7370   46.5510  -61.6760 C.3    34  PRO34       0.0237
     20  CD       -17.0300   45.4800  -60.8830 C.3    34  PRO34       0.0939
     21  N        -20.1540   25.8620  -64.9270 N.3    62  ILE62      -0.1245
     22  CA       -20.0160   27.1000  -64.1710 C.3    62  ILE62       0.1561
     23  C        -21.3970   27.6460  -63.8930 C.2    62  ILE62       0.2260
     24  O        -22.2440   27.7070  -64.7820 O.2    62  ILE62      -0.2867
     25  CB       -19.1880   28.1500  -64.9340 C.3    62  ILE62       0.0252
     26  CG1      -17.7420   27.6790  -65.0730 C.3    62  ILE62       0.0019
     27  CG2      -19.2440   29.5020  -64.2290 C.3    62  ILE62       0.0019
     28  CD1      -16.9370   28.5350  -66.0390 C.3    62  ILE62       0.0001
     29  N        -22.7730   28.0710  -67.5500 N.3    73  LEU73      -0.1245
     30  CA       -22.0330   27.6280  -68.7210 C.3    73  LEU73       0.1561
     31  C        -21.7230   26.1610  -68.5400 C.2    73  LEU73       0.2260
     32  O        -21.2720   25.7480  -67.4750 O.2    73  LEU73      -0.2867
     33  CB       -20.7330   28.4230  -68.8960 C.3    73  LEU73       0.0270
     34  CG       -19.8200   27.9010  -70.0130 C.3    73  LEU73       0.0019
     35  CD1      -20.4260   28.2520  -71.3750 C.3    73  LEU73       0.0001
     36  CD2      -18.4170   28.4630  -69.8840 C.3    73  LEU73       0.0001
     37  N        -12.2930   41.4260  -74.5510 N.3   177  PHE177     -0.1227
     38  CA       -11.6840   41.4870  -73.2270 C.3   177  PHE177      0.1736
     39  C        -12.3560   42.5630  -72.3950 C.2   177  PHE177      0.2595
     40  O        -11.7730   43.6010  -72.0730 O.2   177  PHE177     -0.2718
     41  CB       -10.1790   41.6990  -73.3670 C.3   177  PHE177      0.0547
     42  CG        -9.5310   40.6320  -74.2010 C.ar  177  PHE177     -0.0202
     43  CD1       -9.4140   39.3400  -73.7100 C.ar  177  PHE177     -0.0042
     44  CD2       -9.1080   40.8930  -75.4930 C.ar  177  PHE177     -0.0042
     45  CE1       -8.8520   38.3350  -74.4770 C.ar  177  PHE177     -0.0003
     46  CE2       -8.5470   39.8940  -76.2680 C.ar  177  PHE177     -0.0003
     47  CZ        -8.4210   38.6110  -75.7630 C.ar  177  PHE177     -0.0000
     48  N        -13.5980   42.2810  -72.0590 N.am  178  ILE178     -0.1966
     49  CA       -14.4810   43.2080  -71.3770 C.3   178  ILE178      0.1727
     50  C        -13.9410   43.6870  -70.0360 C.2   178  ILE178      0.2617
     51  O        -13.2790   42.9430  -69.3080 O.2   178  ILE178     -0.2715
     52  CB       -15.8760   42.5440  -71.2050 C.3   178  ILE178      0.0290
     53  CG1      -16.9030   43.5360  -70.6560 C.3   178  ILE178      0.0022
     54  CG2      -15.7830   41.2770  -70.3420 C.3   178  ILE178      0.0023
     55  CD1      -18.3280   42.9900  -70.6950 C.3   178  ILE178      0.0001
     56  N        -14.2280   44.9450  -69.7220 N.am  179  GLY179     -0.1941
     57  CA       -13.8960   45.5030  -68.4180 C.3   179  GLY179      0.1998
     58  C        -12.4010   45.4190  -68.1500 C.2   179  GLY179      0.2481
     59  O        -11.5850   45.7230  -69.0280 O.2   179  GLY179     -0.2729
     60  N        -12.0250   44.9910  -66.9330 N.am  180  PRO180     -0.2715
     61  CA       -10.6140   44.9590  -66.5260 C.3   180  PRO180      0.1536
     62  C         -9.8050   43.8650  -67.2220 C.2   180  PRO180      0.2598
     63  O         -8.5890   43.8050  -67.0430 O.2   180  PRO180     -0.2715
     64  CB       -10.6890   44.6960  -65.0150 C.3   180  PRO180      0.0310
     65  CG       -12.0920   45.0610  -64.6150 C.3   180  PRO180      0.0237
     66  CD       -12.9360   44.7350  -65.8050 C.3   180  PRO180      0.0939
     67  N        -10.4610   43.0030  -67.9990 N.am  181  ALA181     -0.1978
     68  CA        -9.7190   41.9500  -68.6930 C.3   181  ALA181      0.1597
     69  C         -8.7270   42.5490  -69.6910 C.2   181  ALA181      0.2287
     70  O         -7.6410   42.0190  -69.8830 O.2   181  ALA181     -0.2864
     71  CB       -10.6890   40.9750  -69.4240 C.3   181  ALA181      0.0319
     72  N         -5.3820   43.5030  -68.1680 N.3   184  ALA184     -0.1231
     73  CA        -4.6300   42.3740  -67.6240 C.3   184  ALA184      0.1694
     74  C         -3.7650   41.7000  -68.6740 C.2   184  ALA184      0.2591
     75  O         -2.8200   41.0040  -68.3120 O.2   184  ALA184     -0.2718
     76  CB        -5.5670   41.3420  -66.9700 C.3   184  ALA184      0.0304
     77  N         -4.0740   41.8970  -69.9570 N.am  185  ILE185     -0.1980
     78  CA        -3.2730   41.2840  -71.0300 C.3   185  ILE185      0.1595
     79  C         -1.8170   41.7560  -70.9370 C.2   185  ILE185      0.2287
     80  O         -0.9010   40.9510  -70.7790 O.2   185  ILE185     -0.2864
     81  CB        -3.8470   41.6020  -72.4280 C.3   185  ILE185      0.0276
     82  CG1       -5.2610   41.0330  -72.5680 C.3   185  ILE185      0.0022
     83  CG2       -2.9530   41.0350  -73.5200 C.3   185  ILE185      0.0022
     84  CD1       -6.0390   41.6160  -73.7770 C.3   185  ILE185      0.0001
     85  N          1.5340   39.5040  -72.0790 N.3   190  GLN190     -0.1245
     86  CA         0.7910   38.7520  -73.0830 C.3   190  GLN190      0.1566
     87  C          0.4070   39.6880  -74.2280 C.2   190  GLN190      0.2260
     88  O          0.3190   40.9080  -74.0440 O.2   190  GLN190     -0.2867
     89  CB        -0.4520   38.1090  -72.4490 C.3   190  GLN190      0.0367
     90  CG        -1.1440   37.0350  -73.2750 C.3   190  GLN190      0.0905
     91  CD        -2.1120   36.2290  -72.4090 C.2   190  GLN190      0.2608
     92  OE1       -2.3900   36.6000  -71.2690 O.2   190  GLN190     -0.2717
     93  NE2       -2.6050   35.1180  -72.9350 N.am  190  GLN190     -0.0878
     94  N          1.7340   31.0270  -68.6860 N.3   226  ASP226     -0.1239
     95  CA         1.9770   29.5920  -68.4840 C.3   226  ASP226      0.1674
     96  C          1.3720   28.7300  -69.5780 C.2   226  ASP226      0.2266
     97  O          1.8650   27.6340  -69.8350 O.2   226  ASP226     -0.2867
     98  CB         1.4240   29.1310  -67.1370 C.3   226  ASP226      0.1410
     99  CG         1.7120   30.1160  -66.0250 C.2   226  ASP226      0.3668
    100  OD1        0.8030   30.9000  -65.6940 O.co2 226  ASP226     -0.2456
    101  OD2        2.8490   30.1190  -65.4960 O.co2 226  ASP226     -0.2456
    102  N        -16.9150   30.5360  -54.7200 N.3   250  PHE250     -0.1241
    103  CA       -16.7360   31.6680  -53.8200 C.3   250  PHE250      0.1605
    104  C        -18.0450   32.3930  -53.6130 C.2   250  PHE250      0.2264
    105  O        -18.9720   32.2650  -54.4120 O.2   250  PHE250     -0.2867
    106  CB       -15.6610   32.6470  -54.3230 C.3   250  PHE250      0.0534
    107  CG       -16.0050   33.3740  -55.6060 C.ar  250  PHE250     -0.0203
    108  CD1      -16.8460   34.4840  -55.5970 C.ar  250  PHE250     -0.0042
    109  CD2      -15.4360   32.9850  -56.8110 C.ar  250  PHE250     -0.0042
    110  CE1      -17.1420   35.1700  -56.7800 C.ar  250  PHE250     -0.0003
    111  CE2      -15.7130   33.6750  -57.9990 C.ar  250  PHE250     -0.0003
    112  CZ       -16.5660   34.7590  -57.9890 C.ar  250  PHE250     -0.0000
    113  N          2.3160   28.3390  -61.0380 N.3   283  PRO283     -0.2116
    114  CA         2.0300   29.0670  -62.2850 C.3   283  PRO283      0.1372
    115  C          2.0060   30.5810  -61.9920 C.2   283  PRO283      0.2244
    116  O          1.5730   30.9730  -60.9930 O.2   283  PRO283     -0.2868
    117  CB         0.6850   28.5390  -62.7250 C.3   283  PRO283      0.0268
    118  CG         0.0150   28.0680  -61.5120 C.3   283  PRO283      0.0207
    119  CD         1.1020   27.4700  -60.6920 C.3   283  PRO283      0.0892
    120  N          0.6880   33.3710  -64.0400 N.3   285  ILE285     -0.1231
    121  CA        -0.4600   34.1720  -64.4110 C.3   285  ILE285      0.1678
    122  C         -1.4330   34.3900  -63.2700 C.2   285  ILE285      0.2434
    123  O         -1.8840   35.4530  -63.0530 O.2   285  ILE285     -0.2733
    124  CB        -1.1430   33.6460  -65.6760 C.3   285  ILE285      0.0265
    125  CG1       -0.2670   33.9570  -66.8670 C.3   285  ILE285      0.0019
    126  CG2       -2.5130   34.2640  -65.8930 C.3   285  ILE285      0.0020
    127  CD1       -0.2800   35.3990  -67.2550 C.3   285  ILE285      0.0001
    128  N         -1.7640   33.3380  -62.5590 N.am  286  PRO286     -0.2729
    129  CA        -2.7080   33.5570  -61.4640 C.3   286  PRO286      0.1401
    130  C         -2.2010   34.5690  -60.4380 C.2   286  PRO286      0.2269
    131  O         -2.9560   35.3100  -59.9340 O.2   286  PRO286     -0.2865
    132  CB        -2.8620   32.1820  -60.8260 C.3   286  PRO286      0.0296
    133  CG        -2.4280   31.2330  -61.8630 C.3   286  PRO286      0.0237
    134  CD        -1.5740   31.9180  -62.8560 C.3   286  PRO286      0.0939
    135  N         -2.1950   38.2040  -62.1680 N.3   289  HIS289     -0.1226
    136  CA        -3.5470   38.6880  -62.3180 C.3   289  HIS289      0.1752
    137  C         -4.2520   38.9840  -60.9940 C.2   289  HIS289      0.2596
    138  O         -4.8670   39.9700  -60.8530 O.2   289  HIS289     -0.2718
    139  CB        -4.3940   37.7440  -63.1690 C.3   289  HIS289      0.0759
    140  CG        -4.0170   37.7620  -64.6040 C.ar  289  HIS289      0.0818
    141  ND1       -4.7190   37.1110  -65.5730 N.ar  289  HIS289     -0.2268
    142  CD2       -3.0340   38.4200  -65.2390 C.ar  289  HIS289      0.1154
    143  CE1       -4.1640   37.3210  -66.7370 C.ar  289  HIS289      0.1986
    144  NE2       -3.1430   38.1250  -66.5690 N.ar  289  HIS289     -0.2212
    145  N         -4.1400   38.0660  -60.0460 N.am  290  HIS290     -0.1975
    146  CA        -4.7720   38.2700  -58.7530 C.3   290  HIS290      0.1656
    147  C         -4.1090   39.4770  -58.0870 C.2   290  HIS290      0.2291
    148  O         -4.6750   40.1660  -57.3360 O.2   290  HIS290     -0.2864
    149  CB        -4.6580   37.0600  -57.8560 C.3   290  HIS290      0.0771
    150  CG        -5.2790   37.2600  -56.5190 C.ar  290  HIS290      0.0820
    151  ND1       -4.6020   37.8370  -55.4840 N.ar  290  HIS290     -0.2267
    152  CD2       -6.5260   37.0240  -56.0650 C.ar  290  HIS290      0.1154
    153  CE1       -5.4000   37.9360  -54.4490 C.ar  290  HIS290      0.1986
    154  NE2       -6.5680   37.4420  -54.7710 N.ar  290  HIS290     -0.2212
    155  N         -3.5630   42.1310  -59.3110 N.3   292  MET292     -0.1230
    156  CA        -4.2150   43.3650  -59.6960 C.3   292  MET292      0.1702
    157  C         -5.3580   43.7650  -58.7460 C.2   292  MET292      0.2592
    158  O         -5.8230   44.8550  -58.7910 O.2   292  MET292     -0.2718
    159  CB        -4.7230   43.2510  -61.1190 C.3   292  MET292      0.0401
    160  CG        -3.6200   43.0330  -62.1150 C.3   292  MET292      0.0596
    161  SD        -4.1640   42.9400  -63.8290 S.3   292  MET292     -0.1393
    162  CE        -4.5680   44.6120  -64.1730 C.3   292  MET292      0.0692
    163  N         -5.7770   42.8390  -57.9070 N.am  293  VAL293     -0.1980
    164  CA        -6.8310   43.0770  -56.9460 C.3   293  VAL293      0.1595
    165  C         -6.3870   42.8550  -55.4950 C.2   293  VAL293      0.2287
    166  O         -7.1120   43.1390  -54.6100 O.2   293  VAL293     -0.2864
    167  CB        -8.0590   42.1800  -57.1760 C.3   293  VAL293      0.0276
    168  CG1       -8.7210   42.5110  -58.4590 C.3   293  VAL293      0.0022
    169  CG2       -7.6790   40.7150  -57.1330 C.3   293  VAL293      0.0022
@<TRIPOS>BOND
     1    46    47   ar
     2    46    44   ar
     3    47    45   ar
     4    44    42   ar
     5    37    38    1
     6    45    43   ar
     7    87    88    2
     8    87    86    1
     9    42    43   ar
    10    42    41    1
    11    84    82    1
    12    83    81    1
    13    41    38    1
    14    90    89    1
    15    90    91    1
    16    38    39    1
    17    86    89    1
    18    86    85    1
    19    93    91   am
    20    82    81    1
    21    81    78    1
    22    91    92    2
    23    39    40    2
    24    39    48   am
    25    48    49    1
    26    49    52    1
    27    49    50    1
    28    35    34    1
    29    52    53    1
    30    52    54    1
    31    78    79    1
    32    78    77    1
    33    79    80    2
    34    55    53    1
    35    50    56   am
    36    50    51    2
    37    34    36    1
    38    34    33    1
    39    77    74   am
    40    70    69    2
    41    97    96    2
    42    56    57    1
    43    69    68    1
    44    96    95    1
    45    71    68    1
    46    59    58    2
    47    33    30    1
    48    30    31    1
    49    30    29    1
    50    68    67    1
    51    94    95    1
    52    74    75    2
    53    74    73    1
    54    31    32    2
    55    95    98    1
    56    57    58    1
    57    72    73    1
    58    58    60   am
    59    67    62   am
    60    73    76    1
    61   127   125    1
    62    62    63    2
    63    62    61    1
    64    98    99    1
    65    60    61    1
    66    60    66    1
    67   125   124    1
    68   143   144   ar
    69   143   141   ar
    70   144   142   ar
    71    61    64    1
    72    28    26    1
    73    99   100   ar
    74    99   101   ar
    75   126   124    1
    76    66    65    1
    77   124   121    1
    78   141   140   ar
    79   142   140   ar
    80    26    25    1
    81    64    65    1
    82    25    27    1
    83    25    22    1
    84    21    22    1
    85    24    23    2
    86   140   139    1
    87   121   120    1
    88   121   122    1
    89   162   161    1
    90    22    23    1
    91   161   160    1
    92   122   123    2
    93   122   128   am
    94   139   136    1
    95   134   128    1
    96   134   133    1
    97   117   114    1
    98   117   118    1
    99   128   129    1
   100   136   135    1
   101   136   137    1
   102   114   115    1
   103   114   113    1
   104   160   159    1
   105   115   116    2
   106   133   132    1
   107    19    20    1
   108    19    18    1
   109   118   119    1
   110   129   132    1
   111   129   130    1
   112   159   156    1
   113   113   119    1
   114   137   138    2
   115   137   145   am
   116    20    14    1
   117    18    15    1
   118   130   131    2
   119   145   146    1
   120    12    10    1
   121   156   155    1
   122   156   157    1
   123    14    15    1
   124    14     8   am
   125    15    16    1
   126    17    16    2
   127    13    11    1
   128   158   157    2
   129   146   147    1
   130   146   149    1
   131   157   163   am
   132     7    10    1
   133     7     8    1
   134     7     6    1
   135    10    11    1
   136     8     9    2
   137   168   167    1
   138     4     3    2
   139   147   148    2
   140   111   112   ar
   141   111   109   ar
   142   112   110   ar
   143   163   164    1
   144   149   150    1
   145     6     3   am
   146     3     2    1
   147   167   169    1
   148   167   164    1
   149     5     2    1
   150   164   165    1
   151   109   107   ar
   152   110   108   ar
   153   150   152   ar
   154   150   151   ar
   155     2     1    1
   156   152   154   ar
   157   107   108   ar
   158   107   106    1
   159   165   166    2
   160   151   153   ar
   161   154   153   ar
   162   102   103    1
   163   105   104    2
   164   106   103    1
   165   103   104    1
