@<TRIPOS>MOLECULE
tmp/6mezB05.pdb
 225 211 0 0 0
SMALL
GASTEIGER

@<TRIPOS>ATOM
      1  N        -16.9750   37.3600  -22.8840 N.3    44  ILE44      -0.1245
      2  CA       -16.4810   36.7170  -21.6740 C.3    44  ILE44       0.1561
      3  C        -15.1210   36.0830  -21.9500 C.2    44  ILE44       0.2260
      4  O        -14.8890   35.5070  -23.0210 O.2    44  ILE44      -0.2867
      5  CB       -17.4700   35.6420  -21.1350 C.3    44  ILE44       0.0252
      6  CG1      -16.9500   35.0320  -19.8310 C.3    44  ILE44       0.0019
      7  CG2      -17.7240   34.5500  -22.1920 C.3    44  ILE44       0.0019
      8  CD1      -17.9920   34.1840  -19.0880 C.3    44  ILE44       0.0001
      9  N        -12.2320   33.5760  -19.8930 N.3    46  ILE46      -0.1245
     10  CA       -11.8890   32.7820  -18.7190 C.3    46  ILE46       0.1561
     11  C        -10.5160   32.1700  -18.9200 C.2    46  ILE46       0.2260
     12  O        -10.2240   31.6110  -19.9840 O.2    46  ILE46      -0.2867
     13  CB       -12.9120   31.6640  -18.4300 C.3    46  ILE46       0.0252
     14  CG1      -14.3190   32.2440  -18.2870 C.3    46  ILE46       0.0019
     15  CG2      -12.5370   30.9320  -17.1450 C.3    46  ILE46       0.0019
     16  CD1      -15.3940   31.2020  -18.1730 C.3    46  ILE46       0.0001
     17  N         -7.2370   29.9420  -16.7530 N.3    48  ALA48      -0.1245
     18  CA        -6.8260   29.1840  -15.5750 C.3    48  ALA48       0.1562
     19  C         -5.3780   28.7870  -15.7310 C.2    48  ALA48       0.2260
     20  O         -4.9700   28.3730  -16.8130 O.2    48  ALA48      -0.2867
     21  CB        -7.6970   27.9420  -15.3910 C.3    48  ALA48       0.0290
     22  N         -7.7730   31.1170  -11.2370 N.3    60  PHE60      -0.1241
     23  CA        -8.8920   31.1410  -12.1710 C.3    60  PHE60       0.1605
     24  C         -9.3260   32.5960  -12.3050 C.2    60  PHE60       0.2264
     25  O         -9.5810   33.2540  -11.2990 O.2    60  PHE60      -0.2867
     26  CB       -10.0140   30.2510  -11.6120 C.3    60  PHE60       0.0534
     27  CG       -11.2370   30.1210  -12.4820 C.ar   60  PHE60      -0.0203
     28  CD1      -11.4370   28.9700  -13.2390 C.ar   60  PHE60      -0.0042
     29  CD2      -12.2230   31.0980  -12.4800 C.ar   60  PHE60      -0.0042
     30  CE1      -12.5760   28.8180  -14.0120 C.ar   60  PHE60      -0.0003
     31  CE2      -13.3680   30.9540  -13.2560 C.ar   60  PHE60      -0.0003
     32  CZ       -13.5450   29.8130  -14.0150 C.ar   60  PHE60      -0.0000
     33  N        -11.8320   35.4850  -14.5290 N.3    62  THR62      -0.1218
     34  CA       -12.8700   35.7220  -15.5120 C.3    62  THR62       0.1862
     35  C        -13.1580   37.2060  -15.6430 C.2    62  THR62       0.2287
     36  O        -13.1410   37.9740  -14.6720 O.2    62  THR62      -0.2866
     37  CB       -14.1680   34.9530  -15.1820 C.3    62  THR62       0.1770
     38  OG1      -14.9930   34.8890  -16.3530 O.3    62  THR62      -0.2211
     39  CG2      -14.9320   35.6070  -14.0400 C.3    62  THR62       0.0375
     40  N        -15.9300   39.6870  -17.6890 N.3    64  ILE64      -0.1245
     41  CA       -17.1640   39.8000  -18.4460 C.3    64  ILE64       0.1561
     42  C        -17.4360   41.2640  -18.7230 C.2    64  ILE64       0.2260
     43  O        -17.3150   42.0970  -17.8320 O.2    64  ILE64      -0.2867
     44  CB       -18.3610   39.1980  -17.6820 C.3    64  ILE64       0.0252
     45  CG1      -18.1230   37.7190  -17.4060 C.3    64  ILE64       0.0019
     46  CG2      -19.6750   39.4400  -18.4470 C.3    64  ILE64       0.0019
     47  CD1      -19.1480   37.1140  -16.4330 C.3    64  ILE64       0.0001
     48  N        -17.6270   42.7380  -15.0360 N.3    75  LEU75      -0.1245
     49  CA       -17.3800   41.9210  -13.8660 C.3    75  LEU75       0.1561
     50  C        -16.0110   41.3160  -14.0230 C.2    75  LEU75       0.2260
     51  O        -15.6950   40.7580  -15.0660 O.2    75  LEU75      -0.2867
     52  CB       -18.4250   40.8170  -13.7130 C.3    75  LEU75       0.0270
     53  CG       -18.0850   39.7820  -12.6280 C.3    75  LEU75       0.0019
     54  CD1      -18.3030   40.4020  -11.2760 C.3    75  LEU75       0.0001
     55  CD2      -18.9400   38.5400  -12.7690 C.3    75  LEU75       0.0001
     56  N        -13.2270   38.8100  -11.8190 N.3    77  VAL77      -0.1245
     57  CA       -13.0160   37.9940  -10.6380 C.3    77  VAL77       0.1561
     58  C        -11.7030   37.2440  -10.8070 C.2    77  VAL77       0.2260
     59  O        -11.4240   36.7220  -11.8860 O.2    77  VAL77      -0.2867
     60  CB       -14.1500   36.9570  -10.3990 C.3    77  VAL77       0.0252
     61  CG1      -14.1010   36.4610   -8.9690 C.3    77  VAL77       0.0019
     62  CG2      -15.5180   37.5360  -10.7000 C.3    77  VAL77       0.0019
     63  N         -9.6780   34.2040   -8.6770 N.3    79  VAL79      -0.1245
     64  CA        -9.9000   33.2860   -7.5640 C.3    79  VAL79       0.1561
     65  C         -8.8870   32.1290   -7.5600 C.2    79  VAL79       0.2260
     66  O         -8.4930   31.6170   -8.6020 O.2    79  VAL79      -0.2867
     67  CB       -11.3710   32.7420   -7.5860 C.3    79  VAL79       0.0252
     68  CG1      -11.7680   32.2480   -8.9710 C.3    79  VAL79       0.0019
     69  CG2      -11.5870   31.6540   -6.5410 C.3    79  VAL79       0.0019
     70  N         -8.3910   28.3690   -6.4790 N.3    81  ILE81      -0.1245
     71  CA        -9.2500   27.2060   -6.2300 C.3    81  ILE81       0.1561
     72  C         -8.4320   25.9370   -6.0260 C.2    81  ILE81       0.2260
     73  O         -7.4650   25.6930   -6.7480 O.2    81  ILE81      -0.2867
     74  CB       -10.2170   26.9870   -7.4120 C.3    81  ILE81       0.0252
     75  CG1      -10.9410   28.2850   -7.7570 C.3    81  ILE81       0.0019
     76  CG2      -11.2140   25.8410   -7.1070 C.3    81  ILE81       0.0019
     77  CD1      -11.9440   28.1300   -8.9330 C.3    81  ILE81       0.0001
     78  N        -12.1070   27.9990   -2.1670 N.3    91  ALA91      -0.1245
     79  CA       -11.8350   29.1020   -3.0710 C.3    91  ALA91       0.1562
     80  C        -11.6170   30.3680   -2.2780 C.2    91  ALA91       0.2260
     81  O        -12.3260   30.6410   -1.3100 O.2    91  ALA91      -0.2867
     82  CB       -12.9700   29.2960   -4.0550 C.3    91  ALA91       0.0290
     83  N        -13.6550   37.3280   -0.9990 N.3   108  PHE108     -0.1241
     84  CA       -14.4300   36.2410   -0.4280 C.3   108  PHE108      0.1605
     85  C        -13.5730   35.0190   -0.1710 C.2   108  PHE108      0.2264
     86  O        -12.4980   34.8620   -0.7580 O.2   108  PHE108     -0.2867
     87  CB       -15.5990   35.8650   -1.3540 C.3   108  PHE108      0.0534
     88  CG       -15.1630   35.2320   -2.6590 C.ar  108  PHE108     -0.0203
     89  CD1      -15.0800   33.8500   -2.7860 C.ar  108  PHE108     -0.0042
     90  CD2      -14.8210   36.0200   -3.7410 C.ar  108  PHE108     -0.0042
     91  CE1      -14.6700   33.2720   -3.9820 C.ar  108  PHE108     -0.0003
     92  CE2      -14.4200   35.4400   -4.9440 C.ar  108  PHE108     -0.0003
     93  CZ       -14.3380   34.0720   -5.0530 C.ar  108  PHE108     -0.0000
     94  N        -14.6080   30.7460    0.4080 N.3   110  GLY110     -0.1225
     95  CA       -15.7550   29.8590    0.4350 C.3   110  GLY110      0.1811
     96  C        -15.3610   28.4160    0.2970 C.2   110  GLY110      0.2280
     97  O        -14.3150   28.0830   -0.2510 O.2   110  GLY110     -0.2866
     98  N        -17.1070   24.5140   -0.7370 N.3   112  VAL112     -0.1245
     99  CA       -18.2360   23.8310   -1.3540 C.3   112  VAL112      0.1561
    100  C        -18.0180   22.3380   -1.1410 C.2   112  VAL112      0.2260
    101  O        -16.9290   21.8290   -1.3990 O.2   112  VAL112     -0.2867
    102  CB       -18.3570   24.1710   -2.8580 C.3   112  VAL112      0.0252
    103  CG1      -19.4740   23.3680   -3.5340 C.3   112  VAL112      0.0019
    104  CG2      -18.5870   25.6780   -3.0500 C.3   112  VAL112      0.0019
    105  N        -22.7210   25.0760    0.1420 N.3   139  HIS139     -0.1241
    106  CA       -21.9040   26.2680    0.0890 C.3   139  HIS139      0.1621
    107  C        -21.8260   26.9770    1.4590 C.2   139  HIS139      0.2264
    108  O        -22.7740   27.0850    2.1240 O.2   139  HIS139     -0.2867
    109  CB       -22.4960   27.3000   -0.8640 C.3   139  HIS139      0.0745
    110  CG       -22.2570   27.0130   -2.3050 C.ar  139  HIS139      0.0817
    111  ND1      -22.6660   25.8560   -2.9160 N.ar  139  HIS139     -0.2268
    112  CD2      -21.6610   27.7470   -3.2630 C.ar  139  HIS139      0.1154
    113  CE1      -22.3110   25.8950   -4.1850 C.ar  139  HIS139      0.1986
    114  NE2      -21.7270   27.0360   -4.4220 N.ar  139  HIS139     -0.2212
    115  N        -19.9820   30.5050    2.6280 N.3   141  ILE141     -0.1245
    116  CA       -19.3230   31.6480    2.0890 C.3   141  ILE141      0.1561
    117  C        -19.1050   32.8190    3.0420 C.2   141  ILE141      0.2260
    118  O        -19.9720   33.1810    3.7350 O.2   141  ILE141     -0.2867
    119  CB       -20.1380   32.2000    0.8900 C.3   141  ILE141      0.0252
    120  CG1      -20.2790   31.1630   -0.1940 C.3   141  ILE141      0.0019
    121  CG2      -19.5010   33.4100    0.2810 C.3   141  ILE141      0.0019
    122  CD1      -21.4560   31.3700   -1.0860 C.3   141  ILE141      0.0001
    123  N        -17.9820   36.7590    2.7550 N.3   143  MET143     -0.1245
    124  CA       -17.6550   37.7650    1.7590 C.3   143  MET143      0.1570
    125  C        -17.5740   39.1310    2.4130 C.2   143  MET143      0.2261
    126  O        -18.2130   39.3820    3.4360 O.2   143  MET143     -0.2867
    127  CB       -18.6520   37.7610    0.6050 C.3   143  MET143      0.0387
    128  CG       -20.0350   38.2090    0.9620 C.3   143  MET143      0.0595
    129  SD       -21.2250   37.9160   -0.3700 S.3   143  MET143     -0.1393
    130  CE       -22.6080   38.8010    0.3480 C.3   143  MET143      0.0692
    131  N        -32.9180   36.7430   -5.8490 N.3   178  TRP178     -0.1227
    132  CA       -31.6560   36.1940   -6.3410 C.3   178  TRP178      0.1737
    133  C        -31.7510   35.6870   -7.7800 C.2   178  TRP178      0.2595
    134  O        -30.9260   36.0340   -8.6440 O.2   178  TRP178     -0.2718
    135  CB       -31.2830   35.0880   -5.3780 C.3   178  TRP178      0.0564
    136  CG       -30.0550   34.2630   -5.5900 C.ar  178  TRP178      0.0003
    137  CD1      -29.1080   34.3480   -6.5700 C.ar  178  TRP178      0.0946
    138  CD2      -29.6850   33.1760   -4.7510 C.ar  178  TRP178      0.0152
    139  NE1      -28.1470   33.3520   -6.3760 N.ar  178  TRP178     -0.2442
    140  CE2      -28.4940   32.6260   -5.2610 C.ar  178  TRP178      0.0810
    141  CE3      -30.2660   32.6020   -3.6080 C.ar  178  TRP178      0.0012
    142  CZ2      -27.8650   31.5310   -4.6680 C.ar  178  TRP178      0.0191
    143  CZ3      -29.6410   31.5240   -3.0170 C.ar  178  TRP178      0.0001
    144  CH2      -28.4520   30.9990   -3.5470 C.ar  178  TRP178      0.0015
    145  N        -32.7660   34.8900   -8.0580 N.am  179  PHE179     -0.1976
    146  CA       -32.9200   34.3070   -9.3900 C.3   179  PHE179      0.1639
    147  C        -33.8480   35.1730  -10.2260 C.2   179  PHE179      0.2290
    148  O        -34.9790   34.7980  -10.5250 O.2   179  PHE179     -0.2864
    149  CB       -33.4080   32.8650   -9.2670 C.3   179  PHE179      0.0560
    150  CG       -32.4860   32.0260   -8.4350 C.ar  179  PHE179     -0.0200
    151  CD1      -31.2240   31.7020   -8.9090 C.ar  179  PHE179     -0.0042
    152  CD2      -32.8410   31.6280   -7.1590 C.ar  179  PHE179     -0.0042
    153  CE1      -30.3440   30.9570   -8.1390 C.ar  179  PHE179     -0.0003
    154  CE2      -31.9710   30.8800   -6.3850 C.ar  179  PHE179     -0.0003
    155  CZ       -30.7170   30.5520   -6.8760 C.ar  179  PHE179     -0.0000
    156  N        -22.5650   33.2980    5.0770 N.3   217  TRP217     -0.1241
    157  CA       -23.8700   32.7100    4.8020 C.3   217  TRP217      0.1605
    158  C        -23.7350   31.3570    4.1160 C.2   217  TRP217      0.2264
    159  O        -22.6780   31.0140    3.5770 O.2   217  TRP217     -0.2867
    160  CB       -24.7100   33.6690    3.9690 C.3   217  TRP217      0.0550
    161  CG       -24.0870   34.1120    2.6970 C.ar  217  TRP217      0.0003
    162  CD1      -23.0280   34.9740    2.5390 C.ar  217  TRP217      0.0946
    163  CD2      -24.5130   33.7570    1.3790 C.ar  217  TRP217      0.0152
    164  NE1      -22.7630   35.1520    1.2000 N.ar  217  TRP217     -0.2442
    165  CE2      -23.6630   34.4200    0.4690 C.ar  217  TRP217      0.0810
    166  CE3      -25.5320   32.9340    0.8790 C.ar  217  TRP217      0.0012
    167  CZ2      -23.7960   34.2840   -0.9120 C.ar  217  TRP217      0.0191
    168  CZ3      -25.6620   32.8030   -0.4970 C.ar  217  TRP217      0.0001
    169  CH2      -24.8010   33.4780   -1.3720 C.ar  217  TRP217      0.0015
    170  N        -25.8720   28.0250    1.8680 N.3   219  PHE219     -0.1241
    171  CA       -27.0130   27.4480    1.2320 C.3   219  PHE219      0.1605
    172  C        -26.5920   26.1500    0.5610 C.2   219  PHE219      0.2264
    173  O        -25.4590   25.9130    0.4440 O.2   219  PHE219     -0.2867
    174  CB       -27.5720   28.4140    0.1700 C.3   219  PHE219      0.0534
    175  CG       -26.7750   28.4770   -1.0770 C.ar  219  PHE219     -0.0203
    176  CD1      -27.0830   27.6600   -2.1380 C.ar  219  PHE219     -0.0042
    177  CD2      -25.7220   29.3560   -1.1940 C.ar  219  PHE219     -0.0042
    178  CE1      -26.3580   27.6980   -3.2830 C.ar  219  PHE219     -0.0003
    179  CE2      -24.9760   29.4000   -2.3410 C.ar  219  PHE219     -0.0003
    180  CZ       -25.2930   28.5690   -3.3930 C.ar  219  PHE219     -0.0000
    181  N        -27.6430   23.4850   -2.9300 N.3   221  HIS221     -0.1241
    182  CA       -28.5190   23.2240   -4.0550 C.3   221  HIS221      0.1621
    183  C        -28.4330   21.7470   -4.3690 C.2   221  HIS221      0.2264
    184  O        -27.4630   21.0780   -4.0080 O.2   221  HIS221     -0.2867
    185  CB       -28.1760   24.0980   -5.2750 C.3   221  HIS221      0.0745
    186  CG       -26.9110   23.7150   -5.9970 C.ar  221  HIS221      0.0817
    187  ND1      -26.9110   23.2460   -7.2900 N.ar  221  HIS221     -0.2268
    188  CD2      -25.6120   23.7530   -5.6090 C.ar  221  HIS221      0.1154
    189  CE1      -25.6670   22.9970   -7.6700 C.ar  221  HIS221      0.1986
    190  NE2      -24.8590   23.3010   -6.6680 N.ar  221  HIS221     -0.2212
    191  N        -15.5310   18.2730  -13.7550 N.3   236  LEU236     -0.1245
    192  CA       -15.6180   19.6550  -14.1620 C.3   236  LEU236      0.1561
    193  C        -14.4770   20.5430  -13.6930 C.2   236  LEU236      0.2260
    194  O        -14.4430   21.6760  -13.9980 O.2   236  LEU236     -0.2867
    195  CB       -16.9600   20.2480  -13.7570 C.3   236  LEU236      0.0270
    196  CG       -17.3400   20.2980  -12.3090 C.3   236  LEU236      0.0019
    197  CD1      -16.6560   21.4640  -11.6610 C.3   236  LEU236      0.0001
    198  CD2      -18.8130   20.5230  -12.1980 C.3   236  LEU236      0.0001
    199  N         -4.7970   27.3200  -19.4820 N.3   246  ALA246     -0.1231
    200  CA        -5.9550   27.0790  -20.3330 C.3   246  ALA246      0.1694
    201  C         -6.7240   28.3800  -20.4750 C.2   246  ALA246      0.2593
    202  O         -6.6500   29.2470  -19.6020 O.2   246  ALA246     -0.2718
    203  CB        -6.8410   26.0000  -19.7500 C.3   246  ALA246      0.0304
    204  N         -7.4500   28.5320  -21.5770 N.am  247  SER247     -0.1938
    205  CA        -8.2500   29.7430  -21.7600 C.3   247  SER247      0.2055
    206  C         -9.4170   29.4980  -22.6790 C.2   247  SER247      0.2642
    207  O         -9.3770   28.6110  -23.5370 O.2   247  SER247     -0.2714
    208  CB        -7.3880   30.8830  -22.3140 C.3   247  SER247      0.2130
    209  OG        -7.0000   30.6200  -23.6510 O.3   247  SER247     -0.2179
    210  N        -10.4750   30.2790  -22.4880 N.am  248  ILE248     -0.1977
    211  CA       -11.5730   30.2760  -23.4300 C.3   248  ILE248      0.1596
    212  C        -12.1830   31.6710  -23.4810 C.2   248  ILE248      0.2287
    213  O        -12.2010   32.4130  -22.4880 O.2   248  ILE248     -0.2864
    214  CB       -12.6290   29.1990  -23.0680 C.3   248  ILE248      0.0276
    215  CG1      -13.5930   28.9680  -24.2360 C.3   248  ILE248      0.0022
    216  CG2      -13.3740   29.5380  -21.7960 C.3   248  ILE248      0.0022
    217  CD1      -14.2590   27.6160  -24.1960 C.3   248  ILE248      0.0001
    218  N         -8.3250   23.8790  -23.7560 N.3   267  LEU267     -0.1245
    219  CA        -8.5430   23.4590  -22.3680 C.3   267  LEU267      0.1561
    220  C         -8.5060   21.9500  -22.2270 C.2   267  LEU267      0.2260
    221  O         -8.7690   21.2270  -23.1890 O.2   267  LEU267     -0.2867
    222  CB        -9.9020   23.9900  -21.8560 C.3   267  LEU267      0.0270
    223  CG       -11.1640   23.3480  -22.4690 C.3   267  LEU267      0.0019
    224  CD1      -12.3950   23.6320  -21.6000 C.3   267  LEU267      0.0001
    225  CD2      -11.4320   23.8300  -23.8920 C.3   267  LEU267      0.0001
@<TRIPOS>BOND
     1   215   217    1
     2   215   214    1
     3   225   223    1
     4   218   219    1
     5   209   208    1
     6   207   206    2
     7   212   211    1
     8   212   213    2
     9   211   214    1
    10   211   210    1
    11   221   220    2
    12   214   216    1
    13     4     3    2
    14     1     2    1
    15   206   210   am
    16   206   205    1
    17   223   222    1
    18   223   224    1
    19   219   220    1
    20   219   222    1
    21   208   205    1
    22     7     5    1
    23     3     2    1
    24   205   204    1
    25     2     5    1
    26   204   201   am
    27     5     6    1
    28   201   200    1
    29   201   202    2
    30   200   203    1
    31   200   199    1
    32    12    11    2
    33     9    10    1
    34     6     8    1
    35    11    10    1
    36    42    41    1
    37    42    43    2
    38    10    13    1
    39    46    44    1
    40    41    40    1
    41    41    44    1
    42    13    14    1
    43    13    15    1
    44    14    16    1
    45    44    45    1
    46    45    47    1
    47    20    19    2
    48    17    18    1
    49    38    37    1
    50    19    18    1
    51    35    34    1
    52    35    36    2
    53    18    21    1
    54    34    37    1
    55    34    33    1
    56    37    39    1
    57    51    50    2
    58    48    49    1
    59   192   195    1
    60   192   191    1
    61   192   193    1
    62    50    49    1
    63    32    30   ar
    64    32    31   ar
    65    30    28   ar
    66   194   193    2
    67    49    52    1
    68   195   196    1
    69    52    53    1
    70    31    29   ar
    71    28    27   ar
    72    55    53    1
    73    53    54    1
    74    27    29   ar
    75    27    26    1
    76   196   198    1
    77   196   197    1
    78    24    23    1
    79    24    25    2
    80    23    26    1
    81    23    22    1
    82    59    58    2
    83    56    57    1
    84    58    57    1
    85    62    60    1
    86    57    60    1
    87   148   147    2
    88    60    61    1
    89   147   146    1
    90   146   149    1
    91   146   145    1
    92   149   150    1
    93    68    67    1
    94    77    75    1
    95   151   150   ar
    96   151   153   ar
    97    63    64    1
    98   134   133    2
    99    66    65    2
   100   150   152   ar
   101   153   155   ar
   102   145   133   am
   103   133   132    1
   104    75    74    1
   105   189   187   ar
   106   189   190   ar
   107    67    64    1
   108    67    69    1
   109    64    65    1
   110    74    76    1
   111    74    71    1
   112   187   186   ar
   113   152   154   ar
   114   155   154   ar
   115    73    72    2
   116   190   188   ar
   117   137   139   ar
   118   137   136   ar
   119    70    71    1
   120   139   140   ar
   121   132   131    1
   122   132   135    1
   123    71    72    1
   124   186   188   ar
   125   186   185    1
   126   136   135    1
   127   136   138   ar
   128   185   182    1
   129   140   138   ar
   130   140   142   ar
   131    93    92   ar
   132    93    91   ar
   133    92    90   ar
   134   138   141   ar
   135   142   144   ar
   136   114   113   ar
   137   114   112   ar
   138   183   182    1
   139   183   184    2
   140   113   111   ar
   141   182   181    1
   142    82    79    1
   143    91    89   ar
   144    90    88   ar
   145   141   143   ar
   146   144   143   ar
   147   103   102    1
   148   180   178   ar
   149   180   179   ar
   150   178   176   ar
   151   112   110   ar
   152    79    80    1
   153    79    78    1
   154   104   102    1
   155   111   110   ar
   156   102    99    1
   157    89    88   ar
   158    88    87    1
   159   179   177   ar
   160   110   109    1
   161    80    81    2
   162   176   175   ar
   163   101   100    2
   164   169   167   ar
   165   169   168   ar
   166    87    84    1
   167    99   100    1
   168    99    98    1
   169   177   175   ar
   170   122   120    1
   171   175   174    1
   172    83    84    1
   173   167   165   ar
   174   109   106    1
   175    86    85    2
   176   168   166   ar
   177    84    85    1
   178   129   130    1
   179   129   128    1
   180    97    96    2
   181   120   119    1
   182   106   105    1
   183   106   107    1
   184   174   171    1
   185   121   119    1
   186    96    95    1
   187    94    95    1
   188   173   172    2
   189   165   164   ar
   190   165   163   ar
   191   172   171    1
   192   127   128    1
   193   127   124    1
   194   166   163   ar
   195   119   116    1
   196   164   162   ar
   197   171   170    1
   198   163   161   ar
   199   107   108    2
   200   124   125    1
   201   124   123    1
   202   116   115    1
   203   116   117    1
   204   125   126    2
   205   162   161   ar
   206   161   160    1
   207   117   118    2
   208   159   158    2
   209   160   157    1
   210   158   157    1
   211   157   156    1
