@<TRIPOS>MOLECULE
tmp/6mezB06.pdb
 161 158 0 0 0
SMALL
GASTEIGER

@<TRIPOS>ATOM
      1  N        -34.5320   36.6670  -27.0560 N.3    34  ALA34      -0.1231
      2  CA       -35.6850   36.7270  -26.1610 C.3    34  ALA34       0.1694
      3  C        -35.5160   37.7730  -25.0400 C.2    34  ALA34       0.2592
      4  O        -36.4140   37.9480  -24.2250 O.2    34  ALA34      -0.2718
      5  CB       -35.9460   35.3330  -25.5480 C.3    34  ALA34       0.0304
      6  N        -34.3720   38.4550  -25.0150 N.am   35  ILE35      -0.1966
      7  CA       -34.1020   39.4560  -23.9750 C.3    35  ILE35       0.1712
      8  C        -35.0650   40.6300  -24.1220 C.2    35  ILE35       0.2458
      9  O        -35.2260   41.1580  -25.2210 O.2    35  ILE35      -0.2730
     10  CB       -32.6490   39.9860  -24.0440 C.3    35  ILE35       0.0289
     11  CG1      -31.6640   38.8650  -24.4010 C.3    35  ILE35       0.0022
     12  CG2      -32.2710   40.6680  -22.7260 C.3    35  ILE35       0.0023
     13  CD1      -31.5340   37.7840  -23.3360 C.3    35  ILE35       0.0001
     14  N        -35.7110   41.0510  -23.0190 N.am   36  PRO36      -0.2727
     15  CA       -36.6900   42.1520  -23.1570 C.3    36  PRO36       0.1402
     16  C        -36.0570   43.5490  -23.2180 C.2    36  PRO36       0.2269
     17  O        -36.7650   44.5560  -23.2230 O.2    36  PRO36      -0.2865
     18  CB       -37.5820   41.9980  -21.9160 C.3    36  PRO36       0.0296
     19  CG       -36.7250   41.2890  -20.8980 C.3    36  PRO36       0.0237
     20  CD       -35.7910   40.3760  -21.7060 C.3    36  PRO36       0.0939
     21  N        -32.7660   34.8900   -8.0580 N.3   179  PHE179     -0.1227
     22  CA       -32.9200   34.3070   -9.3900 C.3   179  PHE179      0.1736
     23  C        -33.8480   35.1730  -10.2260 C.2   179  PHE179      0.2595
     24  O        -34.9790   34.7980  -10.5250 O.2   179  PHE179     -0.2718
     25  CB       -33.4080   32.8650   -9.2670 C.3   179  PHE179      0.0547
     26  CG       -32.4860   32.0260   -8.4350 C.ar  179  PHE179     -0.0202
     27  CD1      -31.2240   31.7020   -8.9090 C.ar  179  PHE179     -0.0042
     28  CD2      -32.8410   31.6280   -7.1590 C.ar  179  PHE179     -0.0042
     29  CE1      -30.3440   30.9570   -8.1390 C.ar  179  PHE179     -0.0003
     30  CE2      -31.9710   30.8800   -6.3850 C.ar  179  PHE179     -0.0003
     31  CZ       -30.7170   30.5520   -6.8760 C.ar  179  PHE179     -0.0000
     32  N        -33.3290   36.3340  -10.5890 N.am  180  ILE180     -0.1966
     33  CA       -34.0790   37.3960  -11.2480 C.3   180  ILE180      0.1727
     34  C        -34.6570   36.9720  -12.5990 C.2   180  ILE180      0.2617
     35  O        -34.0460   36.1890  -13.3230 O.2   180  ILE180     -0.2715
     36  CB       -33.1480   38.6490  -11.3970 C.3   180  ILE180      0.0290
     37  CG1      -33.9400   39.8670  -11.8930 C.3   180  ILE180      0.0022
     38  CG2      -31.9220   38.3500  -12.2660 C.3   180  ILE180      0.0023
     39  CD1      -33.1310   41.1730  -11.8100 C.3   180  ILE180      0.0001
     40  N        -35.8390   37.4820  -12.9300 N.am  181  GLY181     -0.1941
     41  CA       -36.4220   37.2480  -14.2460 C.3   181  GLY181      0.1998
     42  C        -36.6420   35.7690  -14.5100 C.2   181  GLY181      0.2481
     43  O        -37.1160   35.0500  -13.6300 O.2   181  GLY181     -0.2729
     44  N        -36.3160   35.3120  -15.7300 N.am  182  PRO182     -0.2715
     45  CA       -36.5410   33.9140  -16.1080 C.3   182  PRO182      0.1536
     46  C        -35.6820   32.9220  -15.3230 C.2   182  PRO182      0.2598
     47  O        -35.9640   31.7160  -15.3640 O.2   182  PRO182     -0.2715
     48  CB       -36.1590   33.8820  -17.5970 C.3   182  PRO182      0.0310
     49  CG       -36.2830   35.3000  -18.0660 C.3   182  PRO182      0.0237
     50  CD       -35.9280   36.1490  -16.8790 C.3   182  PRO182      0.0939
     51  N        -34.6520   33.4030  -14.6280 N.am  183  ALA183     -0.1978
     52  CA       -33.7600   32.4890  -13.9270 C.3   183  ALA183      0.1597
     53  C        -34.5380   31.6380  -12.9370 C.2   183  ALA183      0.2287
     54  O        -34.2030   30.4820  -12.7410 O.2   183  ALA183     -0.2864
     55  CB       -32.6380   33.2530  -13.1900 C.3   183  ALA183      0.0319
     56  N        -36.0800   28.5440  -14.4160 N.3   186  ALA186     -0.1231
     57  CA       -35.1140   27.5930  -14.9630 C.3   186  ALA186      0.1694
     58  C        -34.6620   26.5850  -13.9130 C.2   186  ALA186      0.2591
     59  O        -34.1870   25.5120  -14.2650 O.2   186  ALA186     -0.2718
     60  CB       -33.8880   28.3300  -15.5610 C.3   186  ALA186      0.0304
     61  N        -34.8070   26.9220  -12.6310 N.am  187  ILE187     -0.1980
     62  CA       -34.3460   26.0300  -11.5620 C.3   187  ILE187      0.1595
     63  C        -35.0770   24.6880  -11.6710 C.2   187  ILE187      0.2287
     64  O        -34.4630   23.6340  -11.8630 O.2   187  ILE187     -0.2864
     65  CB       -34.5730   26.6570  -10.1810 C.3   187  ILE187      0.0276
     66  CG1      -33.7340   27.9320  -10.0530 C.3   187  ILE187      0.0022
     67  CG2      -34.2030   25.6690   -9.0700 C.3   187  ILE187      0.0022
     68  CD1      -34.1080   28.7910   -8.8050 C.3   187  ILE187      0.0001
     69  N        -33.5070   20.9550  -10.5090 N.3   192  GLN192     -0.1245
     70  CA       -32.6250   21.5100   -9.4820 C.3   192  GLN192      0.1566
     71  C        -33.4720   22.0750   -8.3490 C.2   192  GLN192      0.2260
     72  O        -34.6400   22.4210   -8.5550 O.2   192  GLN192     -0.2867
     73  CB       -31.7320   22.5890  -10.1060 C.3   192  GLN192      0.0367
     74  CG       -30.5670   23.1030   -9.2820 C.3   192  GLN192      0.0905
     75  CD       -29.6190   23.9450  -10.1440 C.2   192  GLN192      0.2608
     76  OE1      -29.9530   24.2990  -11.2740 O.2   192  GLN192     -0.2717
     77  NE2      -28.4320   24.2370   -9.6270 N.am  192  GLN192     -0.0878
     78  N        -33.0190   24.8610   -4.8440 N.3   194  ILE194     -0.1245
     79  CA       -32.1570   25.7640   -4.0740 C.3   194  ILE194      0.1561
     80  C        -32.7360   25.8670   -2.6760 C.2   194  ILE194      0.2260
     81  O        -33.9310   26.1400   -2.5090 O.2   194  ILE194     -0.2867
     82  CB       -32.0780   27.1880   -4.7010 C.3   194  ILE194      0.0252
     83  CG1      -31.7770   27.1450   -6.2050 C.3   194  ILE194      0.0019
     84  CG2      -31.0850   28.0560   -3.9240 C.3   194  ILE194      0.0019
     85  CD1      -30.3620   26.7380   -6.5460 C.3   194  ILE194      0.0001
     86  N        -25.2070   19.1620  -13.9290 N.3   228  ASP228     -0.1239
     87  CA       -23.8300   18.6750  -14.1170 C.3   228  ASP228      0.1674
     88  C        -22.8750   19.1060  -13.0120 C.2   228  ASP228      0.2266
     89  O        -21.8950   18.4100  -12.7400 O.2   228  ASP228     -0.2867
     90  CB       -23.2720   19.1500  -15.4600 C.3   228  ASP228      0.1410
     91  CG       -24.2790   19.0350  -16.5780 C.2   228  ASP228      0.3668
     92  OD1      -24.8970   20.0710  -16.8890 O.co2 228  ASP228     -0.2456
     93  OD2      -24.4780   17.9230  -17.1270 O.co2 228  ASP228     -0.2456
     94  N        -21.1330   37.3690  -27.8140 N.3   252  PHE252     -0.1241
     95  CA       -22.2570   37.4310  -28.7360 C.3   252  PHE252      0.1605
     96  C        -22.7320   38.8430  -28.9680 C.2   252  PHE252      0.2264
     97  O        -22.4630   39.7590  -28.1670 O.2   252  PHE252     -0.2867
     98  CB       -23.4300   36.5380  -28.2570 C.3   252  PHE252      0.0534
     99  CG       -24.0960   37.0010  -26.9810 C.ar  252  PHE252     -0.0203
    100  CD1      -25.0340   38.0200  -26.9980 C.ar  252  PHE252     -0.0042
    101  CD2      -23.8020   36.3820  -25.7620 C.ar  252  PHE252     -0.0042
    102  CE1      -25.6560   38.4460  -25.8150 C.ar  252  PHE252     -0.0003
    103  CE2      -24.4310   36.7930  -24.5750 C.ar  252  PHE252     -0.0003
    104  CZ       -25.3540   37.8190  -24.6060 C.ar  252  PHE252     -0.0000
    105  N        -22.6840   18.1120  -21.5260 N.3   285  PRO285     -0.2116
    106  CA       -23.3430   18.5320  -20.2690 C.3   285  PRO285      0.1372
    107  C        -24.8250   18.8210  -20.5630 C.2   285  PRO285      0.2244
    108  O        -25.1180   19.3340  -21.5920 O.2   285  PRO285     -0.2868
    109  CB       -22.5980   19.8120  -19.8620 C.3   285  PRO285      0.0268
    110  CG       -21.9720   20.2980  -21.0640 C.3   285  PRO285      0.0207
    111  CD       -21.5440   19.0860  -21.8070 C.3   285  PRO285      0.0892
    112  N        -27.3080   20.6940  -18.5590 N.3   287  ILE287     -0.1231
    113  CA       -27.9080   21.9680  -18.2140 C.3   287  ILE287      0.1678
    114  C        -27.9780   22.9370  -19.3690 C.2   287  ILE287      0.2434
    115  O        -28.9380   23.5650  -19.6020 O.2   287  ILE287     -0.2733
    116  CB       -27.2300   22.5370  -16.9660 C.3   287  ILE287      0.0265
    117  CG1      -27.6550   21.7200  -15.7660 C.3   287  ILE287      0.0019
    118  CG2      -27.4890   24.0210  -16.8050 C.3   287  ILE287      0.0020
    119  CD1      -29.0620   21.9320  -15.2950 C.3   287  ILE287      0.0001
    120  N        -26.7820   23.0660  -20.0400 N.am  288  PRO288     -0.2729
    121  CA       -26.8160   24.0130  -21.1670 C.3   288  PRO288      0.1401
    122  C        -27.9380   23.7020  -22.1770 C.2   288  PRO288      0.2269
    123  O        -28.5550   24.5680  -22.6890 O.2   288  PRO288     -0.2865
    124  CB       -25.4560   23.8590  -21.8270 C.3   288  PRO288      0.0296
    125  CG       -24.5610   23.2840  -20.8190 C.3   288  PRO288      0.0237
    126  CD       -25.3430   22.5950  -19.7970 C.3   288  PRO288      0.0939
    127  N        -31.4710   24.4230  -20.3930 N.3   291  HIS291     -0.1226
    128  CA       -31.7100   25.8670  -20.2580 C.3   291  HIS291      0.1752
    129  C        -31.8680   26.5910  -21.6170 C.2   291  HIS291      0.2596
    130  O        -32.6790   27.4150  -21.7880 O.2   291  HIS291     -0.2718
    131  CB       -30.6560   26.5100  -19.3820 C.3   291  HIS291      0.0759
    132  CG       -30.7460   26.1020  -17.9500 C.ar  291  HIS291      0.0818
    133  ND1      -29.9520   26.6350  -16.9700 N.ar  291  HIS291     -0.2268
    134  CD2      -31.5470   25.2120  -17.3310 C.ar  291  HIS291      0.1154
    135  CE1      -30.2680   26.1070  -15.8140 C.ar  291  HIS291      0.1986
    136  NE2      -31.2330   25.2380  -15.9990 N.ar  291  HIS291     -0.2212
    137  N        -31.0110   26.2510  -22.5530 N.am  292  HIS292     -0.1975
    138  CA       -31.1220   26.8660  -23.8680 C.3   292  HIS292      0.1656
    139  C        -32.4360   26.4160  -24.5140 C.2   292  HIS292      0.2291
    140  O        -32.9660   27.1060  -25.2950 O.2   292  HIS292     -0.2864
    141  CB       -29.9210   26.5970  -24.7410 C.3   292  HIS292      0.0771
    142  CG       -29.9910   27.2680  -26.0760 C.ar  292  HIS292      0.0820
    143  ND1      -30.6200   26.7110  -27.1530 N.ar  292  HIS292     -0.2267
    144  CD2      -29.4920   28.4500  -26.5070 C.ar  292  HIS292      0.1154
    145  CE1      -30.5210   27.5260  -28.1790 C.ar  292  HIS292      0.1986
    146  NE2      -29.8660   28.5890  -27.8050 N.ar  292  HIS292     -0.2212
    147  N        -35.2050   26.4660  -23.3360 N.3   294  MET294     -0.1230
    148  CA       -36.2330   27.3940  -22.9130 C.3   294  MET294      0.1702
    149  C        -36.3740   28.5840  -23.8760 C.2   294  MET294      0.2592
    150  O        -37.3670   29.2500  -23.8930 O.2   294  MET294     -0.2718
    151  CB       -35.9940   27.8710  -21.4840 C.3   294  MET294      0.0401
    152  CG       -36.0310   26.7300  -20.5070 C.3   294  MET294      0.0596
    153  SD       -35.7530   27.1670  -18.7510 S.3   294  MET294     -0.1393
    154  CE       -37.2660   27.9700  -18.4330 C.3   294  MET294      0.0692
    155  N        -35.3380   28.8120  -24.6630 N.am  295  VAL295     -0.1980
    156  CA       -35.3990   29.8800  -25.6380 C.3   295  VAL295      0.1595
    157  C        -35.2600   29.4130  -27.0850 C.2   295  VAL295      0.2287
    158  O        -35.3440   30.2260  -27.9330 O.2   295  VAL295     -0.2864
    159  CB       -34.3120   30.9200  -25.4170 C.3   295  VAL295      0.0276
    160  CG1      -34.4790   31.6540  -24.1310 C.3   295  VAL295      0.0022
    161  CG2      -32.9500   30.2950  -25.4910 C.3   295  VAL295      0.0022
@<TRIPOS>BOND
     1    96    95    1
     2    96    97    2
     3    95    98    1
     4    95    94    1
     5    98    99    1
     6   145   146   ar
     7   145   143   ar
     8   158   157    2
     9   146   144   ar
    10   143   142   ar
    11   157   156    1
    12     1     2    1
    13   100    99   ar
    14   100   102   ar
    15    99   101   ar
    16   144   142   ar
    17     2     5    1
    18     2     3    1
    19   142   141    1
    20   102   104   ar
    21   101   103   ar
    22   156   159    1
    23   156   155    1
    24   161   159    1
    25   159   160    1
    26   140   139    2
    27     9     8    2
    28     3     6   am
    29     3     4    2
    30     6     7    1
    31   141   138    1
    32   155   149   am
    33   104   103   ar
    34   139   138    1
    35    11    10    1
    36    11    13    1
    37     8     7    1
    38     8    14   am
    39    10     7    1
    40    10    12    1
    41   150   149    2
    42   149   148    1
    43   138   137    1
    44   147   148    1
    45    17    16    2
    46    16    15    1
    47    15    14    1
    48    15    18    1
    49    14    20    1
    50   148   151    1
    51   123   122    2
    52   137   129   am
    53   122   121    1
    54    18    19    1
    55   124   121    1
    56   124   125    1
    57   111   105    1
    58   111   110    1
    59   130   129    2
    60    20    19    1
    61   129   128    1
    62   108   107    2
    63   105   106    1
    64   151   152    1
    65   121   120    1
    66   110   109    1
    67   125   126    1
    68   107   106    1
    69   152   153    1
    70   127   128    1
    71   106   109    1
    72   128   131    1
    73   120   126    1
    74   120   114   am
    75   115   114    2
    76   131   132    1
    77   114   113    1
    78   153   154    1
    79   112   113    1
    80   113   116    1
    81    49    48    1
    82    49    50    1
    83   132   134   ar
    84   132   133   ar
    85    48    45    1
    86   134   136   ar
    87    93    91   ar
    88   133   135   ar
    89   116   118    1
    90   116   117    1
    91    92    91   ar
    92    50    44    1
    93    91    90    1
    94    45    44    1
    95    45    46    1
    96   136   135   ar
    97   117   119    1
    98    44    42   am
    99    60    57    1
   100    90    87    1
   101    47    46    2
   102    46    51   am
   103    57    56    1
   104    57    58    1
   105    51    52    1
   106    42    41    1
   107    42    43    2
   108    59    58    2
   109    41    40    1
   110    87    86    1
   111    87    88    1
   112    52    55    1
   113    52    53    1
   114    58    61   am
   115    35    34    2
   116    88    89    2
   117    53    54    2
   118    40    34   am
   119    61    62    1
   120    34    33    1
   121    38    36    1
   122    37    39    1
   123    37    36    1
   124    64    63    2
   125    63    62    1
   126    62    65    1
   127    36    33    1
   128    76    75    2
   129    33    32    1
   130    32    23   am
   131    24    23    2
   132    69    70    1
   133    23    22    1
   134    65    66    1
   135    65    67    1
   136    75    77   am
   137    75    74    1
   138    73    70    1
   139    73    74    1
   140    66    68    1
   141    70    71    1
   142    22    25    1
   143    22    21    1
   144    25    26    1
   145    27    26   ar
   146    27    29   ar
   147    72    71    2
   148    26    28   ar
   149    29    31   ar
   150    28    30   ar
   151    31    30   ar
   152    85    83    1
   153    83    82    1
   154    78    79    1
   155    82    79    1
   156    82    84    1
   157    79    80    1
   158    80    81    2
