@<TRIPOS>MOLECULE
tmp/6mezB00.pdb
 233 223 0 0 0
SMALL
GASTEIGER

@<TRIPOS>ATOM
      1  N        -17.6270   42.7380  -15.0360 N.3    75  LEU75      -0.1245
      2  CA       -17.3800   41.9210  -13.8660 C.3    75  LEU75       0.1561
      3  C        -16.0110   41.3160  -14.0230 C.2    75  LEU75       0.2260
      4  O        -15.6950   40.7580  -15.0660 O.2    75  LEU75      -0.2867
      5  CB       -18.4250   40.8170  -13.7130 C.3    75  LEU75       0.0270
      6  CG       -18.0850   39.7820  -12.6280 C.3    75  LEU75       0.0019
      7  CD1      -18.3030   40.4020  -11.2760 C.3    75  LEU75       0.0001
      8  CD2      -18.9400   38.5400  -12.7690 C.3    75  LEU75       0.0001
      9  N        -17.1510   44.8850   -9.8290 N.3    97  LEU97      -0.1245
     10  CA       -18.1750   44.9720  -10.8380 C.3    97  LEU97       0.1561
     11  C        -18.5650   46.4280  -11.0740 C.2    97  LEU97       0.2260
     12  O        -18.3610   47.2600  -10.2550 O.2    97  LEU97      -0.2867
     13  CB       -19.3920   44.1560  -10.4660 C.3    97  LEU97       0.0270
     14  CG       -20.2140   44.6110   -9.3000 C.3    97  LEU97       0.0019
     15  CD1      -21.3870   45.3630   -9.8270 C.3    97  LEU97       0.0001
     16  CD2      -20.6780   43.4340   -8.4720 C.3    97  LEU97       0.0001
     17  N        -21.6090   49.0130  -13.2320 N.3    99  VAL99      -0.1245
     18  CA       -22.8040   49.2060  -14.0230 C.3    99  VAL99       0.1561
     19  C        -22.9180   50.7020  -14.1790 C.2    99  VAL99       0.2260
     20  O        -23.0630   51.3780  -13.2450 O.2    99  VAL99      -0.2867
     21  CB       -24.0620   48.6750  -13.3330 C.3    99  VAL99       0.0252
     22  CG1      -25.2970   48.9470  -14.1640 C.3    99  VAL99       0.0019
     23  CG2      -23.9450   47.2060  -13.1010 C.3    99  VAL99       0.0019
     24  N        -21.7000   53.2880  -11.5530 N.3   102  PHE102     -0.1241
     25  CA       -21.5260   52.6150  -10.3020 C.3   102  PHE102      0.1605
     26  C        -20.5830   51.4190  -10.3220 C.2   102  PHE102      0.2264
     27  O        -20.5510   50.7000  -11.2490 O.2   102  PHE102     -0.2867
     28  CB       -22.8840   52.1550   -9.8170 C.3   102  PHE102      0.0534
     29  CG       -22.8410   51.3240   -8.5900 C.ar  102  PHE102     -0.0203
     30  CD1      -22.8100   49.9620   -8.6800 C.ar  102  PHE102     -0.0042
     31  CD2      -22.7620   51.8970   -7.3610 C.ar  102  PHE102     -0.0042
     32  CE1      -22.7620   49.1860   -7.5670 C.ar  102  PHE102     -0.0003
     33  CE2      -22.6950   51.1270   -6.2410 C.ar  102  PHE102     -0.0003
     34  CZ       -22.6760   49.7680   -6.3480 C.ar  102  PHE102     -0.0000
     35  N        -18.5120   48.5230   -7.3990 N.3   104  HIS104     -0.1241
     36  CA       -18.1440   48.0680   -6.0670 C.3   104  HIS104      0.1621
     37  C        -17.2010   46.9040   -6.1430 C.2   104  HIS104      0.2264
     38  O        -17.1960   46.2390   -7.1100 O.2   104  HIS104     -0.2867
     39  CB       -19.2800   47.8670   -5.0780 C.3   104  HIS104      0.0745
     40  CG       -19.9740   46.5420   -5.1090 C.ar  104  HIS104      0.0817
     41  ND1      -19.4710   45.4030   -4.5420 N.ar  104  HIS104     -0.2268
     42  CD2      -21.2130   46.2210   -5.5270 C.ar  104  HIS104      0.1154
     43  CE1      -20.3530   44.4320   -4.6530 C.ar  104  HIS104      0.1986
     44  NE2      -21.4150   44.9010   -5.2570 N.ar  104  HIS104     -0.2212
     45  N        -15.1950   43.4330   -4.0220 N.3   106  PHE106     -0.1241
     46  CA       -15.5090   42.3800   -3.0730 C.3   106  PHE106      0.1605
     47  C        -14.3390   41.4360   -2.9220 C.2   106  PHE106      0.2264
     48  O        -13.4750   41.3280   -3.7960 O.2   106  PHE106     -0.2867
     49  CB       -16.7640   41.5930   -3.5050 C.3   106  PHE106      0.0534
     50  CG       -16.6970   41.0420   -4.9080 C.ar  106  PHE106     -0.0203
     51  CD1      -16.1240   39.8020   -5.1550 C.ar  106  PHE106     -0.0042
     52  CD2      -17.2180   41.7620   -5.9750 C.ar  106  PHE106     -0.0042
     53  CE1      -16.0640   39.2920   -6.4470 C.ar  106  PHE106     -0.0003
     54  CE2      -17.1540   41.2620   -7.2750 C.ar  106  PHE106     -0.0003
     55  CZ       -16.5830   40.0280   -7.5050 C.ar  106  PHE106     -0.0000
     56  N        -17.9820   36.7590    2.7550 N.3   143  MET143     -0.1245
     57  CA       -17.6550   37.7650    1.7590 C.3   143  MET143      0.1570
     58  C        -17.5740   39.1310    2.4130 C.2   143  MET143      0.2261
     59  O        -18.2130   39.3820    3.4360 O.2   143  MET143     -0.2867
     60  CB       -18.6520   37.7610    0.6050 C.3   143  MET143      0.0387
     61  CG       -20.0350   38.2090    0.9620 C.3   143  MET143      0.0595
     62  SD       -21.2250   37.9160   -0.3700 S.3   143  MET143     -0.1393
     63  CE       -22.6080   38.8010    0.3480 C.3   143  MET143      0.0692
     64  N        -17.2470   43.4160    1.5600 N.3   145  VAL145     -0.1245
     65  CA       -17.4100   44.4770    0.5810 C.3   145  VAL145      0.1561
     66  C        -17.1940   45.8120    1.2770 C.2   145  VAL145      0.2260
     67  O        -17.9090   46.1260    2.2340 O.2   145  VAL145     -0.2867
     68  CB       -18.8100   44.4440   -0.0660 C.3   145  VAL145      0.0252
     69  CG1      -19.0420   45.7170   -0.8880 C.3   145  VAL145      0.0019
     70  CG2      -18.9880   43.1780   -0.9290 C.3   145  VAL145      0.0019
     71  N        -17.7280   49.5140    2.1850 N.3   147  LEU147     -0.1245
     72  CA       -18.9150   50.3390    2.0380 C.3   147  LEU147      0.1561
     73  C        -18.4740   51.7510    1.6580 C.2   147  LEU147      0.2260
     74  O        -18.6070   52.6810    2.4500 O.2   147  LEU147     -0.2867
     75  CB       -19.7420   50.3180    3.3400 C.3   147  LEU147      0.0270
     76  CG       -20.1520   48.8960    3.7670 C.3   147  LEU147      0.0019
     77  CD1      -20.8310   48.8750    5.1240 C.3   147  LEU147      0.0001
     78  CD2      -21.0600   48.2150    2.7230 C.3   147  LEU147      0.0001
     79  N        -24.3950   54.4720   -2.2450 N.3   151  ASP151     -0.1225
     80  CA       -25.3050   53.4120   -2.6800 C.3   151  ASP151      0.1805
     81  C        -25.0710   52.1400   -1.8480 C.2   151  ASP151      0.2597
     82  O        -26.0210   51.4580   -1.4620 O.2   151  ASP151     -0.2718
     83  CB       -25.1280   53.1170   -4.1690 C.3   151  ASP151      0.1424
     84  CG       -25.4900   54.3110   -5.0410 C.2   151  ASP151      0.3668
     85  OD1      -26.5990   54.8460   -4.8730 O.co2 151  ASP151     -0.2456
     86  OD2      -24.6590   54.7280   -5.8760 O.co2 151  ASP151     -0.2456
     87  N        -23.8100   51.8190   -1.5770 N.am  152  LEU152     -0.1979
     88  CA       -23.4940   50.6370   -0.7630 C.3   152  LEU152      0.1596
     89  C        -24.0200   50.7900    0.6660 C.2   152  LEU152      0.2287
     90  O        -24.5540   49.8440    1.2510 O.2   152  LEU152     -0.2864
     91  CB       -21.9800   50.3870   -0.7460 C.3   152  LEU152      0.0297
     92  CG       -21.4310   49.9170   -2.0960 C.3   152  LEU152      0.0022
     93  CD1      -19.9200   50.1190   -2.1390 C.3   152  LEU152      0.0001
     94  CD2      -21.7870   48.4460   -2.3630 C.3   152  LEU152      0.0001
     95  N        -27.7710   50.1800    0.6910 N.3   155  THR155     -0.1203
     96  CA       -28.1770   48.7950    0.4820 C.3   155  THR155      0.1994
     97  C        -27.8530   47.9430    1.7090 C.2   155  THR155      0.2617
     98  O        -28.6300   47.0720    2.0900 O.2   155  THR155     -0.2717
     99  CB       -27.5240   48.2190   -0.7950 C.3   155  THR155      0.1784
    100  OG1      -28.1500   48.8290   -1.9280 O.3   155  THR155     -0.2211
    101  CG2      -27.7360   46.6960   -0.9090 C.3   155  THR155      0.0376
    102  N        -26.7370   48.2320    2.3600 N.am  156  TRP156     -0.1975
    103  CA       -26.3890   47.5390    3.5960 C.3   156  TRP156      0.1640
    104  C        -27.4890   47.7460    4.6400 C.2   156  TRP156      0.2290
    105  O        -27.9460   46.7850    5.2580 O.2   156  TRP156     -0.2864
    106  CB       -25.0530   48.0430    4.1240 C.3   156  TRP156      0.0576
    107  CG       -24.5920   47.3960    5.4050 C.ar  156  TRP156      0.0006
    108  CD1      -24.5770   47.9520    6.6430 C.ar  156  TRP156      0.0946
    109  CD2      -24.0570   46.0730    5.5520 C.ar  156  TRP156      0.0152
    110  NE1      -24.0580   47.0630    7.5630 N.ar  156  TRP156     -0.2442
    111  CE2      -23.7350   45.8990    6.9140 C.ar  156  TRP156      0.0810
    112  CE3      -23.8170   45.0220    4.6650 C.ar  156  TRP156      0.0012
    113  CZ2      -23.1900   44.7090    7.4100 C.ar  156  TRP156      0.0191
    114  CZ3      -23.2760   43.8420    5.1550 C.ar  156  TRP156      0.0001
    115  CH2      -22.9640   43.6980    6.5100 C.ar  156  TRP156      0.0015
    116  N        -30.6140   45.7230    3.7990 N.3   159  PHE159     -0.1227
    117  CA       -30.5280   44.3080    4.1200 C.3   159  PHE159      0.1736
    118  C        -30.4940   44.0450    5.6300 C.2   159  PHE159      0.2595
    119  O        -31.1070   43.0800    6.0980 O.2   159  PHE159     -0.2718
    120  CB       -29.3280   43.6830    3.4120 C.3   159  PHE159      0.0547
    121  CG       -29.6830   43.1110    2.0560 C.ar  159  PHE159     -0.0202
    122  CD1      -30.0240   41.7710    1.9200 C.ar  159  PHE159     -0.0042
    123  CD2      -29.7260   43.9280    0.9260 C.ar  159  PHE159     -0.0042
    124  CE1      -30.3690   41.2460    0.6740 C.ar  159  PHE159     -0.0003
    125  CE2      -30.0710   43.4090   -0.3230 C.ar  159  PHE159     -0.0003
    126  CZ       -30.3960   42.0670   -0.4440 C.ar  159  PHE159     -0.0000
    127  N        -29.8180   44.9010    6.3930 N.am  160  GLN160     -0.1979
    128  CA       -29.7570   44.7140    7.8450 C.3   160  GLN160      0.1601
    129  C        -31.1620   44.7460    8.4270 C.2   160  GLN160      0.2287
    130  O        -31.4840   43.9810    9.3300 O.2   160  GLN160     -0.2864
    131  CB       -28.8820   45.7830    8.5070 C.3   160  GLN160      0.0394
    132  CG       -27.3950   45.6020    8.2480 C.3   160  GLN160      0.0908
    133  CD       -26.8850   44.2480    8.7170 C.2   160  GLN160      0.2608
    134  OE1      -26.3050   43.4880    7.9430 O.2   160  GLN160     -0.2717
    135  NE2      -27.0970   43.9450    9.9940 N.am  160  GLN160     -0.0878
    136  N        -33.0310   41.3590    7.4240 N.3   163  ILE163     -0.1245
    137  CA       -32.5280   40.2030    8.1570 C.3   163  ILE163      0.1561
    138  C        -33.0500   40.1750    9.5940 C.2   163  ILE163      0.2260
    139  O        -33.5540   39.1510   10.0590 O.2   163  ILE163     -0.2867
    140  CB       -30.9920   40.1780    8.1630 C.3   163  ILE163      0.0252
    141  CG1      -30.4670   39.9870    6.7370 C.3   163  ILE163      0.0019
    142  CG2      -30.4700   39.0540    9.0480 C.3   163  ILE163      0.0019
    143  CD1      -28.9570   40.0760    6.6130 C.3   163  ILE163      0.0001
    144  N        -36.8190   35.7980    5.5880 N.3   170  PHE170     -0.1241
    145  CA       -35.7500   36.4020    4.8070 C.3   170  PHE170      0.1605
    146  C        -35.0470   35.3790    3.9100 C.2   170  PHE170      0.2264
    147  O        -34.8870   35.6200    2.7230 O.2   170  PHE170     -0.2867
    148  CB       -34.7100   37.0820    5.6960 C.3   170  PHE170      0.0534
    149  CG       -33.5070   37.5600    4.9260 C.ar  170  PHE170     -0.0203
    150  CD1      -33.5560   38.7460    4.2160 C.ar  170  PHE170     -0.0042
    151  CD2      -32.3500   36.8000    4.8710 C.ar  170  PHE170     -0.0042
    152  CE1      -32.4580   39.1770    3.4950 C.ar  170  PHE170     -0.0003
    153  CE2      -31.2650   37.2200    4.1490 C.ar  170  PHE170     -0.0003
    154  CZ       -31.3200   38.4080    3.4540 C.ar  170  PHE170     -0.0000
    155  N        -35.6750   35.4450   -0.2770 N.3   174  ILE174     -0.1245
    156  CA       -34.5150   35.9690   -0.9810 C.3   174  ILE174      0.1561
    157  C        -34.3480   35.2490   -2.3150 C.2   174  ILE174      0.2260
    158  O        -33.7730   35.7950   -3.2530 O.2   174  ILE174     -0.2867
    159  CB       -33.2160   35.8520   -0.1290 C.3   174  ILE174      0.0252
    160  CG1      -32.0670   36.6750   -0.7310 C.3   174  ILE174      0.0019
    161  CG2      -32.8050   34.4030    0.0640 C.3   174  ILE174      0.0019
    162  CD1      -32.2510   38.1610   -0.6440 C.3   174  ILE174      0.0001
    163  N        -35.6080   37.0520   -5.2760 N.3   177  PHE177     -0.1227
    164  CA       -34.7750   38.2280   -5.5580 C.3   177  PHE177      0.1736
    165  C        -33.5090   37.8180   -6.3280 C.2   177  PHE177      0.2595
    166  O        -33.1000   38.4410   -7.3090 O.2   177  PHE177     -0.2718
    167  CB       -34.3760   38.9250   -4.2540 C.3   177  PHE177      0.0547
    168  CG       -33.3630   40.0250   -4.4460 C.ar  177  PHE177     -0.0202
    169  CD1      -33.7680   41.2790   -4.8690 C.ar  177  PHE177     -0.0042
    170  CD2      -32.0230   39.7970   -4.1960 C.ar  177  PHE177     -0.0042
    171  CE1      -32.8260   42.3020   -5.0410 C.ar  177  PHE177     -0.0003
    172  CE2      -31.0790   40.8070   -4.3760 C.ar  177  PHE177     -0.0003
    173  CZ       -31.4820   42.0460   -4.7940 C.ar  177  PHE177     -0.0000
    174  N        -32.9180   36.7430   -5.8490 N.am  178  TRP178     -0.1976
    175  CA       -31.6560   36.1940   -6.3410 C.3   178  TRP178      0.1640
    176  C        -31.7510   35.6870   -7.7800 C.2   178  TRP178      0.2290
    177  O        -30.9260   36.0340   -8.6440 O.2   178  TRP178     -0.2864
    178  CB       -31.2830   35.0880   -5.3780 C.3   178  TRP178      0.0576
    179  CG       -30.0550   34.2630   -5.5900 C.ar  178  TRP178      0.0006
    180  CD1      -29.1080   34.3480   -6.5700 C.ar  178  TRP178      0.0946
    181  CD2      -29.6850   33.1760   -4.7510 C.ar  178  TRP178      0.0152
    182  NE1      -28.1470   33.3520   -6.3760 N.ar  178  TRP178     -0.2442
    183  CE2      -28.4940   32.6260   -5.2610 C.ar  178  TRP178      0.0810
    184  CE3      -30.2660   32.6020   -3.6080 C.ar  178  TRP178      0.0012
    185  CZ2      -27.8650   31.5310   -4.6680 C.ar  178  TRP178      0.0191
    186  CZ3      -29.6410   31.5240   -3.0170 C.ar  178  TRP178      0.0001
    187  CH2      -28.4520   30.9990   -3.5470 C.ar  178  TRP178      0.0015
    188  N        -31.5790   30.3850    2.2570 N.3   197  ILE197     -0.1245
    189  CA       -30.2900   30.8680    2.7620 C.3   197  ILE197      0.1561
    190  C        -30.3020   30.9520    4.2860 C.2   197  ILE197      0.2260
    191  O        -31.3250   31.3070    4.8910 O.2   197  ILE197     -0.2867
    192  CB       -29.9810   32.2340    2.1570 C.3   197  ILE197      0.0252
    193  CG1      -29.5540   32.0440    0.7030 C.3   197  ILE197      0.0019
    194  CG2      -28.9220   32.9840    2.9740 C.3   197  ILE197      0.0019
    195  CD1      -29.1820   33.3500   -0.0090 C.3   197  ILE197      0.0001
    196  N        -28.1580   32.9070    7.2900 N.3   199  VAL199     -0.1245
    197  CA       -27.1550   33.9150    7.5930 C.3   199  VAL199      0.1561
    198  C        -26.5300   33.5950    8.9420 C.2   199  VAL199      0.2260
    199  O        -27.2100   33.6210    9.9700 O.2   199  VAL199     -0.2867
    200  CB       -27.7490   35.3330    7.6190 C.3   199  VAL199      0.0252
    201  CG1      -26.6360   36.3680    7.8040 C.3   199  VAL199      0.0019
    202  CG2      -28.5280   35.6130    6.3430 C.3   199  VAL199      0.0019
    203  N        -23.4680   38.7670   10.2600 N.3   202  SER202     -0.1217
    204  CA       -23.3580   39.9830    9.4970 C.3   202  SER202      0.1889
    205  C        -22.7770   41.0020   10.4410 C.2   202  SER202      0.2288
    206  O        -23.2430   41.1330   11.5740 O.2   202  SER202     -0.2866
    207  CB       -24.7170   40.4420    8.9690 C.3   202  SER202      0.2089
    208  OG       -25.3560   39.4100    8.2440 O.3   202  SER202     -0.2183
    209  N        -18.4320   45.7090    4.9900 N.3   213  GLY213     -0.1225
    210  CA       -19.5660   44.8660    5.3370 C.3   213  GLY213      0.1811
    211  C        -19.1920   43.4220    5.1580 C.2   213  GLY213      0.2280
    212  O        -18.8030   43.0240    4.0560 O.2   213  GLY213     -0.2866
    213  N        -20.2000   39.3460    5.6500 N.3   215  THR215     -0.1218
    214  CA       -21.2830   38.3870    5.8260 C.3   215  THR215      0.1862
    215  C        -20.8240   36.9530    5.6220 C.2   215  THR215      0.2287
    216  O        -20.1200   36.6430    4.6620 O.2   215  THR215     -0.2866
    217  CB       -22.4350   38.6600    4.8540 C.3   215  THR215      0.1770
    218  OG1      -22.8750   40.0090    5.0220 O.3   215  THR215     -0.2211
    219  CG2      -23.6040   37.7220    5.1380 C.3   215  THR215      0.0375
    220  N        -22.5650   33.2980    5.0770 N.3   217  TRP217     -0.1241
    221  CA       -23.8700   32.7100    4.8020 C.3   217  TRP217      0.1605
    222  C        -23.7350   31.3570    4.1160 C.2   217  TRP217      0.2264
    223  O        -22.6780   31.0140    3.5770 O.2   217  TRP217     -0.2867
    224  CB       -24.7100   33.6690    3.9690 C.3   217  TRP217      0.0550
    225  CG       -24.0870   34.1120    2.6970 C.ar  217  TRP217      0.0003
    226  CD1      -23.0280   34.9740    2.5390 C.ar  217  TRP217      0.0946
    227  CD2      -24.5130   33.7570    1.3790 C.ar  217  TRP217      0.0152
    228  NE1      -22.7630   35.1520    1.2000 N.ar  217  TRP217     -0.2442
    229  CE2      -23.6630   34.4200    0.4690 C.ar  217  TRP217      0.0810
    230  CE3      -25.5320   32.9340    0.8790 C.ar  217  TRP217      0.0012
    231  CZ2      -23.7960   34.2840   -0.9120 C.ar  217  TRP217      0.0191
    232  CZ3      -25.6620   32.8030   -0.4970 C.ar  217  TRP217      0.0001
    233  CH2      -24.8010   33.4780   -1.3720 C.ar  217  TRP217      0.0015
@<TRIPOS>BOND
     1     4     3    2
     2     1     2    1
     3    19    18    1
     4    19    20    2
     5    22    21    1
     6     3     2    1
     7    18    21    1
     8    18    17    1
     9     2     5    1
    10     5     6    1
    11    21    23    1
    12     8     6    1
    13     6     7    1
    14    24    25    1
    15    27    26    2
    16    11    10    1
    17    11    12    2
    18    10    13    1
    19    10     9    1
    20    13    14    1
    21    26    25    1
    22    25    28    1
    23    15    14    1
    24    28    29    1
    25    14    16    1
    26    30    29   ar
    27    30    32   ar
    28   177   176    2
    29    29    31   ar
    30   176   175    1
    31    32    34   ar
    32    55    54   ar
    33    55    53   ar
    34    35    36    1
    35    31    33   ar
    36   166   165    2
    37    54    52   ar
    38    38    37    2
    39   180   182   ar
    40   180   179   ar
    41    53    51   ar
    42   182   183   ar
    43    34    33   ar
    44   175   174    1
    45   175   178    1
    46   165   174   am
    47   165   164    1
    48    37    36    1
    49    36    39    1
    50    52    50   ar
    51    86    84   ar
    52   179   178    1
    53   179   181   ar
    54   164   163    1
    55   164   167    1
    56    42    44   ar
    57    42    40   ar
    58   183   181   ar
    59   183   185   ar
    60    44    43   ar
    61    51    50   ar
    62    40    39    1
    63    40    41   ar
    64   171   169   ar
    65   171   173   ar
    66    84    85   ar
    67    84    83    1
    68    50    49    1
    69   169   168   ar
    70   173   172   ar
    71   181   184   ar
    72   185   187   ar
    73    43    41   ar
    74   168   167    1
    75   168   170   ar
    76   172   170   ar
    77    83    80    1
    78    45    46    1
    79    48    47    2
    80   184   186   ar
    81   187   186   ar
    82    49    46    1
    83   158   157    2
    84    46    47    1
    85    80    79    1
    86    80    81    1
    87    94    92    1
    88   157   156    1
    89    93    92    1
    90    92    91    1
    91   100    99    1
    92    81    87   am
    93    81    82    2
    94    87    88    1
    95   233   231   ar
    96   233   232   ar
    97   156   155    1
    98   156   159    1
    99    70    68    1
   100   231   229   ar
   101   101    99    1
   102    69    68    1
   103    99    96    1
   104    88    91    1
   105    88    89    1
   106   160   162    1
   107   160   159    1
   108   232   230   ar
   109   126   125   ar
   110   126   124   ar
   111    62    63    1
   112    62    61    1
   113   125   123   ar
   114   159   161    1
   115    68    65    1
   116   195   193    1
   117   229   228   ar
   118   229   227   ar
   119    96    95    1
   120    96    97    1
   121    65    66    1
   122    65    64    1
   123    60    61    1
   124    60    57    1
   125    89    90    2
   126   124   122   ar
   127   193   192    1
   128   230   227   ar
   129   123   121   ar
   130   228   226   ar
   131    66    67    2
   132   227   225   ar
   133    73    72    1
   134    73    74    2
   135    97    98    2
   136    97   102   am
   137    57    58    1
   138    57    56    1
   139   122   121   ar
   140    72    71    1
   141    72    75    1
   142   121   120    1
   143   192   189    1
   144   192   194    1
   145   188   189    1
   146   102   103    1
   147    58    59    2
   148   226   225   ar
   149   225   224    1
   150   147   146    2
   151    78    76    1
   152   189   190    1
   153    75    76    1
   154   120   117    1
   155   154   152   ar
   156   154   153   ar
   157   152   150   ar
   158   223   222    2
   159   103   106    1
   160   103   104    1
   161    76    77    1
   162   116   117    1
   163   146   145    1
   164   224   221    1
   165   212   211    2
   166   222   221    1
   167   117   118    1
   168   106   107    1
   169   153   151   ar
   170   150   149   ar
   171   190   191    2
   172   104   105    2
   173   216   215    2
   174   112   114   ar
   175   112   109   ar
   176   221   220    1
   177   145   144    1
   178   145   148    1
   179   217   218    1
   180   217   219    1
   181   217   214    1
   182   151   149   ar
   183   149   148    1
   184   209   210    1
   185   114   115   ar
   186   211   210    1
   187   107   109   ar
   188   107   108   ar
   189   109   111   ar
   190   215   214    1
   191   118   119    2
   192   118   127   am
   193   213   214    1
   194   202   200    1
   195   127   128    1
   196   115   113   ar
   197   143   141    1
   198   108   110   ar
   199   141   140    1
   200   111   113   ar
   201   111   110   ar
   202   196   197    1
   203   136   137    1
   204   197   200    1
   205   197   198    1
   206   200   201    1
   207   128   129    1
   208   128   131    1
   209   134   133    2
   210   137   140    1
   211   137   138    1
   212   140   142    1
   213   208   207    1
   214   132   131    1
   215   132   133    1
   216   129   130    2
   217   133   135   am
   218   198   199    2
   219   207   204    1
   220   204   203    1
   221   204   205    1
   222   138   139    2
   223   205   206    2
