@<TRIPOS>MOLECULE
tmp/6mezB01.pdb
 215 209 0 0 0
SMALL
GASTEIGER

@<TRIPOS>ATOM
      1  N        -34.3720   38.4550  -25.0150 N.3    35  ILE35      -0.1231
      2  CA       -34.1020   39.4560  -23.9750 C.3    35  ILE35       0.1678
      3  C        -35.0650   40.6300  -24.1220 C.2    35  ILE35       0.2434
      4  O        -35.2260   41.1580  -25.2210 O.2    35  ILE35      -0.2733
      5  CB       -32.6490   39.9860  -24.0440 C.3    35  ILE35       0.0265
      6  CG1      -31.6640   38.8650  -24.4010 C.3    35  ILE35       0.0019
      7  CG2      -32.2710   40.6680  -22.7260 C.3    35  ILE35       0.0020
      8  CD1      -31.5340   37.7840  -23.3360 C.3    35  ILE35       0.0001
      9  N        -35.7110   41.0510  -23.0190 N.am   36  PRO36      -0.2718
     10  CA       -36.6900   42.1520  -23.1570 C.3    36  PRO36       0.1535
     11  C        -36.0570   43.5490  -23.2180 C.2    36  PRO36       0.2598
     12  O        -36.7650   44.5560  -23.2230 O.2    36  PRO36      -0.2715
     13  CB       -37.5820   41.9980  -21.9160 C.3    36  PRO36       0.0310
     14  CG       -36.7250   41.2890  -20.8980 C.3    36  PRO36       0.0237
     15  CD       -35.7910   40.3760  -21.7060 C.3    36  PRO36       0.0939
     16  N        -34.7340   43.5880  -23.3100 N.am   37  LEU37      -0.1978
     17  CA       -33.9990   44.8040  -23.6140 C.3    37  LEU37       0.1596
     18  C        -33.0210   44.4530  -24.7040 C.2    37  LEU37       0.2287
     19  O        -32.2000   43.5520  -24.5170 O.2    37  LEU37      -0.2864
     20  CB       -33.2440   45.3240  -22.3810 C.3    37  LEU37       0.0297
     21  CG       -34.1200   45.8850  -21.2610 C.3    37  LEU37       0.0022
     22  CD1      -33.2520   46.1430  -20.0330 C.3    37  LEU37       0.0001
     23  CD2      -34.8430   47.1490  -21.7130 C.3    37  LEU37       0.0001
     24  N        -28.4240   43.6700  -26.9850 N.3    40  THR40      -0.1218
     25  CA       -27.5910   43.1930  -25.8960 C.3    40  THR40       0.1862
     26  C        -26.3490   42.5050  -26.4700 C.2    40  THR40       0.2287
     27  O        -26.4670   41.5750  -27.2660 O.2    40  THR40      -0.2866
     28  CB       -28.3650   42.2190  -24.9900 C.3    40  THR40       0.1770
     29  OG1      -29.3670   42.9410  -24.2660 O.3    40  THR40      -0.2211
     30  CG2      -27.4350   41.5440  -24.0020 C.3    40  THR40       0.0375
     31  N        -22.2920   40.8950  -25.3750 N.3    42  CYS42      -0.1235
     32  CA       -21.5490   40.4140  -24.2260 C.3    42  CYS42       0.1677
     33  C        -20.2840   39.6960  -24.6530 C.2    42  CYS42       0.2270
     34  O        -20.2700   38.9650  -25.6560 O.2    42  CYS42      -0.2867
     35  CB       -22.4470   39.4970  -23.3850 C.3    42  CYS42       0.0956
     36  SG       -21.6420   38.9130  -21.8480 S.3    42  CYS42      -0.0801
     37  N        -15.9300   39.6870  -17.6890 N.3    64  ILE64      -0.1245
     38  CA       -17.1640   39.8000  -18.4460 C.3    64  ILE64       0.1561
     39  C        -17.4360   41.2640  -18.7230 C.2    64  ILE64       0.2260
     40  O        -17.3150   42.0970  -17.8320 O.2    64  ILE64      -0.2867
     41  CB       -18.3610   39.1980  -17.6820 C.3    64  ILE64       0.0252
     42  CG1      -18.1230   37.7190  -17.4060 C.3    64  ILE64       0.0019
     43  CG2      -19.6750   39.4400  -18.4470 C.3    64  ILE64       0.0019
     44  CD1      -19.1480   37.1140  -16.4330 C.3    64  ILE64       0.0001
     45  N        -20.4560   43.5780  -20.8370 N.3    66  SER66      -0.1217
     46  CA       -21.6790   43.5390  -21.6120 C.3    66  SER66       0.1889
     47  C        -22.2410   44.9290  -21.8120 C.2    66  SER66       0.2288
     48  O        -21.9040   45.8610  -21.0790 O.2    66  SER66      -0.2866
     49  CB       -22.7200   42.6400  -20.9470 C.3    66  SER66       0.2089
     50  OG       -23.1930   43.2130  -19.7380 O.3    66  SER66      -0.2183
     51  N        -26.1590   46.4740  -22.3950 N.3    68  VAL68      -0.1245
     52  CA       -27.5780   46.1180  -22.4090 C.3    68  VAL68       0.1561
     53  C        -28.3930   47.4000  -22.5220 C.2    68  VAL68       0.2260
     54  O        -28.3750   48.2080  -21.5970 O.2    68  VAL68      -0.2867
     55  CB       -27.9800   45.3630  -21.1240 C.3    68  VAL68       0.0252
     56  CG1      -29.4830   45.0890  -21.0920 C.3    68  VAL68       0.0019
     57  CG2      -27.1600   44.0630  -20.9760 C.3    68  VAL68       0.0019
     58  N        -21.7340   47.1810  -18.5830 N.3    73  ASN73      -0.1225
     59  CA       -21.5280   46.4310  -17.3570 C.3    73  ASN73       0.1785
     60  C        -20.2140   45.6770  -17.4210 C.2    73  ASN73       0.2598
     61  O        -19.8270   45.2090  -18.5000 O.2    73  ASN73      -0.2718
     62  CB       -22.6460   45.4110  -17.1380 C.3    73  ASN73       0.1169
     63  CG       -24.0140   45.9630  -17.4690 C.2    73  ASN73       0.2627
     64  OD1      -24.6920   45.4850  -18.3930 O.2    73  ASN73      -0.2716
     65  ND2      -24.4300   46.9790  -16.7310 N.am   73  ASN73      -0.0877
     66  N        -19.5280   45.5450  -16.2880 N.am   74  THR74      -0.1939
     67  CA       -18.3390   44.6890  -16.2520 C.3    74  THR74       0.2028
     68  C        -18.3130   43.8700  -14.9740 C.2    74  THR74       0.2642
     69  O        -18.8950   44.2480  -13.9630 O.2    74  THR74      -0.2714
     70  CB       -17.0090   45.4770  -16.3380 C.3    74  THR74       0.1808
     71  OG1      -16.7980   46.1940  -15.1150 O.3    74  THR74      -0.2208
     72  CG2      -16.9950   46.4380  -17.5280 C.3    74  THR74       0.0379
     73  N        -17.6270   42.7380  -15.0360 N.am   75  LEU75      -0.1977
     74  CA       -17.3800   41.9210  -13.8660 C.3    75  LEU75       0.1596
     75  C        -16.0110   41.3160  -14.0230 C.2    75  LEU75       0.2287
     76  O        -15.6950   40.7580  -15.0660 O.2    75  LEU75      -0.2864
     77  CB       -18.4250   40.8170  -13.7130 C.3    75  LEU75       0.0297
     78  CG       -18.0850   39.7820  -12.6280 C.3    75  LEU75       0.0022
     79  CD1      -18.3030   40.4020  -11.2760 C.3    75  LEU75       0.0001
     80  CD2      -18.9400   38.5400  -12.7690 C.3    75  LEU75       0.0001
     81  N        -13.2270   38.8100  -11.8190 N.3    77  VAL77      -0.1245
     82  CA       -13.0160   37.9940  -10.6380 C.3    77  VAL77       0.1561
     83  C        -11.7030   37.2440  -10.8070 C.2    77  VAL77       0.2260
     84  O        -11.4240   36.7220  -11.8860 O.2    77  VAL77      -0.2867
     85  CB       -14.1500   36.9570  -10.3990 C.3    77  VAL77       0.0252
     86  CG1      -14.1010   36.4610   -8.9690 C.3    77  VAL77       0.0019
     87  CG2      -15.5180   37.5360  -10.7000 C.3    77  VAL77       0.0019
     88  N        -17.1510   44.8850   -9.8290 N.3    97  LEU97      -0.1231
     89  CA       -18.1750   44.9720  -10.8380 C.3    97  LEU97       0.1693
     90  C        -18.5650   46.4280  -11.0740 C.2    97  LEU97       0.2593
     91  O        -18.3610   47.2600  -10.2550 O.2    97  LEU97      -0.2718
     92  CB       -19.3920   44.1560  -10.4660 C.3    97  LEU97       0.0284
     93  CG       -20.2140   44.6110   -9.3000 C.3    97  LEU97       0.0019
     94  CD1      -21.3870   45.3630   -9.8270 C.3    97  LEU97       0.0001
     95  CD2      -20.6780   43.4340   -8.4720 C.3    97  LEU97       0.0001
     96  N        -19.1140   46.6930  -12.2360 N.am   98  SER98      -0.1938
     97  CA       -19.5380   48.0230  -12.5500 C.3    98  SER98       0.2055
     98  C        -20.7520   48.0240  -13.4480 C.2    98  SER98       0.2642
     99  O        -20.8900   47.1960  -14.2560 O.2    98  SER98      -0.2714
    100  CB       -18.3880   48.8430  -13.1140 C.3    98  SER98       0.2130
    101  OG       -18.1140   48.5320  -14.4180 O.3    98  SER98      -0.2179
    102  N        -21.6090   49.0130  -13.2320 N.am   99  VAL99      -0.1977
    103  CA       -22.8040   49.2060  -14.0230 C.3    99  VAL99       0.1596
    104  C        -22.9180   50.7020  -14.1790 C.2    99  VAL99       0.2287
    105  O        -23.0630   51.3780  -13.2450 O.2    99  VAL99      -0.2864
    106  CB       -24.0620   48.6750  -13.3330 C.3    99  VAL99       0.0276
    107  CG1      -25.2970   48.9470  -14.1640 C.3    99  VAL99       0.0022
    108  CG2      -23.9450   47.2060  -13.1010 C.3    99  VAL99       0.0022
    109  N        -15.1950   43.4330   -4.0220 N.3   106  PHE106     -0.1241
    110  CA       -15.5090   42.3800   -3.0730 C.3   106  PHE106      0.1605
    111  C        -14.3390   41.4360   -2.9220 C.2   106  PHE106      0.2264
    112  O        -13.4750   41.3280   -3.7960 O.2   106  PHE106     -0.2867
    113  CB       -16.7640   41.5930   -3.5050 C.3   106  PHE106      0.0534
    114  CG       -16.6970   41.0420   -4.9080 C.ar  106  PHE106     -0.0203
    115  CD1      -16.1240   39.8020   -5.1550 C.ar  106  PHE106     -0.0042
    116  CD2      -17.2180   41.7620   -5.9750 C.ar  106  PHE106     -0.0042
    117  CE1      -16.0640   39.2920   -6.4470 C.ar  106  PHE106     -0.0003
    118  CE2      -17.1540   41.2620   -7.2750 C.ar  106  PHE106     -0.0003
    119  CZ       -16.5830   40.0280   -7.5050 C.ar  106  PHE106     -0.0000
    120  N        -13.6550   37.3280   -0.9990 N.3   108  PHE108     -0.1241
    121  CA       -14.4300   36.2410   -0.4280 C.3   108  PHE108      0.1605
    122  C        -13.5730   35.0190   -0.1710 C.2   108  PHE108      0.2264
    123  O        -12.4980   34.8620   -0.7580 O.2   108  PHE108     -0.2867
    124  CB       -15.5990   35.8650   -1.3540 C.3   108  PHE108      0.0534
    125  CG       -15.1630   35.2320   -2.6590 C.ar  108  PHE108     -0.0203
    126  CD1      -15.0800   33.8500   -2.7860 C.ar  108  PHE108     -0.0042
    127  CD2      -14.8210   36.0200   -3.7410 C.ar  108  PHE108     -0.0042
    128  CE1      -14.6700   33.2720   -3.9820 C.ar  108  PHE108     -0.0003
    129  CE2      -14.4200   35.4400   -4.9440 C.ar  108  PHE108     -0.0003
    130  CZ       -14.3380   34.0720   -5.0530 C.ar  108  PHE108     -0.0000
    131  N        -19.9820   30.5050    2.6280 N.3   141  ILE141     -0.1245
    132  CA       -19.3230   31.6480    2.0890 C.3   141  ILE141      0.1561
    133  C        -19.1050   32.8190    3.0420 C.2   141  ILE141      0.2260
    134  O        -19.9720   33.1810    3.7350 O.2   141  ILE141     -0.2867
    135  CB       -20.1380   32.2000    0.8900 C.3   141  ILE141      0.0252
    136  CG1      -20.2790   31.1630   -0.1940 C.3   141  ILE141      0.0019
    137  CG2      -19.5010   33.4100    0.2810 C.3   141  ILE141      0.0019
    138  CD1      -21.4560   31.3700   -1.0860 C.3   141  ILE141      0.0001
    139  N        -17.9820   36.7590    2.7550 N.3   143  MET143     -0.1245
    140  CA       -17.6550   37.7650    1.7590 C.3   143  MET143      0.1570
    141  C        -17.5740   39.1310    2.4130 C.2   143  MET143      0.2261
    142  O        -18.2130   39.3820    3.4360 O.2   143  MET143     -0.2867
    143  CB       -18.6520   37.7610    0.6050 C.3   143  MET143      0.0387
    144  CG       -20.0350   38.2090    0.9620 C.3   143  MET143      0.0595
    145  SD       -21.2250   37.9160   -0.3700 S.3   143  MET143     -0.1393
    146  CE       -22.6080   38.8010    0.3480 C.3   143  MET143      0.0692
    147  N        -35.6080   37.0520   -5.2760 N.3   177  PHE177     -0.1227
    148  CA       -34.7750   38.2280   -5.5580 C.3   177  PHE177      0.1736
    149  C        -33.5090   37.8180   -6.3280 C.2   177  PHE177      0.2595
    150  O        -33.1000   38.4410   -7.3090 O.2   177  PHE177     -0.2718
    151  CB       -34.3760   38.9250   -4.2540 C.3   177  PHE177      0.0547
    152  CG       -33.3630   40.0250   -4.4460 C.ar  177  PHE177     -0.0202
    153  CD1      -33.7680   41.2790   -4.8690 C.ar  177  PHE177     -0.0042
    154  CD2      -32.0230   39.7970   -4.1960 C.ar  177  PHE177     -0.0042
    155  CE1      -32.8260   42.3020   -5.0410 C.ar  177  PHE177     -0.0003
    156  CE2      -31.0790   40.8070   -4.3760 C.ar  177  PHE177     -0.0003
    157  CZ       -31.4820   42.0460   -4.7940 C.ar  177  PHE177     -0.0000
    158  N        -32.9180   36.7430   -5.8490 N.am  178  TRP178     -0.1962
    159  CA       -31.6560   36.1940   -6.3410 C.3   178  TRP178      0.1771
    160  C        -31.7510   35.6870   -7.7800 C.2   178  TRP178      0.2620
    161  O        -30.9260   36.0340   -8.6440 O.2   178  TRP178     -0.2715
    162  CB       -31.2830   35.0880   -5.3780 C.3   178  TRP178      0.0590
    163  CG       -30.0550   34.2630   -5.5900 C.ar  178  TRP178      0.0006
    164  CD1      -29.1080   34.3480   -6.5700 C.ar  178  TRP178      0.0946
    165  CD2      -29.6850   33.1760   -4.7510 C.ar  178  TRP178      0.0152
    166  NE1      -28.1470   33.3520   -6.3760 N.ar  178  TRP178     -0.2442
    167  CE2      -28.4940   32.6260   -5.2610 C.ar  178  TRP178      0.0810
    168  CE3      -30.2660   32.6020   -3.6080 C.ar  178  TRP178      0.0012
    169  CZ2      -27.8650   31.5310   -4.6680 C.ar  178  TRP178      0.0191
    170  CZ3      -29.6410   31.5240   -3.0170 C.ar  178  TRP178      0.0001
    171  CH2      -28.4520   30.9990   -3.5470 C.ar  178  TRP178      0.0015
    172  N        -32.7660   34.8900   -8.0580 N.am  179  PHE179     -0.1960
    173  CA       -32.9200   34.3070   -9.3900 C.3   179  PHE179      0.1771
    174  C        -33.8480   35.1730  -10.2260 C.2   179  PHE179      0.2619
    175  O        -34.9790   34.7980  -10.5250 O.2   179  PHE179     -0.2715
    176  CB       -33.4080   32.8650   -9.2670 C.3   179  PHE179      0.0574
    177  CG       -32.4860   32.0260   -8.4350 C.ar  179  PHE179     -0.0200
    178  CD1      -31.2240   31.7020   -8.9090 C.ar  179  PHE179     -0.0042
    179  CD2      -32.8410   31.6280   -7.1590 C.ar  179  PHE179     -0.0042
    180  CE1      -30.3440   30.9570   -8.1390 C.ar  179  PHE179     -0.0003
    181  CE2      -31.9710   30.8800   -6.3850 C.ar  179  PHE179     -0.0003
    182  CZ       -30.7170   30.5520   -6.8760 C.ar  179  PHE179     -0.0000
    183  N        -33.3290   36.3340  -10.5890 N.am  180  ILE180     -0.1977
    184  CA       -34.0790   37.3960  -11.2480 C.3   180  ILE180      0.1596
    185  C        -34.6570   36.9720  -12.5990 C.2   180  ILE180      0.2287
    186  O        -34.0460   36.1890  -13.3230 O.2   180  ILE180     -0.2864
    187  CB       -33.1480   38.6490  -11.3970 C.3   180  ILE180      0.0276
    188  CG1      -33.9400   39.8670  -11.8930 C.3   180  ILE180      0.0022
    189  CG2      -31.9220   38.3500  -12.2660 C.3   180  ILE180      0.0022
    190  CD1      -33.1310   41.1730  -11.8100 C.3   180  ILE180      0.0001
    191  N        -22.5650   33.2980    5.0770 N.3   217  TRP217     -0.1241
    192  CA       -23.8700   32.7100    4.8020 C.3   217  TRP217      0.1605
    193  C        -23.7350   31.3570    4.1160 C.2   217  TRP217      0.2264
    194  O        -22.6780   31.0140    3.5770 O.2   217  TRP217     -0.2867
    195  CB       -24.7100   33.6690    3.9690 C.3   217  TRP217      0.0550
    196  CG       -24.0870   34.1120    2.6970 C.ar  217  TRP217      0.0003
    197  CD1      -23.0280   34.9740    2.5390 C.ar  217  TRP217      0.0946
    198  CD2      -24.5130   33.7570    1.3790 C.ar  217  TRP217      0.0152
    199  NE1      -22.7630   35.1520    1.2000 N.ar  217  TRP217     -0.2442
    200  CE2      -23.6630   34.4200    0.4690 C.ar  217  TRP217      0.0810
    201  CE3      -25.5320   32.9340    0.8790 C.ar  217  TRP217      0.0012
    202  CZ2      -23.7960   34.2840   -0.9120 C.ar  217  TRP217      0.0191
    203  CZ3      -25.6620   32.8030   -0.4970 C.ar  217  TRP217      0.0001
    204  CH2      -24.8010   33.4780   -1.3720 C.ar  217  TRP217      0.0015
    205  N        -21.1330   37.3690  -27.8140 N.3   252  PHE252     -0.1241
    206  CA       -22.2570   37.4310  -28.7360 C.3   252  PHE252      0.1605
    207  C        -22.7320   38.8430  -28.9680 C.2   252  PHE252      0.2264
    208  O        -22.4630   39.7590  -28.1670 O.2   252  PHE252     -0.2867
    209  CB       -23.4300   36.5380  -28.2570 C.3   252  PHE252      0.0534
    210  CG       -24.0960   37.0010  -26.9810 C.ar  252  PHE252     -0.0203
    211  CD1      -25.0340   38.0200  -26.9980 C.ar  252  PHE252     -0.0042
    212  CD2      -23.8020   36.3820  -25.7620 C.ar  252  PHE252     -0.0042
    213  CE1      -25.6560   38.4460  -25.8150 C.ar  252  PHE252     -0.0003
    214  CE2      -24.4310   36.7930  -24.5750 C.ar  252  PHE252     -0.0003
    215  CZ       -25.3540   37.8190  -24.6060 C.ar  252  PHE252     -0.0000
@<TRIPOS>BOND
     1   207   206    1
     2   207   208    2
     3   206   209    1
     4   206   205    1
     5   209   210    1
     6    27    26    2
     7   211   210   ar
     8   211   213   ar
     9    24    25    1
    10   210   212   ar
    11    26    25    1
    12    25    28    1
    13   213   215   ar
    14   212   214   ar
    15    34    33    2
    16    31    32    1
    17     4     3    2
    18     1     2    1
    19    28    29    1
    20    28    30    1
    21    18    19    2
    22    18    17    1
    23    33    32    1
    24   215   214   ar
    25     6     5    1
    26     6     8    1
    27    32    35    1
    28     3     2    1
    29     3     9   am
    30     5     2    1
    31     5     7    1
    32    17    16    1
    33    17    20    1
    34    35    36    1
    35    16    11   am
    36    12    11    2
    37    11    10    1
    38    10     9    1
    39    10    13    1
    40     9    15    1
    41    53    52    1
    42    53    54    2
    43    52    51    1
    44    52    55    1
    45    20    21    1
    46    13    14    1
    47    47    46    1
    48    47    48    2
    49    23    21    1
    50    15    14    1
    51    46    49    1
    52    46    45    1
    53    21    22    1
    54    55    56    1
    55    55    57    1
    56    49    50    1
    57    39    38    1
    58    39    40    2
    59    58    59    1
    60    61    60    2
    61    43    41    1
    62    38    37    1
    63    38    41    1
    64    64    63    2
    65    41    42    1
    66    72    70    1
    67    63    62    1
    68    63    65   am
    69    60    59    1
    70    60    66   am
    71    42    44    1
    72    59    62    1
    73    70    67    1
    74    70    71    1
    75    66    67    1
    76    67    68    1
    77    76    75    2
    78    73    68   am
    79    73    74    1
    80    68    69    2
    81   101   100    1
    82    99    98    2
    83   104   103    1
    84   104   105    2
    85   107   106    1
    86    75    74    1
    87   103   106    1
    88   103   102    1
    89    74    77    1
    90    77    78    1
    91    98   102   am
    92    98    97    1
    93   106   108    1
    94   186   185    2
    95   100    97    1
    96    80    78    1
    97    78    79    1
    98   185   184    1
    99    97    96    1
   100   189   187    1
   101    96    90   am
   102   188   190    1
   103   188   187    1
   104    84    83    2
   105    81    82    1
   106   187   184    1
   107   184   183    1
   108    90    89    1
   109    90    91    2
   110    89    92    1
   111    89    88    1
   112    83    82    1
   113    87    85    1
   114    82    85    1
   115   183   174   am
   116   175   174    2
   117    92    93    1
   118    85    86    1
   119   174   173    1
   120    94    93    1
   121   173   176    1
   122   173   172    1
   123    93    95    1
   124   176   177    1
   125   178   177   ar
   126   178   180   ar
   127   161   160    2
   128   177   179   ar
   129   180   182   ar
   130   172   160   am
   131   160   159    1
   132   119   118   ar
   133   119   117   ar
   134   150   149    2
   135   118   116   ar
   136   179   181   ar
   137   182   181   ar
   138   164   166   ar
   139   164   163   ar
   140   117   115   ar
   141   166   167   ar
   142   159   158    1
   143   159   162    1
   144   149   158   am
   145   149   148    1
   146   116   114   ar
   147   163   162    1
   148   163   165   ar
   149   148   147    1
   150   148   151    1
   151   167   165   ar
   152   167   169   ar
   153   115   114   ar
   154   130   129   ar
   155   130   128   ar
   156   155   153   ar
   157   155   157   ar
   158   129   127   ar
   159   114   113    1
   160   153   152   ar
   161   157   156   ar
   162   165   168   ar
   163   169   171   ar
   164   152   151    1
   165   152   154   ar
   166   156   154   ar
   167   109   110    1
   168   128   126   ar
   169   112   111    2
   170   127   125   ar
   171   168   170   ar
   172   171   170   ar
   173   113   110    1
   174   110   111    1
   175   126   125   ar
   176   125   124    1
   177   204   202   ar
   178   204   203   ar
   179   124   121    1
   180   138   136    1
   181   120   121    1
   182   202   200   ar
   183   123   122    2
   184   203   201   ar
   185   121   122    1
   186   145   146    1
   187   145   144    1
   188   136   135    1
   189   137   135    1
   190   200   199   ar
   191   200   198   ar
   192   143   144    1
   193   143   140    1
   194   201   198   ar
   195   135   132    1
   196   199   197   ar
   197   198   196   ar
   198   140   141    1
   199   140   139    1
   200   132   131    1
   201   132   133    1
   202   141   142    2
   203   197   196   ar
   204   196   195    1
   205   133   134    2
   206   194   193    2
   207   195   192    1
   208   193   192    1
   209   192   191    1
