@<TRIPOS>MOLECULE
tmp/6mf9B00.pdb
 123 120 0 0 0
SMALL
GASTEIGER

@<TRIPOS>ATOM
      1  N         -0.4570   96.5010   10.7330 N.3    33  HIS33      -0.1226
      2  CA        -1.4930   95.7620    9.9960 C.3    33  HIS33       0.1752
      3  C         -1.6570   96.2830    8.5590 C.2    33  HIS33       0.2596
      4  O         -2.1630   95.5520    7.7070 O.2    33  HIS33      -0.2718
      5  CB        -2.8180   95.8160   10.7670 C.3    33  HIS33       0.0759
      6  CG        -3.4400   97.1670   10.7410 C.ar   33  HIS33       0.0818
      7  ND1       -4.4000   97.5120    9.8060 N.ar   33  HIS33      -0.2268
      8  CD2       -3.2000   98.2770   11.4790 C.ar   33  HIS33       0.1154
      9  CE1       -4.7530   98.7680    9.9950 C.ar   33  HIS33       0.1986
     10  NE2       -4.0420   99.2590   11.0210 N.ar   33  HIS33      -0.2212
     11  N         -1.2290   97.5140    8.2520 N.am   34  VAL34      -0.1966
     12  CA        -1.4830   98.0320    6.8990 C.3    34  VAL34       0.1727
     13  C         -0.6090   97.2970    5.8730 C.2    34  VAL34       0.2616
     14  O         -0.9290   97.3270    4.6900 O.2    34  VAL34      -0.2715
     15  CB        -1.3020   99.5570    6.7890 C.3    34  VAL34       0.0290
     16  CG1       -2.1370  100.3070    7.8120 C.3    34  VAL34       0.0023
     17  CG2        0.1470   99.9750    6.8650 C.3    34  VAL34       0.0023
     18  N          0.4530   96.6140    6.3100 N.am   35  PHE35      -0.1974
     19  CA         1.3220   95.9030    5.3860 C.3    35  PHE35       0.1639
     20  C          0.8750   94.4560    5.2090 C.2    35  PHE35       0.2290
     21  O          1.5760   93.6960    4.5200 O.2    35  PHE35      -0.2864
     22  CB         2.7700   95.9840    5.8550 C.3    35  PHE35       0.0560
     23  CG         3.2960   97.3900    5.7920 C.ar   35  PHE35      -0.0200
     24  CD1        3.6890   97.9330    4.5790 C.ar   35  PHE35      -0.0042
     25  CD2        3.3320   98.1870    6.9250 C.ar   35  PHE35      -0.0042
     26  CE1        4.1400   99.2380    4.5060 C.ar   35  PHE35      -0.0003
     27  CE2        3.7810   99.4960    6.8470 C.ar   35  PHE35      -0.0003
     28  CZ         4.1920  100.0150    5.6420 C.ar   35  PHE35      -0.0000
     29  N         -2.2300   93.0490    3.9990 N.3    37  ASN37      -0.1225
     30  CA        -3.0220   92.5970    2.8650 C.3    37  ASN37       0.1785
     31  C         -2.7150   93.4370    1.6180 C.2    37  ASN37       0.2597
     32  O         -2.0900   94.4900    1.6870 O.2    37  ASN37      -0.2718
     33  CB        -4.5220   92.6310    3.1820 C.3    37  ASN37       0.1169
     34  CG        -4.8900   91.6750    4.3020 C.2    37  ASN37       0.2627
     35  OD1       -5.2250   92.1170    5.3950 O.2    37  ASN37      -0.2716
     36  ND2       -4.7610   90.3810    4.0650 N.am   37  ASN37      -0.0877
     37  N         -3.1920   92.9240    0.4920 N.am   38  ARG38      -0.1966
     38  CA        -3.1240   93.6000   -0.7910 C.3    38  ARG38       0.1729
     39  C         -3.7700   94.9830   -0.6850 C.2    38  ARG38       0.2616
     40  O         -4.8470   95.1510   -0.1240 O.2    38  ARG38      -0.2715
     41  CB        -3.8420   92.7800   -1.8660 C.3    38  ARG38       0.0348
     42  CG        -3.5230   93.2130   -3.2900 C.3    38  ARG38       0.0492
     43  CD        -4.1460   92.3000   -4.3370 C.3    38  ARG38       0.2205
     44  NE        -4.0110   92.8330   -5.6910 N.pl3  38  ARG38      -0.0865
     45  CZ        -4.7290   93.8390   -6.2050 C.cat  38  ARG38       0.5346
     46  NH1       -5.6960   94.4050   -5.5040 N.pl3  38  ARG38       0.1354
     47  NH2       -4.4500   94.3060   -7.4100 N.pl3  38  ARG38       0.1354
     48  N         -3.0840   95.9560   -1.2520 N.am   39  VAL39      -0.1977
     49  CA        -3.5970   97.2990   -1.3840 C.3    39  VAL39       0.1596
     50  C         -4.7690   97.2770   -2.3760 C.2    39  VAL39       0.2287
     51  O         -4.6290   96.7950   -3.5070 O.2    39  VAL39      -0.2864
     52  CB        -2.4820   98.2510   -1.8590 C.3    39  VAL39       0.0276
     53  CG1       -2.9980   99.6660   -2.0670 C.3    39  VAL39       0.0022
     54  CG2       -1.2910   98.2430   -0.9110 C.3    39  VAL39       0.0022
     55  N         -8.7080  102.1200   -2.6330 N.3    43  ILE43      -0.1231
     56  CA        -8.0490  102.9640   -1.6080 C.3    43  ILE43       0.1692
     57  C         -6.8820  103.7530   -2.2140 C.2    43  ILE43       0.2591
     58  O         -6.5380  104.8110   -1.7070 O.2    43  ILE43      -0.2718
     59  CB        -7.5740  102.0730   -0.4370 C.3    43  ILE43       0.0266
     60  CG1       -8.7440  101.5300    0.3850 C.3    43  ILE43       0.0019
     61  CG2       -6.5560  102.7810    0.4380 C.3    43  ILE43       0.0020
     62  CD1       -9.6360  102.5930    0.9750 C.3    43  ILE43       0.0001
     63  N         -6.3260  103.2340   -3.3160 N.am   44  ALA44      -0.1980
     64  CA        -5.3860  103.9720   -4.1750 C.3    44  ALA44       0.1597
     65  C         -5.4650  103.4260   -5.6120 C.2    44  ALA44       0.2287
     66  O         -4.7860  102.4590   -5.9650 O.2    44  ALA44      -0.2864
     67  CB        -3.9900  103.8780   -3.6160 C.3    44  ALA44       0.0319
     68  N         -2.0940  102.9190   -7.7450 N.3    47  TYR47      -0.1241
     69  CA        -0.9850  102.1990   -7.1000 C.3    47  TYR47       0.1605
     70  C         -0.3250  101.2220   -8.0770 C.2    47  TYR47       0.2264
     71  O          0.9030  101.1780   -8.1600 O.2    47  TYR47      -0.2867
     72  CB        -1.4850  101.4330   -5.8740 C.3    47  TYR47       0.0534
     73  CG        -0.4150  100.7940   -5.0320 C.ar   47  TYR47      -0.0201
     74  CD1        0.3010  101.5370   -4.1080 C.ar   47  TYR47      -0.0009
     75  CD2       -0.1170   99.4500   -5.1540 C.ar   47  TYR47      -0.0009
     76  CE1        1.2810  100.9560   -3.3180 C.ar   47  TYR47       0.0417
     77  CE2        0.8450   98.8440   -4.3550 C.ar   47  TYR47       0.0417
     78  CZ         1.5460   99.6020   -3.4350 C.ar   47  TYR47       0.1957
     79  OH         2.4940   99.0250   -2.6460 O.3    47  TYR47      -0.2866
     80  N          6.7480  101.1330   -0.6180 N.3    86  CYS86      -0.1235
     81  CA         6.1970  102.0760    0.3380 C.3    86  CYS86       0.1677
     82  C          6.8610  103.4580    0.1730 C.2    86  CYS86       0.2270
     83  O          6.1640  104.4820    0.1200 O.2    86  CYS86      -0.2867
     84  CB         6.3670  101.5670    1.7680 C.3    86  CYS86       0.0956
     85  SG         5.5670  102.6310    2.9950 S.3    86  CYS86      -0.0801
     86  N          5.9430  104.9510   -3.5460 N.3    89  TYR89      -0.1227
     87  CA         4.5720  105.4070   -3.7400 C.3    89  TYR89       0.1736
     88  C          4.2200  106.5350   -2.7600 C.2    89  TYR89       0.2595
     89  O          3.5390  107.5020   -3.1270 O.2    89  TYR89      -0.2718
     90  CB         3.5700  104.2630   -3.6110 C.3    89  TYR89       0.0548
     91  CG         2.1420  104.6950   -3.8150 C.ar   89  TYR89      -0.0200
     92  CD1        1.5660  104.7140   -5.0780 C.ar   89  TYR89      -0.0009
     93  CD2        1.3650  105.1000   -2.7400 C.ar   89  TYR89      -0.0009
     94  CE1        0.2520  105.1240   -5.2650 C.ar   89  TYR89       0.0417
     95  CE2        0.0450  105.4930   -2.9050 C.ar   89  TYR89       0.0417
     96  CZ        -0.5140  105.5000   -4.1710 C.ar   89  TYR89       0.1957
     97  OH        -1.8020  105.9140   -4.3230 O.3    89  TYR89      -0.2866
     98  N          4.6450  106.4350   -1.5140 N.am   90  ASN90      -0.1974
     99  CA         4.1600  107.3720   -0.4980 C.3    90  ASN90       0.1688
    100  C          5.1020  108.5720   -0.3390 C.2    90  ASN90       0.2292
    101  O          4.6890  109.5770    0.2080 O.2    90  ASN90      -0.2864
    102  CB         3.9940  106.6910    0.8620 C.3    90  ASN90       0.1181
    103  CG         2.9540  105.5900    0.8500 C.2    90  ASN90       0.2629
    104  OD1        1.7640  105.8680    0.7730 O.2    90  ASN90      -0.2716
    105  ND2        3.3850  104.3430    0.9400 N.am   90  ASN90      -0.0877
    106  N          6.9360  109.9710    4.2930 N.3    94  HIS94      -0.1241
    107  CA         5.6280  109.5090    4.7520 C.3    94  HIS94       0.1621
    108  C          5.7790  108.7000    6.0470 C.2    94  HIS94       0.2264
    109  O          6.7300  107.9400    6.1850 O.2    94  HIS94      -0.2867
    110  CB         4.9400  108.6640    3.6780 C.3    94  HIS94       0.0745
    111  CG         3.4760  108.4750    3.8820 C.ar   94  HIS94       0.0817
    112  ND1        2.9590  107.5230    4.7510 N.ar   94  HIS94      -0.2268
    113  CD2        2.4170  109.0740    3.2930 C.ar   94  HIS94       0.1154
    114  CE1        1.6420  107.5600    4.6980 C.ar   94  HIS94       0.1986
    115  NE2        1.2810  108.5010    3.8070 N.ar   94  HIS94      -0.2212
    116  N          4.2980  106.0500    7.1070 N.3    96  LEU96      -0.1245
    117  CA         4.3130  104.5810    6.8990 C.3    96  LEU96       0.1561
    118  C          5.7270  104.0660    6.6110 C.2    96  LEU96       0.2260
    119  O          6.0170  102.9060    6.9040 O.2    96  LEU96      -0.2867
    120  CB         3.3900  104.2050    5.7410 C.3    96  LEU96       0.0270
    121  CG         1.8970  104.1640    6.0540 C.3    96  LEU96       0.0019
    122  CD1        1.1180  103.6900    4.8300 C.3    96  LEU96       0.0001
    123  CD2        1.6040  103.2650    7.2510 C.3    96  LEU96       0.0001
@<TRIPOS>BOND
     1    71    70    2
     2    70    69    1
     3    68    69    1
     4    47    45    1
     5    69    72    1
     6    45    44    2
     7    45    46    1
     8    66    65    2
     9    72    73    1
    10    44    43    1
    11    65    64    1
    12    94    92   ar
    13    94    96   ar
    14    75    73   ar
    15    75    77   ar
    16    92    91   ar
    17    73    74   ar
    18    77    78   ar
    19    43    42    1
    20    97    96    1
    21    64    67    1
    22    64    63    1
    23    96    95   ar
    24    74    76   ar
    25    91    90    1
    26    91    93   ar
    27    87    90    1
    28    87    86    1
    29    87    88    1
    30    51    50    2
    31    78    76   ar
    32    78    79    1
    33    63    57   am
    34    42    41    1
    35    89    88    2
    36    95    93   ar
    37    88    98   am
    38    55    56    1
    39    50    49    1
    40    57    58    2
    41    57    56    1
    42    53    52    1
    43    41    38    1
    44    52    49    1
    45    52    54    1
    46    56    59    1
    47    98    99    1
    48    49    48    1
    49    48    39   am
    50    38    39    1
    51    38    37    1
    52    39    40    2
    53    80    81    1
    54    99   100    1
    55    99   102    1
    56    59    60    1
    57    59    61    1
    58   100   101    2
    59    83    82    2
    60    82    81    1
    61    81    84    1
    62    60    62    1
    63    37    31   am
    64   104   103    2
    65   103   102    1
    66   103   105   am
    67    31    32    2
    68    31    30    1
    69    84    85    1
    70    30    33    1
    71    30    29    1
    72    33    34    1
    73   113   115   ar
    74   113   111   ar
    75   110   111    1
    76   110   107    1
    77   115   114   ar
    78   111   112   ar
    79    36    34   am
    80   106   107    1
    81    34    35    2
    82    26    24   ar
    83    26    28   ar
    84    21    20    2
    85    24    23   ar
    86    14    13    2
    87   114   112   ar
    88   107   108    1
    89   122   121    1
    90    20    19    1
    91    19    22    1
    92    19    18    1
    93    28    27   ar
    94   120   121    1
    95   120   117    1
    96    23    22    1
    97    23    25   ar
    98    13    18   am
    99    13    12    1
   100   108   109    2
   101   121   123    1
   102   118   117    1
   103   118   119    2
   104    15    17    1
   105    15    12    1
   106    15    16    1
   107    27    25   ar
   108   117   116    1
   109    12    11    1
   110     4     3    2
   111    11     3   am
   112     3     2    1
   113     7     9   ar
   114     7     6   ar
   115     9    10   ar
   116     2     1    1
   117     2     5    1
   118     6     5    1
   119     6     8   ar
   120    10     8   ar
