@<TRIPOS>MOLECULE
tmp/6mfeA01.pdb
 224 212 0 0 0
SMALL
GASTEIGER

@<TRIPOS>ATOM
      1  N        116.7970    3.7370    8.7070 N.3    18  PRO18      -0.2102
      2  CA       115.9350    3.5060    9.8630 C.3    18  PRO18       0.1504
      3  C        115.1510    2.2090    9.7180 C.2    18  PRO18       0.2575
      4  O        114.7390    1.8320    8.6200 O.2    18  PRO18      -0.2718
      5  CB       115.0020    4.7220    9.8590 C.3    18  PRO18       0.0282
      6  CG       115.1700    5.3510    8.5240 C.3    18  PRO18       0.0208
      7  CD       116.5400    5.0490    8.0920 C.3    18  PRO18       0.0893
      8  N        114.9050    1.5720   10.8660 N.am   19  ARG19      -0.1980
      9  CA       114.1810    0.3020   10.9850 C.3    19  ARG19       0.1597
     10  C        114.9680   -0.8980   10.4700 C.2    19  ARG19       0.2287
     11  O        114.3750   -1.8810   10.0080 O.2    19  ARG19      -0.2864
     12  CB       112.7950    0.3540   10.3400 C.3    19  ARG19       0.0334
     13  CG       111.9490    1.5510   10.7440 C.3    19  ARG19       0.0492
     14  CD       111.8590    1.7880   12.2750 C.3    19  ARG19       0.2205
     15  NE       111.1930    0.7030   12.9780 N.pl3  19  ARG19      -0.0865
     16  CZ       111.1360    0.5830   14.3040 C.cat  19  ARG19       0.5346
     17  NH1      111.7300    1.4740   15.0910 N.pl3  19  ARG19       0.1354
     18  NH2      110.4720   -0.4170   14.8590 N.pl3  19  ARG19       0.1354
     19  N        119.1000    0.0150   13.8940 N.3    22  THR22      -0.1218
     20  CA       119.9990    1.1150   14.2330 C.3    22  THR22       0.1862
     21  C        120.0620    1.3670   15.7400 C.2    22  THR22       0.2287
     22  O        121.1210    1.7230   16.2570 O.2    22  THR22      -0.2866
     23  CB       119.6090    2.4170   13.4900 C.3    22  THR22       0.1770
     24  OG1      118.3250    2.8610   13.9300 O.3    22  THR22      -0.2211
     25  CG2      119.5980    2.2210   11.9600 C.3    22  THR22       0.0375
     26  N        122.1380    8.9740   16.8570 N.3    39  HIS39      -0.1226
     27  CA       120.9170    8.2780   16.4720 C.3    39  HIS39       0.1752
     28  C        119.8110    9.3250   16.5120 C.2    39  HIS39       0.2596
     29  O        119.9400   10.3510   17.1880 O.2    39  HIS39      -0.2718
     30  CB       120.6280    7.1540   17.4570 C.3    39  HIS39       0.0759
     31  CG       119.5130    6.2480   17.0500 C.ar   39  HIS39       0.0818
     32  ND1      118.2020    6.4610   17.4230 N.ar   39  HIS39      -0.2268
     33  CD2      119.5220    5.0960   16.3380 C.ar   39  HIS39       0.1154
     34  CE1      117.4500    5.4930   16.9230 C.ar   39  HIS39       0.1986
     35  NE2      118.2270    4.6560   16.2600 N.ar   39  HIS39      -0.2212
     36  N        118.7070    9.0560   15.8070 N.am   40  MET40      -0.1965
     37  CA       117.5960   10.0000   15.9140 C.3    40  MET40       0.1736
     38  C        117.1390   10.1660   17.3620 C.2    40  MET40       0.2616
     39  O        116.6880   11.2580   17.7500 O.2    40  MET40      -0.2715
     40  CB       116.4360    9.5650   15.0400 C.3    40  MET40       0.0427
     41  CG       115.3190   10.5900   14.9390 C.3    40  MET40       0.0599
     42  SD       115.8070   12.1780   14.1940 S.3    40  MET40      -0.1393
     43  CE       115.8820   11.8130   12.4560 C.3    40  MET40       0.0692
     44  N        117.2360    9.1120   18.1790 N.am   41  PHE41      -0.1974
     45  CA       116.8120    9.2330   19.5680 C.3    41  PHE41       0.1639
     46  C        117.6960   10.2030   20.3370 C.2    41  PHE41       0.2290
     47  O        117.2620   10.7650   21.3380 O.2    41  PHE41      -0.2864
     48  CB       116.8150    7.8780   20.2830 C.3    41  PHE41       0.0560
     49  CG       115.6420    6.9790   19.9530 C.ar   41  PHE41      -0.0200
     50  CD1      114.9720    7.0510   18.7390 C.ar   41  PHE41      -0.0042
     51  CD2      115.2330    6.0350   20.8750 C.ar   41  PHE41      -0.0042
     52  CE1      113.9170    6.2040   18.4590 C.ar   41  PHE41      -0.0003
     53  CE2      114.1770    5.1860   20.5980 C.ar   41  PHE41      -0.0003
     54  CZ       113.5270    5.2690   19.3800 C.ar   41  PHE41      -0.0000
     55  N        116.0170   13.4520   19.6860 N.3    44  ILE44      -0.1231
     56  CA       114.7540   13.5550   20.4220 C.3    44  ILE44       0.1692
     57  C        115.0050   13.8150   21.8950 C.2    44  ILE44       0.2592
     58  O        114.3520   14.6660   22.5090 O.2    44  ILE44      -0.2718
     59  CB       113.9110   12.2850   20.2160 C.3    44  ILE44       0.0266
     60  CG1      113.5130   12.1610   18.7440 C.3    44  ILE44       0.0019
     61  CG2      112.6840   12.3140   21.1190 C.3    44  ILE44       0.0020
     62  CD1      112.7680   10.8740   18.4180 C.3    44  ILE44       0.0001
     63  N        115.9440   13.0900   22.4880 N.am   45  PHE45      -0.1976
     64  CA       116.0910   13.1260   23.9380 C.3    45  PHE45       0.1639
     65  C        117.0580   14.1760   24.4420 C.2    45  PHE45       0.2290
     66  O        116.8460   14.7170   25.5280 O.2    45  PHE45      -0.2864
     67  CB       116.5660   11.7740   24.4430 C.3    45  PHE45       0.0560
     68  CG       115.5000   10.7790   24.4650 C.ar   45  PHE45      -0.0200
     69  CD1      114.5170   10.8390   25.4320 C.ar   45  PHE45      -0.0042
     70  CD2      115.4270    9.8110   23.4940 C.ar   45  PHE45      -0.0042
     71  CE1      113.5100    9.9270   25.4400 C.ar   45  PHE45      -0.0003
     72  CE2      114.4190    8.8980   23.5140 C.ar   45  PHE45      -0.0003
     73  CZ       113.4580    8.9640   24.4800 C.ar   45  PHE45      -0.0000
     74  N        121.6040    5.8890   11.8500 N.3    93  ASP93      -0.1225
     75  CA       120.2300    6.3660   11.6720 C.3    93  ASP93       0.1805
     76  C        120.1500    7.6480   10.8530 C.2    93  ASP93       0.2597
     77  O        121.1630    8.2980   10.5840 O.2    93  ASP93      -0.2718
     78  CB       119.6060    6.6020   13.0460 C.3    93  ASP93       0.1424
     79  CG       118.0870    6.5690   13.0440 C.2    93  ASP93       0.3668
     80  OD1      117.4510    6.3070   11.9940 O.co2  93  ASP93      -0.2456
     81  OD2      117.5370    6.8450   14.1420 O.co2  93  ASP93      -0.2456
     82  N        118.9410    8.0230   10.4460 N.am   94  LEU94      -0.1979
     83  CA       118.7240    9.3860   10.0100 C.3    94  LEU94       0.1596
     84  C        119.0250   10.3170   11.1810 C.2    94  LEU94       0.2287
     85  O        118.7910    9.9630   12.3380 O.2    94  LEU94      -0.2864
     86  CB       117.2640    9.5920    9.6040 C.3    94  LEU94       0.0297
     87  CG       116.7570    8.8040    8.3950 C.3    94  LEU94       0.0022
     88  CD1      115.3260    9.1460    8.1960 C.3    94  LEU94       0.0001
     89  CD2      117.5580    9.0680    7.1530 C.3    94  LEU94       0.0001
     90  N        105.9240    2.9610   12.3970 N.3   129  VAL129     -0.1231
     91  CA       106.7070    3.7840   13.3200 C.3   129  VAL129      0.1692
     92  C        107.0370    5.1560   12.7340 C.2   129  VAL129      0.2591
     93  O        106.8480    6.1810   13.3920 O.2   129  VAL129     -0.2718
     94  CB       107.9990    3.0580   13.7390 C.3   129  VAL129      0.0266
     95  CG1      108.8320    3.9430   14.6850 C.3   129  VAL129      0.0020
     96  CG2      107.6830    1.7650   14.3950 C.3   129  VAL129      0.0020
     97  N        107.6190    5.1880   11.5470 N.am  130  VAL130     -0.1980
     98  CA       108.2270    6.4050   11.0000 C.3   130  VAL130      0.1595
     99  C        107.2910    7.1210   10.0340 C.2   130  VAL130      0.2287
    100  O        107.1380    8.3460   10.0940 O.2   130  VAL130     -0.2864
    101  CB       109.5700    6.0670   10.3130 C.3   130  VAL130      0.0276
    102  CG1      110.2480    7.3320    9.8140 C.3   130  VAL130      0.0022
    103  CG2      110.4680    5.3570   11.2650 C.3   130  VAL130      0.0022
    104  N        100.3540    8.6980   16.4820 N.3   142  ILE142     -0.1245
    105  CA       101.7780    9.0090   16.4490 C.3   142  ILE142      0.1561
    106  C        101.9920   10.4930   16.7360 C.2   142  ILE142      0.2260
    107  O        102.8040   10.8820   17.5890 O.2   142  ILE142     -0.2867
    108  CB       102.3430    8.5930   15.0830 C.3   142  ILE142      0.0252
    109  CG1      102.8130    7.1490   15.1530 C.3   142  ILE142      0.0019
    110  CG2      103.4030    9.5320   14.6700 C.3   142  ILE142      0.0019
    111  CD1      103.2880    6.6050   13.8440 C.3   142  ILE142      0.0001
    112  N        101.2310   11.4930   20.4070 N.3   145  GLY145     -0.1210
    113  CA       102.3110   11.1170   21.2950 C.3   145  GLY145      0.1956
    114  C        103.5440   11.9800   21.1130 C.2   145  GLY145      0.2611
    115  O        104.2100   12.3360   22.0850 O.2   145  GLY145     -0.2717
    116  N        103.8620   12.3370   19.8680 N.am  146  ASP146     -0.1973
    117  CA       105.0740   13.1070   19.6110 C.3   146  ASP146      0.1709
    118  C        105.0020   14.5100   20.1910 C.2   146  ASP146      0.2293
    119  O        106.0360   15.0720   20.5660 O.2   146  ASP146     -0.2864
    120  CB       105.3170   13.1920   18.1160 C.3   146  ASP146      0.1436
    121  CG       105.8640   11.9100   17.5500 C.2   146  ASP146      0.3671
    122  OD1      106.2330   11.0130   18.3380 O.co2 146  ASP146     -0.2456
    123  OD2      105.9030   11.8110   16.3150 O.co2 146  ASP146     -0.2456
    124  N        106.4570   14.9450   23.5810 N.3   149  LEU149     -0.1245
    125  CA       107.9140   15.0530   23.6110 C.3   149  LEU149      0.1561
    126  C        108.4330   16.3990   23.1190 C.2   149  LEU149      0.2260
    127  O        109.6540   16.5970   23.0730 O.2   149  LEU149     -0.2867
    128  CB       108.5160   13.9570   22.7220 C.3   149  LEU149      0.0270
    129  CG       108.0920   12.5230   23.0500 C.3   149  LEU149      0.0019
    130  CD1      108.7010   11.5160   22.0470 C.3   149  LEU149      0.0001
    131  CD2      108.5280   12.1900   24.4670 C.3   149  LEU149      0.0001
    132  N        107.9560   17.4100   19.9770 N.3   151  LEU151     -0.1245
    133  CA       108.2710   17.2560   18.5650 C.3   151  LEU151      0.1561
    134  C        107.1450   17.8550   17.7400 C.2   151  LEU151      0.2260
    135  O        105.9640   17.5800   17.9850 O.2   151  LEU151     -0.2867
    136  CB       108.4430   15.7800   18.2240 C.3   151  LEU151      0.0270
    137  CG       109.5440   15.0680   19.0070 C.3   151  LEU151      0.0019
    138  CD1      109.5730   13.5900   18.6260 C.3   151  LEU151      0.0001
    139  CD2      110.8920   15.7070   18.7670 C.3   151  LEU151      0.0001
    140  N        110.3620   18.5170   13.1840 N.3   155  PHE155     -0.1227
    141  CA       110.9120   17.1810   13.3490 C.3   155  PHE155      0.1736
    142  C        110.5520   16.3050   12.1580 C.2   155  PHE155      0.2595
    143  O        111.3910   15.5800   11.6310 O.2   155  PHE155     -0.2718
    144  CB       110.4190   16.5540   14.6490 C.3   155  PHE155      0.0547
    145  CG       110.8400   15.1420   14.8170 C.ar  155  PHE155     -0.0202
    146  CD1      112.1070   14.8400   15.2700 C.ar  155  PHE155     -0.0042
    147  CD2      109.9780   14.1090   14.5110 C.ar  155  PHE155     -0.0042
    148  CE1      112.5090   13.5270   15.4170 C.ar  155  PHE155     -0.0003
    149  CE2      110.3760   12.8000   14.6600 C.ar  155  PHE155     -0.0003
    150  CZ       111.6440   12.5150   15.1000 C.ar  155  PHE155     -0.0000
    151  N        109.2860   16.3350   11.7400 N.am  156  TYR156     -0.1976
    152  CA       108.8730   15.5120   10.6140 C.3   156  TYR156      0.1639
    153  C        109.5320   15.9850    9.3370 C.2   156  TYR156      0.2290
    154  O        109.8710   15.1720    8.4730 O.2   156  TYR156     -0.2864
    155  CB       107.3550   15.5630   10.4870 C.3   156  TYR156      0.0560
    156  CG       106.6360   15.0630   11.7160 C.ar  156  TYR156     -0.0198
    157  CD1      106.9530   13.8450   12.2890 C.ar  156  TYR156     -0.0009
    158  CD2      105.6520   15.8180   12.3070 C.ar  156  TYR156     -0.0009
    159  CE1      106.3030   13.4040   13.4290 C.ar  156  TYR156      0.0417
    160  CE2      104.9970   15.3880   13.4200 C.ar  156  TYR156      0.0417
    161  CZ       105.3200   14.1860   13.9840 C.ar  156  TYR156      0.1957
    162  OH       104.6420   13.7950   15.1200 O.3   156  TYR156     -0.2866
    163  N        112.9820   14.3970    9.2020 N.3   159  THR159     -0.1218
    164  CA       112.9010   12.9970    8.7920 C.3   159  THR159      0.1862
    165  C        112.7040   12.8870    7.2830 C.2   159  THR159      0.2287
    166  O        113.4040   12.1310    6.6040 O.2   159  THR159     -0.2866
    167  CB       111.7630   12.3220    9.5590 C.3   159  THR159      0.1770
    168  OG1      112.0890   12.3090   10.9530 O.3   159  THR159     -0.2211
    169  CG2      111.5380   10.8870    9.0880 C.3   159  THR159      0.0375
    170  N        113.6520   -1.5730   20.2300 N.3   229  ASN229     -0.1240
    171  CA       112.9520   -0.7060   19.2700 C.3   229  ASN229      0.1653
    172  C        112.0770   -1.4560   18.2570 C.2   229  ASN229      0.2266
    173  O        111.9610   -1.0290   17.1880 O.2   229  ASN229     -0.2867
    174  CB       113.9940    0.2750   18.6360 C.3   229  ASN229      0.1155
    175  CG       113.4430    1.5090   18.0790 C.2   229  ASN229      0.2627
    176  OD1      112.3730    1.8810   18.3490 O.2   229  ASN229     -0.2716
    177  ND2      114.2030    2.1370   17.2450 N.am  229  ASN229     -0.0877
    178  N        107.3870    0.4070   20.1130 N.3   234  MET234     -0.1245
    179  CA       107.0950    1.7950   19.7740 C.3   234  MET234      0.1570
    180  C        105.6090    2.0910   19.8920 C.2   234  MET234      0.2261
    181  O        105.2230    3.1850   20.3130 O.2   234  MET234     -0.2867
    182  CB       107.5850    2.0970   18.3660 C.3   234  MET234      0.0387
    183  CG       109.0810    2.2580   18.2180 C.3   234  MET234      0.0595
    184  SD       109.7110    3.6950   19.1070 S.3   234  MET234     -0.1393
    185  CE       110.2910    2.8870   20.5670 C.3   234  MET234      0.0692
    186  N        104.9480    2.6680   23.4760 N.3   237  LEU237     -0.1231
    187  CA       105.4560    3.9600   23.9220 C.3   237  LEU237      0.1693
    188  C        104.5270    5.0830   23.4850 C.2   237  LEU237      0.2592
    189  O        104.2110    5.9810   24.2730 O.2   237  LEU237     -0.2718
    190  CB       106.8670    4.1870   23.3570 C.3   237  LEU237      0.0284
    191  CG       107.5630    5.5220   23.6620 C.3   237  LEU237      0.0019
    192  CD1      107.6000    5.7800   25.1830 C.3   237  LEU237      0.0001
    193  CD2      108.9750    5.5400   23.0930 C.3   237  LEU237      0.0001
    194  N        104.0920    5.0620   22.2200 N.am  238  THR238     -0.1953
    195  CA       103.1340    6.0610   21.7550 C.3   238  THR238      0.1897
    196  C        101.8580    6.0320   22.5990 C.2   238  THR238      0.2313
    197  O        101.3540    7.0780   23.0130 O.2   238  THR238     -0.2863
    198  CB       102.8470    5.8400   20.2670 C.3   238  THR238      0.1794
    199  OG1      103.9950    6.2350   19.5160 O.3   238  THR238     -0.2208
    200  CG2      101.6440    6.6590   19.7820 C.3   238  THR238      0.0378
    201  N        102.6140    7.4610   26.0750 N.3   241  LEU241     -0.1245
    202  CA       102.7650    8.9110   26.0090 C.3   241  LEU241      0.1561
    203  C        101.4010    9.5810   25.9550 C.2   241  LEU241      0.2260
    204  O        101.1450   10.5660   26.6620 O.2   241  LEU241     -0.2867
    205  CB       103.5830    9.2880   24.7730 C.3   241  LEU241      0.0270
    206  CG       105.0780    8.9870   24.8600 C.3   241  LEU241      0.0019
    207  CD1      105.7200    9.1950   23.5120 C.3   241  LEU241      0.0001
    208  CD2      105.7300    9.8780   25.8930 C.3   241  LEU241      0.0001
    209  N        106.8260   12.1310   29.0450 N.3   247  LEU247     -0.1245
    210  CA       107.8360   11.0860   29.0040 C.3   247  LEU247      0.1561
    211  C        108.3160   10.7340   30.4060 C.2   247  LEU247      0.2260
    212  O        108.4580    9.5550   30.7440 O.2   247  LEU247     -0.2867
    213  CB       109.0040   11.5730   28.1600 C.3   247  LEU247      0.0270
    214  CG       110.2200   10.6580   28.1690 C.3   247  LEU247      0.0019
    215  CD1      109.8860    9.3360   27.4910 C.3   247  LEU247      0.0001
    216  CD2      111.3510   11.3830   27.5010 C.3   247  LEU247      0.0001
    217  N        115.5120    3.6110   26.0810 N.3   258  ILE258     -0.1245
    218  CA       115.6440    5.0340   26.3380 C.3   258  ILE258      0.1561
    219  C        116.7790    5.2890   27.3170 C.2   258  ILE258      0.2260
    220  O        116.6120    5.1270   28.5310 O.2   258  ILE258     -0.2867
    221  CB       114.3040    5.6160   26.8440 C.3   258  ILE258      0.0252
    222  CG1      113.2010    5.3580   25.8050 C.3   258  ILE258      0.0019
    223  CG2      114.4570    7.1070   27.1590 C.3   258  ILE258      0.0019
    224  CD1      111.8250    5.8640   26.2020 C.3   258  ILE258      0.0001
@<TRIPOS>BOND
     1   166   165    2
     2    89    87    1
     3   165   164    1
     4     7     6    1
     5     7     1    1
     6    88    87    1
     7    87    86    1
     8   154   153    2
     9     6     5    1
    10     4     3    2
    11     1     2    1
    12   164   163    1
    13   164   167    1
    14   169   167    1
    15   153   152    1
    16   167   168    1
    17    86    83    1
    18     3     2    1
    19     3     8   am
    20   102   101    1
    21     5     2    1
    22    11    10    2
    23    83    82    1
    24    83    84    1
    25    99   100    2
    26    99    98    1
    27   101    98    1
    28   101   103    1
    29    12    13    1
    30    12     9    1
    31    82    76   am
    32    10     9    1
    33   155   152    1
    34   155   156    1
    35    77    76    2
    36   152   151    1
    37    13    14    1
    38    76    75    1
    39     8     9    1
    40    98    97    1
    41    84    85    2
    42    97    92   am
    43   143   142    2
    44    75    74    1
    45    75    78    1
    46   156   157   ar
    47   156   158   ar
    48   151   142   am
    49    25    23    1
    50    80    79   ar
    51   142   141    1
    52    14    15    1
    53   157   159   ar
    54   158   160   ar
    55    90    91    1
    56    43    42    1
    57    92    91    1
    58    92    93    2
    59    15    16    2
    60    79    78    1
    61    79    81   ar
    62   140   141    1
    63    91    94    1
    64   141   144    1
    65   160   161   ar
    66   159   161   ar
    67    23    24    1
    68    23    20    1
    69    94    96    1
    70    94    95    1
    71   111   109    1
    72    19    20    1
    73   161   162    1
    74    42    41    1
    75    20    21    1
    76    16    18    1
    77    16    17    1
    78   147   149   ar
    79   147   145   ar
    80   144   145    1
    81   149   150   ar
    82   110   108    1
    83   145   146   ar
    84    41    40    1
    85    40    37    1
    86   108   109    1
    87   108   105    1
    88   150   148   ar
    89   146   148   ar
    90    21    22    2
    91    36    37    1
    92    36    28   am
    93    37    38    1
    94    35    33   ar
    95    35    34   ar
    96   123   121   ar
    97    33    31   ar
    98   105   104    1
    99   105   106    1
   100    27    28    1
   101    27    26    1
   102    27    30    1
   103    28    29    2
   104   106   107    2
   105    34    32   ar
   106    31    32   ar
   107    31    30    1
   108   173   172    2
   109   177   175   am
   110    38    39    2
   111    38    44   am
   112   121   120    1
   113   121   122   ar
   114   134   135    2
   115   134   133    1
   116   175   176    2
   117   175   174    1
   118   120   117    1
   119    44    45    1
   120   183   182    1
   121   183   184    1
   122   136   133    1
   123   136   137    1
   124   172   171    1
   125   182   179    1
   126    62    60    1
   127    52    50   ar
   128    52    54   ar
   129   133   132    1
   130   138   137    1
   131   174   171    1
   132    50    49   ar
   133    60    59    1
   134   139   137    1
   135   184   185    1
   136   171   170    1
   137    54    53   ar
   138   199   198    1
   139    45    48    1
   140    45    46    1
   141   117   116    1
   142   117   118    1
   143    55    56    1
   144   179   180    1
   145   179   178    1
   146   200   198    1
   147   116   114   am
   148   180   181    2
   149    49    48    1
   150    49    51   ar
   151   118   119    2
   152    59    56    1
   153    59    61    1
   154   198   195    1
   155    46    47    2
   156   112   113    1
   157    56    57    1
   158    53    51   ar
   159   114   113    1
   160   114   115    2
   161   195   194    1
   162   195   196    1
   163    57    63   am
   164    57    58    2
   165   130   129    1
   166   194   188   am
   167    63    64    1
   168   196   197    2
   169   128   129    1
   170   128   125    1
   171   129   131    1
   172   127   126    2
   173   193   191    1
   174   126   125    1
   175   190   191    1
   176   190   187    1
   177   186   187    1
   178   188   187    1
   179   188   189    2
   180    70    72   ar
   181    70    68   ar
   182   207   206    1
   183    72    73   ar
   184   124   125    1
   185   191   192    1
   186    64    65    1
   187    64    67    1
   188    65    66    2
   189    67    68    1
   190    68    69   ar
   191    73    71   ar
   192   205   206    1
   193   205   202    1
   194   206   208    1
   195    69    71   ar
   196   222   224    1
   197   222   221    1
   198   203   202    1
   199   203   204    2
   200   202   201    1
   201   217   218    1
   202   218   221    1
   203   218   219    1
   204   221   223    1
   205   219   220    2
   206   215   214    1
   207   216   214    1
   208   213   214    1
   209   213   210    1
   210   210   209    1
   211   210   211    1
   212   211   212    2
