@<TRIPOS>MOLECULE
tmp/6mflA01.pdb
 104 100 0 0 0
SMALL
GASTEIGER

@<TRIPOS>ATOM
      1  N          1.5410    0.0200   -5.5700 N.3    67  VAL67      -0.1245
      2  CA         1.0770   -1.2050   -4.9350 C.3    67  VAL67       0.1561
      3  C          1.1860   -1.1350   -3.4220 C.2    67  VAL67       0.2260
      4  O          0.4230   -1.8100   -2.7090 O.2    67  VAL67      -0.2867
      5  CB         1.8430   -2.4150   -5.4980 C.3    67  VAL67       0.0252
      6  CG1        1.5390   -2.5550   -7.0170 C.3    67  VAL67       0.0019
      7  CG2        3.3520   -2.2980   -5.2130 C.3    67  VAL67       0.0019
      8  N         -8.9390   -0.8490   -3.4670 N.3    86  PRO86      -0.2102
      9  CA        -8.7260   -2.2600   -3.1020 C.3    86  PRO86       0.1504
     10  C         -7.2810   -2.6930   -3.1510 C.2    86  PRO86       0.2575
     11  O         -6.9400   -3.7020   -2.5350 O.2    86  PRO86      -0.2718
     12  CB        -9.5790   -3.0230   -4.1320 C.3    86  PRO86       0.0282
     13  CG       -10.7180   -2.0810   -4.3870 C.3    86  PRO86       0.0208
     14  CD       -10.1080   -0.6860   -4.3660 C.3    86  PRO86       0.0893
     15  N         -6.4110   -1.9790   -3.8500 N.am   87  LEU87      -0.1980
     16  CA        -5.0130   -2.3730   -3.8470 C.3    87  LEU87       0.1596
     17  C         -4.3470   -2.2110   -2.4790 C.2    87  LEU87       0.2287
     18  O         -3.2930   -2.8010   -2.2410 O.2    87  LEU87      -0.2864
     19  CB        -4.2230   -1.5570   -4.8520 C.3    87  LEU87       0.0297
     20  CG        -4.5640   -1.6580   -6.3240 C.3    87  LEU87       0.0022
     21  CD1       -3.7790   -0.6160   -7.0750 C.3    87  LEU87       0.0001
     22  CD2       -4.2550   -3.0560   -6.8270 C.3    87  LEU87       0.0001
     23  N        -11.4740   -4.3440   -9.0620 N.3   108  PHE108     -0.1227
     24  CA       -10.3940   -4.4350  -10.0210 C.3   108  PHE108      0.1736
     25  C        -10.1840   -5.8520  -10.5320 C.2   108  PHE108      0.2595
     26  O         -9.5280   -6.0290  -11.5630 O.2   108  PHE108     -0.2718
     27  CB        -9.0860   -3.9710   -9.3880 C.3   108  PHE108      0.0547
     28  CG        -9.0140   -2.4970   -9.1230 C.ar  108  PHE108     -0.0202
     29  CD1       -9.5130   -1.5880  -10.0450 C.ar  108  PHE108     -0.0042
     30  CD2       -8.4330   -2.0210   -7.9490 C.ar  108  PHE108     -0.0042
     31  CE1       -9.4420   -0.2190   -9.8050 C.ar  108  PHE108     -0.0003
     32  CE2       -8.3440   -0.6450   -7.7010 C.ar  108  PHE108     -0.0003
     33  CZ        -8.8540    0.2520   -8.6260 C.ar  108  PHE108     -0.0000
     34  N        -10.6770   -6.8600   -9.8070 N.am  109  ASN109     -0.1974
     35  CA       -10.3790   -8.2520  -10.1290 C.3   109  ASN109      0.1688
     36  C        -11.3780   -8.8310  -11.1190 C.2   109  ASN109      0.2292
     37  O        -11.0170   -9.6620  -11.9630 O.2   109  ASN109     -0.2864
     38  CB       -10.3760   -9.0960   -8.8460 C.3   109  ASN109      0.1181
     39  CG        -9.3210   -8.6260   -7.7990 C.2   109  ASN109      0.2629
     40  OD1       -8.3450   -7.9590   -8.1210 O.2   109  ASN109     -0.2716
     41  ND2       -9.5470   -8.9860   -6.5510 N.am  109  ASN109     -0.0877
     42  N         -3.5940   -9.7110  -22.7750 N.3   165  LEU165     -0.1245
     43  CA        -2.5500   -8.9650  -22.0890 C.3   165  LEU165      0.1561
     44  C         -1.1980   -9.4950  -22.5260 C.2   165  LEU165      0.2260
     45  O         -0.9620  -10.7100  -22.4990 O.2   165  LEU165     -0.2867
     46  CB        -2.6930   -9.1130  -20.5720 C.3   165  LEU165      0.0270
     47  CG        -1.8320   -8.2930  -19.6220 C.3   165  LEU165      0.0019
     48  CD1       -2.2170   -6.8630  -19.7150 C.3   165  LEU165      0.0001
     49  CD2       -2.0330   -8.7740  -18.1880 C.3   165  LEU165      0.0001
     50  N         -8.1580  -12.3490  -21.1910 N.3   174  PHE174     -0.1241
     51  CA        -8.9790  -11.8450  -20.0880 C.3   174  PHE174      0.1605
     52  C        -10.4330  -11.7970  -20.5260 C.2   174  PHE174      0.2264
     53  O        -10.7920  -11.0240  -21.4180 O.2   174  PHE174     -0.2867
     54  CB        -8.4720  -10.4870  -19.6430 C.3   174  PHE174      0.0534
     55  CG        -7.2180  -10.5890  -18.8590 C.ar  174  PHE174     -0.0203
     56  CD1       -6.0290  -10.9650  -19.4790 C.ar  174  PHE174     -0.0042
     57  CD2       -7.2150  -10.3460  -17.4970 C.ar  174  PHE174     -0.0042
     58  CE1       -4.8730  -11.0770  -18.7510 C.ar  174  PHE174     -0.0003
     59  CE2       -6.0590  -10.4550  -16.7720 C.ar  174  PHE174     -0.0003
     60  CZ        -4.8920  -10.8380  -17.3850 C.ar  174  PHE174     -0.0000
     61  N        -10.5970   -8.7230  -15.0530 N.3   179  ARG179     -0.1245
     62  CA       -10.4870   -7.2890  -14.8300 C.3   179  ARG179      0.1563
     63  C        -11.0210   -6.5020  -16.0100 C.2   179  ARG179      0.2260
     64  O        -11.4440   -5.3500  -15.8280 O.2   179  ARG179     -0.2867
     65  CB        -9.0130   -6.9230  -14.5340 C.3   179  ARG179      0.0307
     66  CG        -8.1260   -6.9250  -15.7290 C.3   179  ARG179      0.0489
     67  CD        -6.6300   -6.8810  -15.2910 C.3   179  ARG179      0.2205
     68  NE        -6.2990   -5.6340  -14.6010 N.pl3 179  ARG179     -0.0865
     69  CZ        -6.2820   -5.4730  -13.2760 C.cat 179  ARG179      0.5346
     70  NH1       -6.5880   -6.4810  -12.4530 N.pl3 179  ARG179      0.1354
     71  NH2       -5.9720   -4.2870  -12.7710 N.pl3 179  ARG179      0.1354
     72  N         -4.7210  -13.7950  -13.3870 N.3   198  HIS198     -0.1241
     73  CA        -3.5850  -14.0270  -14.2790 C.3   198  HIS198      0.1621
     74  C         -4.0080  -14.1130  -15.7350 C.2   198  HIS198      0.2264
     75  O         -3.2530  -13.7340  -16.6370 O.2   198  HIS198     -0.2867
     76  CB        -2.8600  -15.3210  -13.8860 C.3   198  HIS198      0.0745
     77  CG        -1.5580  -15.5600  -14.6280 C.ar  198  HIS198      0.0817
     78  ND1       -0.3320  -15.3360  -14.1710 N.ar  198  HIS198     -0.2268
     79  CD2       -1.4350  -16.1670  -15.8490 C.ar  198  HIS198      0.1154
     80  CE1        0.5320  -15.7950  -15.0430 C.ar  198  HIS198      0.1986
     81  NE2       -0.1450  -16.2890  -16.0380 N.ar  198  HIS198     -0.2212
     82  N          1.1860   -4.8650  -21.0500 N.3   220  ARG220     -0.1245
     83  CA         1.5860   -4.6690  -19.6610 C.3   220  ARG220      0.1563
     84  C          3.0610   -4.3040  -19.5380 C.2   220  ARG220      0.2260
     85  O          3.4420   -3.5140  -18.6570 O.2   220  ARG220     -0.2867
     86  CB         1.3010   -5.9340  -18.8570 C.3   220  ARG220      0.0307
     87  CG         1.8510   -5.8340  -17.4270 C.3   220  ARG220      0.0489
     88  CD         1.4160   -6.9550  -16.4980 C.3   220  ARG220      0.2205
     89  NE         1.8170   -6.6420  -15.1160 N.pl3 220  ARG220     -0.0865
     90  CZ         2.9780   -6.9990  -14.5560 C.cat 220  ARG220      0.5346
     91  NH1        3.8590   -7.6930  -15.2450 N.pl3 220  ARG220      0.1354
     92  NH2        3.2610   -6.6470  -13.3030 N.pl3 220  ARG220      0.1354
     93  N         -4.4250   -0.4470  -18.3210 N.3   260  TYR260     -0.1241
     94  CA        -3.7730   -1.2510  -17.2950 C.3   260  TYR260      0.1605
     95  C         -3.4960   -0.4730  -16.0160 C.2   260  TYR260      0.2264
     96  O         -3.9050   -0.9020  -14.9300 O.2   260  TYR260     -0.2867
     97  CB        -2.4600   -1.8390  -17.8310 C.3   260  TYR260      0.0534
     98  CG        -1.7810   -2.7040  -16.7910 C.ar  260  TYR260     -0.0201
     99  CD1       -2.4040   -3.8460  -16.3130 C.ar  260  TYR260     -0.0009
    100  CD2       -0.5450   -2.3510  -16.2590 C.ar  260  TYR260     -0.0009
    101  CE1       -1.8160   -4.6270  -15.3490 C.ar  260  TYR260      0.0417
    102  CE2        0.0550   -3.1380  -15.2680 C.ar  260  TYR260      0.0417
    103  CZ        -0.5760   -4.2700  -14.8360 C.ar  260  TYR260      0.1957
    104  OH        -0.0020   -5.0760  -13.8680 O.3   260  TYR260     -0.2866
@<TRIPOS>BOND
     1    42    43    1
     2    44    45    2
     3    44    43    1
     4    43    46    1
     5    53    52    2
     6    50    51    1
     7    82    83    1
     8    46    47    1
     9    52    51    1
    10    51    54    1
    11    48    47    1
    12    83    84    1
    13    83    86    1
    14    54    55    1
    15    47    49    1
    16    84    85    2
    17    56    55   ar
    18    56    58   ar
    19    55    57   ar
    20    86    87    1
    21    58    60   ar
    22    93    94    1
    23    97    94    1
    24    97    98    1
    25    57    59   ar
    26    87    88    1
    27    60    59   ar
    28    94    95    1
    29    98    99   ar
    30    98   100   ar
    31    75    74    2
    32    88    89    1
    33    99   101   ar
    34   100   102   ar
    35    81    79   ar
    36    81    80   ar
    37    95    96    2
    38    63    64    2
    39    63    62    1
    40    79    77   ar
    41    74    73    1
    42    66    67    1
    43    66    65    1
    44   101   103   ar
    45    67    68    1
    46   102   103   ar
    47    91    90    1
    48    89    90    2
    49    61    62    1
    50    80    78   ar
    51   103   104    1
    52    62    65    1
    53    77    78   ar
    54    77    76    1
    55    68    69    2
    56    90    92    1
    57    73    76    1
    58    73    72    1
    59    69    71    1
    60    69    70    1
    61    37    36    2
    62    26    25    2
    63    36    35    1
    64    25    24    1
    65    25    34   am
    66    35    34    1
    67    35    38    1
    68    29    31   ar
    69    29    28   ar
    70    24    27    1
    71    24    23    1
    72    31    33   ar
    73    27    28    1
    74    28    30   ar
    75    38    39    1
    76    33    32   ar
    77    40    39    2
    78    30    32   ar
    79    39    41   am
    80    21    20    1
    81     6     5    1
    82    22    20    1
    83    20    19    1
    84     1     2    1
    85     5     7    1
    86     5     2    1
    87     2     3    1
    88    19    16    1
    89    13    14    1
    90    13    12    1
    91    14     8    1
    92    12     9    1
    93    15    16    1
    94    15    10   am
    95    16    17    1
    96     8     9    1
    97     3     4    2
    98    10     9    1
    99    10    11    2
   100    17    18    2
