@<TRIPOS>MOLECULE
tmp/6mftF07.pdb
 88 82 0 0 0
SMALL
GASTEIGER

@<TRIPOS>ATOM
      1  N        -17.0450  -16.8670   71.1940 N.3   149  GLU149     -0.1231
      2  CA       -15.7550  -16.3660   70.7370 C.3   149  GLU149      0.1699
      3  C        -14.6610  -17.4000   70.9680 C.2   149  GLU149      0.2592
      4  O        -14.2590  -18.1050   70.0370 O.2   149  GLU149     -0.2718
      5  CB       -15.4100  -15.0530   71.4440 C.3   149  GLU149      0.0402
      6  CG       -14.1040  -14.4230   70.9810 C.3   149  GLU149      0.1161
      7  CD       -13.7140  -13.2140   71.8080 C.2   149  GLU149      0.3649
      8  OE1      -14.6200  -12.4670   72.2320 O.co2 149  GLU149     -0.2457
      9  OE2      -12.5020  -13.0170   72.0390 O.co2 149  GLU149     -0.2457
     10  N        -14.1770  -17.4980   72.2010 N.am  150  GLU150     -0.1966
     11  CA       -13.1040  -18.4120   72.5570 C.3   150  GLU150      0.1733
     12  C        -13.6590  -19.6100   73.3180 C.2   150  GLU150      0.2616
     13  O        -14.7650  -19.5740   73.8640 O.2   150  GLU150     -0.2715
     14  CB       -12.0490  -17.6970   73.4060 C.3   150  GLU150      0.0429
     15  CG       -11.4400  -16.4710   72.7390 C.3   150  GLU150      0.1163
     16  CD       -10.3050  -15.8630   73.5420 C.2   150  GLU150      0.3649
     17  OE1      -10.4300  -15.7850   74.7820 O.co2 150  GLU150     -0.2457
     18  OE2       -9.2890  -15.4650   72.9350 O.co2 150  GLU150     -0.2457
     19  N        -12.8700  -20.6880   73.3400 N.am  151  ILE151     -0.1977
     20  CA       -13.2040  -21.8330   74.1760 C.3   151  ILE151      0.1596
     21  C        -13.2890  -21.3710   75.6210 C.2   151  ILE151      0.2287
     22  O        -12.4700  -20.5670   76.0850 O.2   151  ILE151     -0.2864
     23  CB       -12.1590  -22.9510   74.0180 C.3   151  ILE151      0.0276
     24  CG1      -12.0160  -23.3710   72.5500 C.3   151  ILE151      0.0022
     25  CG2      -12.5190  -24.1540   74.8920 C.3   151  ILE151      0.0022
     26  CD1      -13.2820  -23.9130   71.9300 C.3   151  ILE151      0.0001
     27  N        -16.3230  -23.5450   70.9680 N.3   170  ASN170     -0.1225
     28  CA       -16.6780  -22.4150   70.1210 C.3   170  ASN170      0.1785
     29  C        -16.8650  -22.8480   68.6700 C.2   170  ASN170      0.2597
     30  O        -16.7640  -22.0280   67.7520 O.2   170  ASN170     -0.2718
     31  CB       -15.6340  -21.3010   70.2640 C.3   170  ASN170      0.1169
     32  CG       -14.4450  -21.4480   69.3230 C.2   170  ASN170      0.2627
     33  OD1      -14.1330  -22.5320   68.8310 O.2   170  ASN170     -0.2716
     34  ND2      -13.7670  -20.3240   69.0860 N.am  170  ASN170     -0.0877
     35  N        -17.1460  -24.1340   68.4560 N.am  171  LYS171     -0.1980
     36  CA       -17.4920  -24.6720   67.1470 C.3   171  LYS171      0.1596
     37  C        -18.0160  -26.0910   67.3170 C.2   171  LYS171      0.2287
     38  O        -17.2340  -27.0470   67.3450 O.2   171  LYS171     -0.2864
     39  CB       -16.2880  -24.6550   66.2030 C.3   171  LYS171      0.0298
     40  CG       -16.5890  -25.2060   64.8120 C.3   171  LYS171      0.0038
     41  CD       -15.4240  -25.0010   63.8510 C.3   171  LYS171      0.0206
     42  CE       -14.2390  -25.8950   64.1890 C.3   171  LYS171      0.1093
     43  NZ       -14.5600  -27.3420   64.0250 N.3   171  LYS171     -0.1314
     44  N         -8.4250  -30.9900   65.3970 N.3   199  GLU199     -0.1245
     45  CA        -8.2670  -29.5660   65.6750 C.3   199  GLU199      0.1567
     46  C         -9.0520  -29.1600   66.9150 C.2   199  GLU199      0.2260
     47  O         -8.6040  -28.3080   67.6910 O.2   199  GLU199     -0.2867
     48  CB        -8.7150  -28.7420   64.4680 C.3   199  GLU199      0.0388
     49  CG        -8.5480  -27.2350   64.6450 C.3   199  GLU199      0.1160
     50  CD        -9.1880  -26.4380   63.5250 C.2   199  GLU199      0.3649
     51  OE1       -9.6760  -27.0530   62.5550 O.co2 199  GLU199     -0.2457
     52  OE2       -9.2050  -25.1920   63.6200 O.co2 199  GLU199     -0.2457
     53  N         -7.2240  -27.4210   70.0850 N.3   203  GLN203     -0.1245
     54  CA        -7.5580  -26.1070   70.6250 C.3   203  GLN203      0.1566
     55  C         -7.9900  -26.1920   72.0850 C.2   203  GLN203      0.2260
     56  O         -7.6950  -25.2830   72.8700 O.2   203  GLN203     -0.2867
     57  CB        -8.6460  -25.4530   69.7750 C.3   203  GLN203      0.0367
     58  CG        -8.1580  -25.0240   68.3990 C.3   203  GLN203      0.0905
     59  CD        -9.2510  -24.4050   67.5510 C.2   203  GLN203      0.2608
     60  OE1      -10.4360  -24.5250   67.8600 O.2   203  GLN203     -0.2717
     61  NE2       -8.8560  -23.7360   66.4740 N.am  203  GLN203     -0.0878
     62  N         -4.8640  -26.3550   73.8770 N.3   206  LYS206     -0.1231
     63  CA        -4.3050  -25.0100   73.9580 C.3   206  LYS206      0.1693
     64  C         -4.9450  -24.2310   75.0990 C.2   206  LYS206      0.2591
     65  O         -4.2540  -23.5700   75.8830 O.2   206  LYS206     -0.2718
     66  CB        -4.5070  -24.2750   72.6320 C.3   206  LYS206      0.0285
     67  CG        -3.6800  -24.8180   71.4800 C.3   206  LYS206      0.0035
     68  CD        -4.0590  -24.1450   70.1710 C.3   206  LYS206      0.0206
     69  CE        -3.4220  -24.8400   68.9800 C.3   206  LYS206      0.1093
     70  NZ        -3.8180  -24.2090   67.6910 N.3   206  LYS206     -0.1314
     71  N         -6.2730  -24.3020   75.2070 N.am  207  LYS207     -0.1980
     72  CA        -6.9700  -23.5700   76.2590 C.3   207  LYS207      0.1596
     73  C         -6.5550  -24.0670   77.6390 C.2   207  LYS207      0.2287
     74  O         -6.3070  -23.2660   78.5470 O.2   207  LYS207     -0.2864
     75  CB        -8.4830  -23.6960   76.0800 C.3   207  LYS207      0.0298
     76  CG        -9.2570  -22.4060   76.3420 C.3   207  LYS207      0.0038
     77  CD        -8.8730  -21.7560   77.6690 C.3   207  LYS207      0.0206
     78  CE        -9.7690  -20.5710   77.9860 C.3   207  LYS207      0.1093
     79  NZ        -9.4200  -19.9390   79.2870 N.3   207  LYS207     -0.1314
     80  N         -3.1110  -22.8890   78.5560 N.3   210  GLU210     -0.1245
     81  CA        -3.0440  -21.5080   79.0220 C.3   210  GLU210      0.1567
     82  C         -2.9540  -21.4450   80.5400 C.2   210  GLU210      0.2260
     83  O         -2.3090  -20.5440   81.0880 O.2   210  GLU210     -0.2867
     84  CB        -4.2660  -20.7230   78.5380 C.3   210  GLU210      0.0388
     85  CG        -4.2570  -20.3780   77.0550 C.3   210  GLU210      0.1160
     86  CD        -5.5070  -19.6270   76.6210 C.2   210  GLU210      0.3649
     87  OE1       -6.0280  -19.9180   75.5240 O.co2 210  GLU210     -0.2457
     88  OE2       -5.9710  -18.7500   77.3800 O.co2 210  GLU210     -0.2457
@<TRIPOS>BOND
     1    51    50   ar
     2    50    52   ar
     3    50    49    1
     4    41    42    1
     5    41    40    1
     6    43    42    1
     7    48    49    1
     8    48    45    1
     9    40    39    1
    10    44    45    1
    11    45    46    1
    12    39    36    1
    13    61    59   am
    14    46    47    2
    15    36    37    1
    16    36    35    1
    17    37    38    2
    18    59    60    2
    19    59    58    1
    20    70    69    1
    21    30    29    2
    22    58    57    1
    23    35    29   am
    24    29    28    1
    25    33    32    2
    26    69    68    1
    27    34    32   am
    28    32    31    1
    29    57    54    1
    30     4     3    2
    31    53    54    1
    32    28    31    1
    33    28    27    1
    34    68    67    1
    35    54    55    1
    36     2     3    1
    37     2     1    1
    38     2     5    1
    39     3    10   am
    40     6     5    1
    41     6     7    1
    42    67    66    1
    43     7     9   ar
    44     7     8   ar
    45    26    24    1
    46    55    56    2
    47    10    11    1
    48    24    23    1
    49    11    12    1
    50    11    14    1
    51    66    63    1
    52    15    14    1
    53    15    16    1
    54    18    16   ar
    55    12    19   am
    56    12    13    2
    57    19    20    1
    58    16    17   ar
    59    62    63    1
    60    63    64    1
    61    23    20    1
    62    23    25    1
    63    20    21    1
    64    64    71   am
    65    64    65    2
    66    71    72    1
    67    87    86   ar
    68    21    22    2
    69    75    72    1
    70    75    76    1
    71    72    73    1
    72    76    77    1
    73    86    85    1
    74    86    88   ar
    75    85    84    1
    76    73    74    2
    77    77    78    1
    78    78    79    1
    79    84    81    1
    80    80    81    1
    81    81    82    1
    82    82    83    2
