@<TRIPOS>MOLECULE
tmp/6mftE09.pdb
 149 146 0 0 0
SMALL
GASTEIGER

@<TRIPOS>ATOM
      1  N         45.9040  -20.6690   98.6810 N.3    66  TRP66      -0.1241
      2  CA        45.6540  -19.2610   98.9680 C.3    66  TRP66       0.1605
      3  C         46.3810  -18.3360   97.9980 C.2    66  TRP66       0.2264
      4  O         45.8520  -17.2740   97.6540 O.2    66  TRP66      -0.2867
      5  CB        46.0490  -18.9380  100.4110 C.3    66  TRP66       0.0550
      6  CG        44.9620  -19.2740  101.3870 C.ar   66  TRP66       0.0003
      7  CD1       44.2130  -20.4120  101.4120 C.ar   66  TRP66       0.0946
      8  CD2       44.4820  -18.4540  102.4610 C.ar   66  TRP66       0.0152
      9  NE1       43.3030  -20.3580  102.4390 N.ar   66  TRP66      -0.2442
     10  CE2       43.4460  -19.1660  103.0970 C.ar   66  TRP66       0.0810
     11  CE3       44.8270  -17.1900  102.9470 C.ar   66  TRP66       0.0012
     12  CZ2       42.7550  -18.6590  104.1950 C.ar   66  TRP66       0.0191
     13  CZ3       44.1380  -16.6870  104.0390 C.ar   66  TRP66       0.0001
     14  CH2       43.1160  -17.4210  104.6510 C.ar   66  TRP66       0.0015
     15  N         41.3960  -22.1550  107.4740 N.3   136  VAL136     -0.1231
     16  CA        42.3260  -21.3100  108.2090 C.3   136  VAL136      0.1692
     17  C         41.5380  -20.5390  109.2570 C.2   136  VAL136      0.2593
     18  O         40.5540  -19.8630  108.9340 O.2   136  VAL136     -0.2718
     19  CB        43.0700  -20.3590  107.2560 C.3   136  VAL136      0.0266
     20  CG1       43.8990  -19.3490  108.0260 C.3   136  VAL136      0.0020
     21  CG2       43.9600  -21.1540  106.3200 C.3   136  VAL136      0.0020
     22  N         41.9620  -20.6420  110.5120 N.am  137  SER137     -0.1938
     23  CA        41.2740  -19.9510  111.5920 C.3   137  SER137      0.2055
     24  C         42.1780  -19.9310  112.8140 C.2   137  SER137      0.2643
     25  O         43.2100  -20.6050  112.8640 O.2   137  SER137     -0.2714
     26  CB        39.9350  -20.6180  111.9220 C.3   137  SER137      0.2130
     27  OG        40.1260  -21.7860  112.7000 O.3   137  SER137     -0.2179
     28  N         41.7710  -19.1410  113.8030 N.am  138  THR138     -0.1950
     29  CA        42.4570  -19.0640  115.0810 C.3   138  THR138      0.1897
     30  C         41.4430  -19.2660  116.1960 C.2   138  THR138      0.2313
     31  O         40.2370  -19.0820  116.0070 O.2   138  THR138     -0.2863
     32  CB        43.1680  -17.7150  115.2740 C.3   138  THR138      0.1794
     33  OG1       42.2070  -16.6560  115.2180 O.3   138  THR138     -0.2208
     34  CG2       44.2240  -17.5000  114.2020 C.3   138  THR138      0.0378
     35  N         48.9680  -10.0750  117.9910 N.3   226  ASP226     -0.1239
     36  CA        48.3000   -9.5570  116.8070 C.3   226  ASP226      0.1674
     37  C         46.8060   -9.8500  116.8750 C.2   226  ASP226      0.2266
     38  O         46.3640  -10.7900  117.5400 O.2   226  ASP226     -0.2867
     39  CB        48.8990  -10.1770  115.5440 C.3   226  ASP226      0.1410
     40  CG        50.3130   -9.6940  115.2670 C.2   226  ASP226      0.3668
     41  OD1       50.7620   -8.7340  115.9330 O.co2 226  ASP226     -0.2456
     42  OD2       50.9750  -10.2780  114.3800 O.co2 226  ASP226     -0.2456
     43  N         45.0670  -11.2390  114.8880 N.3   228  GLU228     -0.1231
     44  CA        44.7540  -12.5620  114.3600 C.3   228  GLU228      0.1699
     45  C         44.5500  -13.5740  115.4800 C.2   228  GLU228      0.2592
     46  O         43.6900  -14.4570  115.3780 O.2   228  GLU228     -0.2718
     47  CB        45.8670  -13.0250  113.4210 C.3   228  GLU228      0.0402
     48  CG        45.7670  -12.4640  112.0030 C.3   228  GLU228      0.1161
     49  CD        46.0640  -10.9750  111.9320 C.2   228  GLU228      0.3649
     50  OE1       46.8020  -10.4620  112.7990 O.co2 228  GLU228     -0.2457
     51  OE2       45.5540  -10.3170  111.0040 O.co2 228  GLU228     -0.2457
     52  N         45.3180  -13.4570  116.5610 N.am  229  ILE229     -0.1980
     53  CA        45.2770  -14.4320  117.6450 C.3   229  ILE229      0.1595
     54  C         44.5490  -13.9190  118.8780 C.2   229  ILE229      0.2287
     55  O         44.2660  -14.7180  119.7850 O.2   229  ILE229     -0.2864
     56  CB        46.6950  -14.9120  118.0240 C.3   229  ILE229      0.0276
     57  CG1       47.5000  -13.7950  118.6940 C.3   229  ILE229      0.0022
     58  CG2       47.4230  -15.4100  116.7740 C.3   229  ILE229      0.0022
     59  CD1       48.7930  -14.2730  119.3130 C.3   229  ILE229      0.0001
     60  N         39.7860  -15.3090  114.1650 N.3   233  SER233     -0.1202
     61  CA        39.9180  -14.8570  112.7880 C.3   233  SER233      0.2020
     62  C         39.6800  -16.0200  111.8370 C.2   233  SER233      0.2618
     63  O         40.0160  -17.1680  112.1370 O.2   233  SER233     -0.2717
     64  CB        41.2980  -14.2520  112.5300 C.3   233  SER233      0.2103
     65  OG        42.3170  -15.2220  112.6810 O.3   233  SER233     -0.2182
     66  N         39.0910  -15.7130  110.6850 N.am  234  PHE234     -0.1975
     67  CA        38.7810  -16.7490  109.7060 C.3   234  PHE234      0.1639
     68  C         38.2880  -16.0950  108.4250 C.2   234  PHE234      0.2290
     69  O         37.7520  -14.9870  108.4440 O.2   234  PHE234     -0.2864
     70  CB        37.7240  -17.7220  110.2350 C.3   234  PHE234      0.0560
     71  CG        36.4050  -17.0720  110.5340 C.ar  234  PHE234     -0.0200
     72  CD1       36.1940  -16.4250  111.7400 C.ar  234  PHE234     -0.0042
     73  CD2       35.3770  -17.1030  109.6090 C.ar  234  PHE234     -0.0042
     74  CE1       34.9810  -15.8240  112.0170 C.ar  234  PHE234     -0.0003
     75  CE2       34.1620  -16.5030  109.8810 C.ar  234  PHE234     -0.0003
     76  CZ        33.9640  -15.8640  111.0870 C.ar  234  PHE234     -0.0000
     77  N         37.8200  -11.5120  105.3140 N.3   240  PHE240     -0.1241
     78  CA        38.5200  -11.8730  106.5440 C.3   240  PHE240      0.1605
     79  C         37.7730  -11.3090  107.7490 C.2   240  PHE240      0.2264
     80  O         37.8150  -10.1000  108.0090 O.2   240  PHE240     -0.2867
     81  CB        39.9560  -11.3610  106.5070 C.3   240  PHE240      0.0534
     82  CG        40.8210  -12.0570  105.4970 C.ar  240  PHE240     -0.0203
     83  CD1       41.4870  -13.2260  105.8250 C.ar  240  PHE240     -0.0042
     84  CD2       40.9740  -11.5400  104.2220 C.ar  240  PHE240     -0.0042
     85  CE1       42.2860  -13.8660  104.9020 C.ar  240  PHE240     -0.0003
     86  CE2       41.7730  -12.1770  103.2940 C.ar  240  PHE240     -0.0003
     87  CZ        42.4290  -13.3410  103.6350 C.ar  240  PHE240     -0.0000
     88  N         37.2940  -10.9840  111.8100 N.3   242  TYR242     -0.1241
     89  CA        37.9690  -11.0030  113.1030 C.3   242  TYR242      0.1605
     90  C         36.8920  -10.8010  114.1590 C.2   242  TYR242      0.2264
     91  O         36.3130   -9.7130  114.2500 O.2   242  TYR242     -0.2867
     92  CB        39.0250   -9.9020  113.1920 C.3   242  TYR242      0.0534
     93  CG        40.2140  -10.1010  112.2840 C.ar  242  TYR242     -0.0201
     94  CD1       40.0770  -10.0400  110.9050 C.ar  242  TYR242     -0.0009
     95  CD2       41.4760  -10.3360  112.8080 C.ar  242  TYR242     -0.0009
     96  CE1       41.1640  -10.2190  110.0730 C.ar  242  TYR242      0.0417
     97  CE2       42.5670  -10.5150  111.9840 C.ar  242  TYR242      0.0417
     98  CZ        42.4060  -10.4550  110.6180 C.ar  242  TYR242      0.1957
     99  OH        43.4920  -10.6320  109.7940 O.3   242  TYR242     -0.2866
    100  N         45.8980   -7.7090  106.7490 N.3   268  ILE268     -0.1231
    101  CA        46.0010   -8.9220  107.5470 C.3   268  ILE268      0.1692
    102  C         47.4630   -9.3070  107.6980 C.2   268  ILE268      0.2592
    103  O         48.2690   -9.1430  106.7770 O.2   268  ILE268     -0.2718
    104  CB        45.2000  -10.0900  106.9280 C.3   268  ILE268      0.0266
    105  CG1       45.7880  -10.5040  105.5750 C.3   268  ILE268      0.0019
    106  CG2       43.7370   -9.6960  106.7570 C.3   268  ILE268      0.0020
    107  CD1       45.3000  -11.8520  105.0910 C.3   268  ILE268      0.0001
    108  N         47.8000   -9.8350  108.8710 N.am  269  ASN269     -0.1960
    109  CA        49.1180  -10.4120  109.0940 C.3   269  ASN269      0.1819
    110  C         49.1180  -11.8400  108.5690 C.2   269  ASN269      0.2621
    111  O         48.3330  -12.6780  109.0260 O.2   269  ASN269     -0.2715
    112  CB        49.4810  -10.3720  110.5750 C.3   269  ASN269      0.1195
    113  CG        49.6570   -8.9590  111.0880 C.2   269  ASN269      0.2630
    114  OD1       50.5600   -8.2400  110.6610 O.2   269  ASN269     -0.2716
    115  ND2       48.7940   -8.5520  112.0120 N.am  269  ASN269     -0.0877
    116  N         49.9910  -12.1140  107.6080 N.am  270  MET270     -0.1963
    117  CA        49.9710  -13.3980  106.9250 C.3   270  MET270      0.1736
    118  C         50.4250  -14.5210  107.8470 C.2   270  MET270      0.2616
    119  O         51.3400  -14.3530  108.6570 O.2   270  MET270     -0.2715
    120  CB        50.8720  -13.3560  105.6940 C.3   270  MET270      0.0427
    121  CG        50.3580  -12.4710  104.5730 C.3   270  MET270      0.0599
    122  SD        51.3680  -12.6100  103.0910 S.3   270  MET270     -0.1393
    123  CE        52.9090  -11.8870  103.6420 C.3   270  MET270      0.0692
    124  N         49.7720  -15.6750  107.7140 N.am  271  TRP271     -0.1974
    125  CA        50.2250  -16.8990  108.3560 C.3   271  TRP271      0.1640
    126  C         51.1650  -17.7090  107.4740 C.2   271  TRP271      0.2290
    127  O         51.9650  -18.4920  107.9990 O.2   271  TRP271     -0.2864
    128  CB        49.0230  -17.7670  108.7430 C.3   271  TRP271      0.0576
    129  CG        48.1500  -18.1270  107.5790 C.ar  271  TRP271      0.0006
    130  CD1       47.0500  -17.4480  107.1370 C.ar  271  TRP271      0.0946
    131  CD2       48.3080  -19.2490  106.7020 C.ar  271  TRP271      0.0152
    132  NE1       46.5140  -18.0780  106.0400 N.ar  271  TRP271     -0.2442
    133  CE2       47.2680  -19.1860  105.7530 C.ar  271  TRP271      0.0810
    134  CE3       49.2290  -20.2980  106.6260 C.ar  271  TRP271      0.0012
    135  CZ2       47.1210  -20.1340  104.7440 C.ar  271  TRP271      0.0191
    136  CZ3       49.0800  -21.2400  105.6220 C.ar  271  TRP271      0.0001
    137  CH2       48.0340  -21.1510  104.6950 C.ar  271  TRP271      0.0015
    138  N         47.5580  -19.2520  115.4330 N.3   317  GLY317     -0.1225
    139  CA        48.3990  -18.4210  114.5950 C.3   317  GLY317      0.1811
    140  C         49.2520  -19.2290  113.6390 C.2   317  GLY317      0.2280
    141  O         49.4120  -18.8550  112.4740 O.2   317  GLY317     -0.2866
    142  N         49.2160  -22.2420  111.5020 N.3   319  MET319     -0.1245
    143  CA        48.1940  -23.1240  110.9540 C.3   319  MET319      0.1570
    144  C         48.6520  -24.5710  110.8470 C.2   319  MET319      0.2261
    145  O         47.8280  -25.4400  110.5430 O.2   319  MET319     -0.2867
    146  CB        47.7530  -22.6060  109.5860 C.3   319  MET319      0.0387
    147  CG        47.1400  -21.2200  109.6510 C.3   319  MET319      0.0595
    148  SD        45.6840  -21.1560  110.7070 S.3   319  MET319     -0.1393
    149  CE        45.6610  -19.4200  111.1160 C.3   319  MET319      0.0692
@<TRIPOS>BOND
     1     4     3    2
     2     3     2    1
     3     1     2    1
     4     2     5    1
     5     5     6    1
     6     6     7   ar
     7     6     8   ar
     8     7     9   ar
     9     9    10   ar
    10     8    11   ar
    11     8    10   ar
    12    11    13   ar
    13   122   123    1
    14   122   121    1
    15    10    12   ar
    16    86    87   ar
    17    86    84   ar
    18    87    85   ar
    19    13    14   ar
    20    12    14   ar
    21    84    82   ar
    22   121   120    1
    23   137   135   ar
    24   137   136   ar
    25   135   133   ar
    26    85    83   ar
    27   107   105    1
    28    77    78    1
    29    82    83   ar
    30    82    81    1
    31   105   104    1
    32   136   134   ar
    33   120   117    1
    34   133   132   ar
    35   133   131   ar
    36   132   130   ar
    37    21    19    1
    38    81    78    1
    39    78    79    1
    40   134   131   ar
    41   131   129   ar
    42   100   101    1
    43   106   104    1
    44   103   102    2
    45   117   116    1
    46   117   118    1
    47   104   101    1
    48   130   129   ar
    49    19    20    1
    50    19    16    1
    51   126   127    2
    52   126   125    1
    53    15    16    1
    54   101   102    1
    55   129   128    1
    56   116   110   am
    57   102   108   am
    58   124   118   am
    59   124   125    1
    60    79    80    2
    61   118   119    2
    62    16    17    1
    63   125   128    1
    64    68    69    2
    65    68    67    1
    66   110   111    2
    67   110   109    1
    68   108   109    1
    69    18    17    2
    70   109   112    1
    71    17    22   am
    72   146   147    1
    73   146   143    1
    74    73    75   ar
    75    73    71   ar
    76   147   148    1
    77    67    70    1
    78    67    66    1
    79    99    98    1
    80    75    76   ar
    81    96    98   ar
    82    96    94   ar
    83    70    71    1
    84    22    23    1
    85    71    72   ar
    86   145   144    2
    87   112   113    1
    88    98    97   ar
    89   114   113    2
    90    66    62   am
    91   148   149    1
    92   144   143    1
    93    94    93   ar
    94   143   142    1
    95    51    49   ar
    96    76    74   ar
    97   113   115   am
    98    23    26    1
    99    23    24    1
   100    72    74   ar
   101    88    89    1
   102    62    63    2
   103    62    61    1
   104    26    27    1
   105    49    48    1
   106    49    50   ar
   107    97    95   ar
   108    48    47    1
   109    93    95   ar
   110    93    92    1
   111   141   140    2
   112    64    65    1
   113    64    61    1
   114    61    60    1
   115    24    25    2
   116    24    28   am
   117    89    92    1
   118    89    90    1
   119    47    44    1
   120   140   139    1
   121    28    29    1
   122    90    91    2
   123    34    32    1
   124    44    43    1
   125    44    45    1
   126    42    40   ar
   127   139   138    1
   128    29    32    1
   129    29    30    1
   130    33    32    1
   131    40    39    1
   132    40    41   ar
   133    46    45    2
   134    45    52   am
   135    39    36    1
   136    31    30    2
   137    52    53    1
   138    58    56    1
   139    36    37    1
   140    36    35    1
   141    37    38    2
   142    53    56    1
   143    53    54    1
   144    56    57    1
   145    57    59    1
   146    54    55    2
