@<TRIPOS>MOLECULE
tmp/6mfuA01.pdb
 112 105 0 0 0
SMALL
GASTEIGER

@<TRIPOS>ATOM
      1  N         63.4370   19.2710  -10.1700 N.3    19  SER19      -0.1202
      2  CA        63.5540   18.3980  -11.3280 C.3    19  SER19       0.2020
      3  C         64.4780   17.2220  -11.0190 C.2    19  SER19       0.2619
      4  O         65.5840   17.4050  -10.5010 O.2    19  SER19      -0.2717
      5  CB        64.0730   19.2010  -12.5200 C.3    19  SER19       0.2103
      6  OG        64.0900   18.3770  -13.6620 O.3    19  SER19      -0.2182
      7  N         64.0220   16.0110  -11.3480 N.am   20  GLY20      -0.1942
      8  CA        64.7610   14.7970  -11.0540 C.3    20  GLY20       0.2014
      9  C         64.3600   14.1130   -9.7610 C.2    20  GLY20       0.2640
     10  O         64.8840   13.0360   -9.4650 O.2    20  GLY20      -0.2714
     11  N         63.4580   14.7090   -8.9790 N.am   21  THR21      -0.1936
     12  CA        63.0850   14.0920   -7.7110 C.3    21  THR21       0.2028
     13  C         62.3550   12.7730   -7.9210 C.2    21  THR21       0.2643
     14  O         62.5560   11.8190   -7.1530 O.2    21  THR21      -0.2714
     15  CB        62.2110   15.0410   -6.8960 C.3    21  THR21       0.1808
     16  OG1       62.9520   16.2280   -6.5910 O.3    21  THR21      -0.2208
     17  CG2       61.8100   14.3760   -5.6040 C.3    21  THR21       0.0379
     18  N         61.4780   12.7080   -8.9290 N.am   22  GLY22      -0.1939
     19  CA        60.7150   11.5030   -9.2030 C.3    22  GLY22       0.2014
     20  C         59.2200   11.7030   -9.3750 C.2    22  GLY22       0.2639
     21  O         58.4500   10.7430   -9.2520 O.2    22  GLY22      -0.2714
     22  N         58.8020   12.9320   -9.7020 N.am   23  LYS23      -0.1963
     23  CA        57.3820   13.2390   -9.8770 C.3    23  LYS23       0.1728
     24  C         56.7460   12.3640  -10.9600 C.2    23  LYS23       0.2617
     25  O         55.7210   11.7180  -10.7330 O.2    23  LYS23      -0.2715
     26  CB        57.2000   14.7190  -10.2400 C.3    23  LYS23       0.0311
     27  CG        57.6670   15.7170   -9.1910 C.3    23  LYS23       0.0038
     28  CD        57.4090   17.1800   -9.6360 C.3    23  LYS23       0.0206
     29  CE        58.3110   17.6140  -10.8130 C.3    23  LYS23       0.1093
     30  NZ        59.7760   17.5610  -10.4210 N.3    23  LYS23      -0.1314
     31  N         57.3310   12.3480  -12.1610 N.am   24  SER24      -0.1936
     32  CA        56.7440   11.5620  -13.2380 C.3    24  SER24       0.2055
     33  C         56.7400   10.0760  -12.9040 C.2    24  SER24       0.2643
     34  O         55.7620    9.3700  -13.1910 O.2    24  SER24      -0.2714
     35  CB        57.5010   11.8170  -14.5380 C.3    24  SER24       0.2130
     36  OG        57.3580   13.1650  -14.9320 O.3    24  SER24      -0.2179
     37  N         57.8250    9.5820  -12.2990 N.am   25  THR25      -0.1950
     38  CA        57.9080    8.1790  -11.9250 C.3    25  THR25       0.1897
     39  C         56.7710    7.8020  -10.9850 C.2    25  THR25       0.2313
     40  O         56.0850    6.7960  -11.1940 O.2    25  THR25      -0.2863
     41  CB        59.2600    7.8950  -11.2740 C.3    25  THR25       0.1794
     42  OG1       60.3050    8.2120  -12.2120 O.3    25  THR25      -0.2208
     43  CG2       59.3610    6.4320  -10.8860 C.3    25  THR25       0.0378
     44  N         61.1640   14.6230  -25.0410 N.3    50  ARG50      -0.1245
     45  CA        62.1170   13.5810  -24.7060 C.3    50  ARG50       0.1563
     46  C         61.7590   12.3010  -25.4390 C.2    50  ARG50       0.2260
     47  O         60.6150   12.1190  -25.8690 O.2    50  ARG50      -0.2867
     48  CB        62.1060   13.3180  -23.2030 C.3    50  ARG50       0.0307
     49  CG        62.5660   14.4860  -22.4070 C.3    50  ARG50       0.0489
     50  CD        62.3320   14.2410  -20.9130 C.3    50  ARG50       0.2205
     51  NE        62.7170   15.4390  -20.1920 N.pl3  50  ARG50      -0.0865
     52  CZ        62.3110   15.7470  -18.9670 C.cat  50  ARG50       0.5346
     53  NH1       61.5020   14.9290  -18.3130 N.pl3  50  ARG50       0.1354
     54  NH2       62.7220   16.8720  -18.4130 N.pl3  50  ARG50       0.1354
     55  N         51.2170   18.7410  -12.4410 N.3   105  ASP105     -0.1239
     56  CA        52.6500   18.6610  -12.1630 C.3   105  ASP105      0.1674
     57  C         53.2030   19.9930  -12.6600 C.2   105  ASP105      0.2266
     58  O         53.3170   20.1990  -13.8750 O.2   105  ASP105     -0.2867
     59  CB        53.2290   17.4340  -12.8870 C.3   105  ASP105      0.1410
     60  CG        54.7350   17.3420  -12.8630 C.2   105  ASP105      0.3668
     61  OD1       55.4300   18.2800  -12.4400 O.co2 105  ASP105     -0.2456
     62  OD2       55.2370   16.2670  -13.3000 O.co2 105  ASP105     -0.2456
     63  N         69.8870   11.2340   -9.6600 N.3   143  ARG143     -0.1245
     64  CA        68.6540   10.9220  -10.3730 C.3   143  ARG143      0.1563
     65  C         68.5230   11.7700  -11.6270 C.2   143  ARG143      0.2260
     66  O         68.1890   11.2580  -12.6990 O.2   143  ARG143     -0.2867
     67  CB        67.4400   11.1410   -9.4760 C.3   143  ARG143      0.0307
     68  CG        67.3300   10.1380   -8.3590 C.3   143  ARG143      0.0489
     69  CD        66.1830   10.5050   -7.4430 C.3   143  ARG143      0.2205
     70  NE        66.2340    9.6600   -6.2530 N.pl3 143  ARG143     -0.0865
     71  CZ        65.3610    9.7080   -5.2500 C.cat 143  ARG143      0.5346
     72  NH1       64.3260   10.5460   -5.2860 N.pl3 143  ARG143      0.1354
     73  NH2       65.5210    8.8950   -4.2080 N.pl3 143  ARG143      0.1354
     74  N         71.0220   10.6520  -14.1040 N.3   146  GLY146     -0.1210
     75  CA        70.7450    9.2790  -14.4870 C.3   146  GLY146      0.1956
     76  C         69.5900    9.1270  -15.4540 C.2   146  GLY146      0.2611
     77  O         69.5530    8.1420  -16.2010 O.2   146  GLY146     -0.2717
     78  N         68.6530   10.0820  -15.4660 N.am  147  ARG147     -0.1979
     79  CA        67.5680   10.0430  -16.4410 C.3   147  ARG147      0.1597
     80  C         68.1010   10.1330  -17.8640 C.2   147  ARG147      0.2287
     81  O         67.5140    9.5510  -18.7840 O.2   147  ARG147     -0.2864
     82  CB        66.5700   11.1650  -16.1750 C.3   147  ARG147      0.0334
     83  CG        65.3630   11.1560  -17.1210 C.3   147  ARG147      0.0492
     84  CD        64.2650   12.0880  -16.6420 C.3   147  ARG147      0.2205
     85  NE        64.6670   13.4850  -16.6730 N.pl3 147  ARG147     -0.0865
     86  CZ        64.2170   14.3980  -15.8230 C.cat 147  ARG147      0.5346
     87  NH1       63.3650   14.0510  -14.8640 N.pl3 147  ARG147      0.1354
     88  NH2       64.6180   15.6560  -15.9170 N.pl3 147  ARG147      0.1354
     89  N         60.6780   11.3670   -1.5650 N.3   180  ASN180     -0.1225
     90  CA        60.7370   10.2260   -2.4660 C.3   180  ASN180      0.1785
     91  C         62.0440    9.4990   -2.1910 C.2   180  ASN180      0.2597
     92  O         63.0490    9.6900   -2.8750 O.2   180  ASN180     -0.2718
     93  CB        60.6270   10.6660   -3.9230 C.3   180  ASN180      0.1169
     94  CG        60.7090    9.4980   -4.8770 C.2   180  ASN180      0.2627
     95  OD1       60.4700    8.3440   -4.4900 O.2   180  ASN180     -0.2716
     96  ND2       61.0900    9.7750   -6.1280 N.am  180  ASN180     -0.0877
     97  N         62.0300    8.6660   -1.1440 N.am  181  ASP181     -0.1974
     98  CA        63.1980    7.8420   -0.8530 C.3   181  ASP181      0.1709
     99  C         62.9950    6.4470   -1.4320 C.2   181  ASP181      0.2293
    100  O         63.5470    6.1430   -2.4950 O.2   181  ASP181     -0.2864
    101  CB        63.4710    7.7860    0.6500 C.3   181  ASP181      0.1436
    102  CG        64.9120    7.4160    0.9690 C.2   181  ASP181      0.3671
    103  OD1       65.6610    6.9950    0.0540 O.co2 181  ASP181     -0.2456
    104  OD2       65.3070    7.5580    2.1460 O.co2 181  ASP181     -0.2456
    105  N         60.6120    4.0730   -3.4280 N.3   183  LEU183     -0.1245
    106  CA        59.5060    4.3270   -4.3540 C.3   183  LEU183      0.1561
    107  C         58.1850    3.7980   -3.8180 C.2   183  LEU183      0.2260
    108  O         57.1430    4.4410   -3.9760 O.2   183  LEU183     -0.2867
    109  CB        59.7940    3.6930   -5.7170 C.3   183  LEU183      0.0270
    110  CG        60.6360    4.4790   -6.7190 C.3   183  LEU183      0.0019
    111  CD1       60.9300    3.6030   -7.9240 C.3   183  LEU183      0.0001
    112  CD2       59.9330    5.7490   -7.1490 C.3   183  LEU183      0.0001
@<TRIPOS>BOND
     1    47    46    2
     2    46    45    1
     3    44    45    1
     4    45    48    1
     5    48    49    1
     6    49    50    1
     7    50    51    1
     8    51    52    2
     9    52    54    1
    10    52    53    1
    11    81    80    2
    12    80    79    1
    13    83    84    1
    14    83    82    1
    15    85    84    1
    16    85    86    2
    17    79    82    1
    18    79    78    1
    19    77    76    2
    20    88    86    1
    21    86    87    1
    22    78    76   am
    23    76    75    1
    24    36    35    1
    25    35    32    1
    26    75    74    1
    27    58    57    2
    28     6     5    1
    29    62    60   ar
    30    32    33    1
    31    32    31    1
    32    34    33    2
    33    33    37   am
    34    59    60    1
    35    59    56    1
    36    60    61   ar
    37    66    65    2
    38    57    56    1
    39     5     2    1
    40    55    56    1
    41    37    38    1
    42    42    41    1
    43    31    24   am
    44    38    41    1
    45    38    39    1
    46    65    64    1
    47     7     8    1
    48     7     3   am
    49     2     3    1
    50     2     1    1
    51    41    43    1
    52    40    39    2
    53     8     9    1
    54     3     4    2
    55    24    25    2
    56    24    23    1
    57    29    30    1
    58    29    28    1
    59    64    63    1
    60    64    67    1
    61    26    23    1
    62    26    27    1
    63    23    22    1
    64     9    10    2
    65     9    11   am
    66    22    20   am
    67    28    27    1
    68    67    68    1
    69    20    21    2
    70    20    19    1
    71    19    18    1
    72    11    12    1
    73    18    13   am
    74    68    69    1
    75   111   110    1
    76    13    12    1
    77    13    14    2
    78    12    15    1
    79    69    70    1
    80   112   110    1
    81    15    16    1
    82    15    17    1
    83   110   109    1
    84    70    71    2
    85    96    94   am
    86   109   106    1
    87    72    71    1
    88    71    73    1
    89    94    95    2
    90    94    93    1
    91   106   107    1
    92   106   105    1
    93   108   107    2
    94    93    90    1
    95    92    91    2
    96   100    99    2
    97    90    91    1
    98    90    89    1
    99    91    97   am
   100    99    98    1
   101    97    98    1
   102    98   101    1
   103   103   102   ar
   104   101   102    1
   105   102   104   ar
