@<TRIPOS>MOLECULE
tmp/6mfuA00.pdb
 167 154 0 0 0
SMALL
GASTEIGER

@<TRIPOS>ATOM
      1  N         58.1470   19.8850   -7.1840 N.3    17  GLY17      -0.1225
      2  CA        59.3720   19.4640   -6.5530 C.3    17  GLY17       0.1811
      3  C         60.5050   19.6320   -7.5310 C.2    17  GLY17       0.2280
      4  O         60.2870   19.7870   -8.7410 O.2    17  GLY17      -0.2866
      5  N         63.4370   19.2710  -10.1700 N.3    19  SER19      -0.1217
      6  CA        63.5540   18.3980  -11.3280 C.3    19  SER19       0.1889
      7  C         64.4780   17.2220  -11.0190 C.2    19  SER19       0.2288
      8  O         65.5840   17.4050  -10.5010 O.2    19  SER19      -0.2866
      9  CB        64.0730   19.2010  -12.5200 C.3    19  SER19       0.2089
     10  OG        64.0900   18.3770  -13.6620 O.3    19  SER19      -0.2183
     11  N         58.8020   12.9320   -9.7020 N.3    23  LYS23      -0.1245
     12  CA        57.3820   13.2390   -9.8770 C.3    23  LYS23       0.1561
     13  C         56.7460   12.3640  -10.9600 C.2    23  LYS23       0.2260
     14  O         55.7210   11.7180  -10.7330 O.2    23  LYS23      -0.2867
     15  CB        57.2000   14.7190  -10.2400 C.3    23  LYS23       0.0271
     16  CG        57.6670   15.7170   -9.1910 C.3    23  LYS23       0.0035
     17  CD        57.4090   17.1800   -9.6360 C.3    23  LYS23       0.0206
     18  CE        58.3110   17.6140  -10.8130 C.3    23  LYS23       0.1093
     19  NZ        59.7760   17.5610  -10.4210 N.3    23  LYS23      -0.1314
     20  N         49.8690   19.9740  -19.6680 N.3    43  SER43      -0.1217
     21  CA        50.4490   21.3000  -19.8400 C.3    43  SER43       0.1889
     22  C         50.9230   21.5230  -21.2680 C.2    43  SER43       0.2288
     23  O         51.2430   20.5890  -22.0080 O.2    43  SER43      -0.2866
     24  CB        51.6600   21.4780  -18.9260 C.3    43  SER43       0.2089
     25  OG        51.2780   21.3440  -17.5760 O.3    43  SER43      -0.2183
     26  N         59.5560   23.4050  -24.5580 N.3    47  ARG47      -0.1245
     27  CA        60.7250   22.5440  -24.6590 C.3    47  ARG47       0.1563
     28  C         60.4680   21.4140  -25.6590 C.2    47  ARG47       0.2260
     29  O         59.3320   21.1290  -26.0460 O.2    47  ARG47      -0.2867
     30  CB        61.1220   21.9860  -23.2950 C.3    47  ARG47       0.0307
     31  CG        60.3460   20.7660  -22.7980 C.3    47  ARG47       0.0489
     32  CD        61.2760   19.9560  -21.9130 C.3    47  ARG47       0.2205
     33  NE        60.6050   18.9920  -21.0270 N.pl3  47  ARG47      -0.0865
     34  CZ        60.1430   17.8010  -21.4030 C.cat  47  ARG47       0.5346
     35  NH1       60.2580   17.3920  -22.6680 N.pl3  47  ARG47       0.1354
     36  NH2       59.5980   16.9870  -20.4970 N.pl3  47  ARG47       0.1354
     37  N         61.1640   14.6230  -25.0410 N.3    50  ARG50      -0.1245
     38  CA        62.1170   13.5810  -24.7060 C.3    50  ARG50       0.1563
     39  C         61.7590   12.3010  -25.4390 C.2    50  ARG50       0.2260
     40  O         60.6150   12.1190  -25.8690 O.2    50  ARG50      -0.2867
     41  CB        62.1060   13.3180  -23.2030 C.3    50  ARG50       0.0307
     42  CG        62.5660   14.4860  -22.4070 C.3    50  ARG50       0.0489
     43  CD        62.3320   14.2410  -20.9130 C.3    50  ARG50       0.2205
     44  NE        62.7170   15.4390  -20.1920 N.pl3  50  ARG50      -0.0865
     45  CZ        62.3110   15.7470  -18.9670 C.cat  50  ARG50       0.5346
     46  NH1       61.5020   14.9290  -18.3130 N.pl3  50  ARG50       0.1354
     47  NH2       62.7220   16.8720  -18.4130 N.pl3  50  ARG50       0.1354
     48  N         52.6790   16.3890  -22.5720 N.3    59  TYR59      -0.1241
     49  CA        52.6170   17.8230  -22.8320 C.3    59  TYR59       0.1605
     50  C         51.9420   18.0250  -24.1690 C.2    59  TYR59       0.2264
     51  O         51.9260   17.1220  -25.0020 O.2    59  TYR59      -0.2867
     52  CB        54.0060   18.4700  -22.9290 C.3    59  TYR59       0.0534
     53  CG        54.7070   18.5890  -21.6080 C.ar   59  TYR59      -0.0201
     54  CD1       54.3580   19.5990  -20.7270 C.ar   59  TYR59      -0.0009
     55  CD2       55.7270   17.7100  -21.2570 C.ar   59  TYR59      -0.0009
     56  CE1       54.9820   19.7120  -19.4830 C.ar   59  TYR59       0.0417
     57  CE2       56.3630   17.8210  -20.0170 C.ar   59  TYR59       0.0417
     58  CZ        55.9920   18.8290  -19.1630 C.ar   59  TYR59       0.1957
     59  OH        56.6000   18.9620  -17.9430 O.3    59  TYR59      -0.2866
     60  N         47.7390   29.3660  -15.5010 N.3    78  GLU78      -0.1245
     61  CA        49.0300   29.8240  -15.0310 C.3    78  GLU78       0.1567
     62  C         50.0560   29.4320  -16.0800 C.2    78  GLU78       0.2260
     63  O         49.8380   28.4970  -16.8560 O.2    78  GLU78      -0.2867
     64  CB        49.3660   29.2090  -13.6610 C.3    78  GLU78       0.0388
     65  CG        49.4400   27.6660  -13.6870 C.3    78  GLU78       0.1160
     66  CD        50.7650   27.1550  -14.2320 C.2    78  GLU78       0.3649
     67  OE1       51.7980   27.8670  -14.1110 O.co2  78  GLU78      -0.2457
     68  OE2       50.7470   26.0490  -14.8200 O.co2  78  GLU78      -0.2457
     69  N         54.7150   29.7640  -16.6470 N.3    80  ALA80      -0.1245
     70  CA        55.9710   30.3300  -16.1820 C.3    80  ALA80       0.1562
     71  C         57.1040   29.8480  -17.0700 C.2    80  ALA80       0.2260
     72  O         56.9280   28.9630  -17.9070 O.2    80  ALA80      -0.2867
     73  CB        56.2250   29.9510  -14.7190 C.3    80  ALA80       0.0290
     74  N         60.8870   28.0990  -17.0630 N.3    82  PHE82      -0.1241
     75  CA        61.6950   27.2030  -16.2420 C.3    82  PHE82       0.1605
     76  C         62.7890   26.6470  -17.1320 C.2    82  PHE82       0.2264
     77  O         62.4920   26.0700  -18.1850 O.2    82  PHE82      -0.2867
     78  CB        60.8430   26.0710  -15.6620 C.3    82  PHE82       0.0534
     79  CG        61.6340   25.0370  -14.9000 C.ar   82  PHE82      -0.0203
     80  CD1       62.1910   23.9580  -15.5540 C.ar   82  PHE82      -0.0042
     81  CD2       61.7990   25.1380  -13.5280 C.ar   82  PHE82      -0.0042
     82  CE1       62.9390   23.0140  -14.8620 C.ar   82  PHE82      -0.0003
     83  CE2       62.5400   24.1940  -12.8370 C.ar   82  PHE82      -0.0003
     84  CZ        63.0960   23.1310  -13.4890 C.ar   82  PHE82      -0.0000
     85  N         56.2220   26.8460  -19.7720 N.3    87  TYR87      -0.1227
     86  CA        55.3070   25.7790  -19.4140 C.3    87  TYR87       0.1736
     87  C         54.0490   26.4090  -18.8570 C.2    87  TYR87       0.2596
     88  O         54.1250   27.4350  -18.1770 O.2    87  TYR87      -0.2718
     89  CB        55.8810   24.8750  -18.3160 C.3    87  TYR87       0.0548
     90  CG        57.1910   24.1900  -18.6140 C.ar   87  TYR87      -0.0200
     91  CD1       58.4050   24.8850  -18.5780 C.ar   87  TYR87      -0.0009
     92  CD2       57.2340   22.8260  -18.8330 C.ar   87  TYR87      -0.0009
     93  CE1       59.6070   24.2390  -18.8090 C.ar   87  TYR87       0.0417
     94  CE2       58.4300   22.1700  -19.0510 C.ar   87  TYR87       0.0417
     95  CZ        59.6160   22.8760  -19.0380 C.ar   87  TYR87       0.1957
     96  OH        60.8090   22.2110  -19.2510 O.3    87  TYR87      -0.2866
     97  N         52.8970   25.7830  -19.0850 N.am   88  GLY88      -0.1942
     98  CA        51.6980   26.3580  -18.5000 C.3    88  GLY88       0.2014
     99  C         50.5060   25.4350  -18.5770 C.2    88  GLY88       0.2639
    100  O         50.4300   24.5400  -19.4230 O.2    88  GLY88      -0.2714
    101  N         49.5510   25.6940  -17.6840 N.am   89  THR89      -0.1950
    102  CA        48.2960   24.9530  -17.6030 C.3    89  THR89       0.1897
    103  C         47.2080   25.7780  -18.2790 C.2    89  THR89       0.2313
    104  O         46.8600   26.8570  -17.7890 O.2    89  THR89      -0.2863
    105  CB        47.8990   24.7290  -16.1420 C.3    89  THR89       0.1794
    106  OG1       48.9350   24.0180  -15.4490 O.3    89  THR89      -0.2208
    107  CG2       46.5910   23.9280  -16.0730 C.3    89  THR89       0.0378
    108  N         51.2170   18.7410  -12.4410 N.3   105  ASP105     -0.1225
    109  CA        52.6500   18.6610  -12.1630 C.3   105  ASP105      0.1805
    110  C         53.2030   19.9930  -12.6600 C.2   105  ASP105      0.2598
    111  O         53.3170   20.1990  -13.8750 O.2   105  ASP105     -0.2718
    112  CB        53.2290   17.4340  -12.8870 C.3   105  ASP105      0.1424
    113  CG        54.7350   17.3420  -12.8630 C.2   105  ASP105      0.3668
    114  OD1       55.4300   18.2800  -12.4400 O.co2 105  ASP105     -0.2456
    115  OD2       55.2370   16.2670  -13.3000 O.co2 105  ASP105     -0.2456
    116  N         53.4790   20.9250  -11.7410 N.am  106  ILE106     -0.1966
    117  CA        53.9380   22.2720  -12.0860 C.3   106  ILE106      0.1727
    118  C         55.0420   22.6840  -11.1230 C.2   106  ILE106      0.2616
    119  O         55.2820   22.0320  -10.1090 O.2   106  ILE106     -0.2715
    120  CB        52.8000   23.3160  -12.0560 C.3   106  ILE106      0.0290
    121  CG1       52.3080   23.5690  -10.6240 C.3   106  ILE106      0.0022
    122  CG2       51.6200   22.9000  -12.9540 C.3   106  ILE106      0.0023
    123  CD1       51.1750   24.6030  -10.6050 C.3   106  ILE106      0.0001
    124  N         55.7340   23.7780  -11.4570 N.am  107  GLU107     -0.1977
    125  CA        56.8220   24.2480  -10.6120 C.3   107  GLU107      0.1602
    126  C         56.3750   25.4300   -9.7330 C.2   107  GLU107      0.2287
    127  O         55.2030   25.8160   -9.6950 O.2   107  GLU107     -0.2864
    128  CB        58.0730   24.5480  -11.4650 C.3   107  GLU107      0.0415
    129  CG        57.9140   25.5410  -12.6110 C.3   107  GLU107      0.1163
    130  CD        57.5830   26.9270  -12.1200 C.2   107  GLU107      0.3649
    131  OE1       56.4130   27.3200  -12.2930 O.co2 107  GLU107     -0.2457
    132  OE2       58.4970   27.5880  -11.5520 O.co2 107  GLU107     -0.2457
    133  N         54.3210   28.5530  -10.8250 N.3   110  GLY110     -0.1225
    134  CA        52.9310   28.1850  -11.0210 C.3   110  GLY110      0.1811
    135  C         52.1950   27.9750   -9.7130 C.2   110  GLY110      0.2280
    136  O         51.0370   28.3680   -9.5780 O.2   110  GLY110     -0.2866
    137  N         68.6530   10.0820  -15.4660 N.3   147  ARG147     -0.1245
    138  CA        67.5680   10.0430  -16.4410 C.3   147  ARG147      0.1563
    139  C         68.1010   10.1330  -17.8640 C.2   147  ARG147      0.2260
    140  O         67.5140    9.5510  -18.7840 O.2   147  ARG147     -0.2867
    141  CB        66.5700   11.1650  -16.1750 C.3   147  ARG147      0.0307
    142  CG        65.3630   11.1560  -17.1210 C.3   147  ARG147      0.0489
    143  CD        64.2650   12.0880  -16.6420 C.3   147  ARG147      0.2205
    144  NE        64.6670   13.4850  -16.6730 N.pl3 147  ARG147     -0.0865
    145  CZ        64.2170   14.3980  -15.8230 C.cat 147  ARG147      0.5346
    146  NH1       63.3650   14.0510  -14.8640 N.pl3 147  ARG147      0.1354
    147  NH2       64.6180   15.6560  -15.9170 N.pl3 147  ARG147      0.1354
    148  N         68.4180   23.4430  -14.0200 N.3   158  ARG158     -0.1245
    149  CA        67.4520   22.7380  -13.1800 C.3   158  ARG158      0.1563
    150  C         67.9160   22.6750  -11.7300 C.2   158  ARG158      0.2260
    151  O         67.1110   22.8530  -10.8040 O.2   158  ARG158     -0.2867
    152  CB        67.2100   21.3420  -13.7510 C.3   158  ARG158      0.0307
    153  CG        66.4170   21.4120  -15.0560 C.3   158  ARG158      0.0489
    154  CD        66.4430   20.1280  -15.8320 C.3   158  ARG158      0.2205
    155  NE        65.6750   20.2650  -17.0740 N.pl3 158  ARG158     -0.0865
    156  CZ        64.3960   19.9400  -17.1990 C.cat 158  ARG158      0.5346
    157  NH1       63.7270   19.4610  -16.1490 N.pl3 158  ARG158      0.1354
    158  NH2       63.7790   20.0990  -18.3730 N.pl3 158  ARG158      0.1354
    159  N         63.2690   26.4640   -5.2170 N.3   165  GLU165     -0.1245
    160  CA        62.1840   25.5370   -4.8960 C.3   165  GLU165      0.1567
    161  C         62.3010   24.9990   -3.4730 C.2   165  GLU165      0.2260
    162  O         61.2970   24.9060   -2.7480 O.2   165  GLU165     -0.2867
    163  CB        62.1890   24.3940   -5.9130 C.3   165  GLU165      0.0388
    164  CG        61.8150   24.8980   -7.2950 C.3   165  GLU165      0.1160
    165  CD        62.1570   23.9380   -8.4120 C.2   165  GLU165      0.3649
    166  OE1       63.0940   23.1270   -8.2480 O.co2 165  GLU165     -0.2457
    167  OE2       61.4890   24.0230   -9.4600 O.co2 165  GLU165     -0.2457
@<TRIPOS>BOND
     1    29    28    2
     2    40    39    2
     3    28    27    1
     4    39    38    1
     5    37    38    1
     6    51    50    2
     7    38    41    1
     8    27    26    1
     9    27    30    1
    10    50    49    1
    11    30    31    1
    12    41    42    1
    13    52    49    1
    14    52    53    1
    15    49    48    1
    16    31    32    1
    17    35    34    1
    18    42    43    1
    19    23    22    2
    20    32    33    1
    21    53    55   ar
    22    53    54   ar
    23    34    33    2
    24    34    36    1
    25    22    21    1
    26    55    57   ar
    27    43    44    1
    28    54    56   ar
    29    44    45    2
    30    57    58   ar
    31    21    20    1
    32    21    24    1
    33    85    86    1
    34    56    58   ar
    35   100    99    2
    36    86    87    1
    37    86    89    1
    38    96    95    1
    39    58    59    1
    40    97    87   am
    41    97    98    1
    42    94    95   ar
    43    94    92   ar
    44    95    93   ar
    45    45    47    1
    46    45    46    1
    47    24    25    1
    48    87    88    2
    49    92    90   ar
    50    93    91   ar
    51   140   139    2
    52    90    91   ar
    53    90    89    1
    54    99    98    1
    55    99   101   am
    56   158   156    1
    57   103   104    2
    58   103   102    1
    59    77    76    2
    60    72    71    2
    61   139   138    1
    62   101   102    1
    63   102   105    1
    64   156   155    2
    65   156   157    1
    66    76    75    1
    67   142   143    1
    68   142   141    1
    69   155   154    1
    70    71    70    1
    71    74    75    1
    72    63    62    2
    73   144   143    1
    74   144   145    2
    75    69    70    1
    76   138   141    1
    77   138   137    1
    78    75    78    1
    79    70    73    1
    80   105   107    1
    81   105   106    1
    82    62    61    1
    83   147   145    1
    84   154   153    1
    85   145   146    1
    86    78    79    1
    87    80    79   ar
    88    80    82   ar
    89    60    61    1
    90   153   152    1
    91    61    64    1
    92    79    81   ar
    93    82    84   ar
    94    68    66   ar
    95    66    67   ar
    96    66    65    1
    97   148   149    1
    98   111   110    2
    99   152   149    1
   100    65    64    1
   101    10     9    1
   102    81    83   ar
   103    84    83   ar
   104   115   113   ar
   105   149   150    1
   106   122   120    1
   107   112   113    1
   108   112   109    1
   109   113   114   ar
   110   110   109    1
   111   110   116   am
   112   129   130    1
   113   129   128    1
   114     9     6    1
   115   108   109    1
   116   131   130   ar
   117   130   132   ar
   118   117   120    1
   119   117   116    1
   120   117   118    1
   121   120   121    1
   122   150   151    2
   123   128   125    1
   124   124   118   am
   125   124   125    1
   126     6     7    1
   127     6     5    1
   128   118   119    2
   129   134   133    1
   130   134   135    1
   131     7     8    2
   132    13    14    2
   133    13    12    1
   134    18    19    1
   135    18    17    1
   136   121   123    1
   137   125   126    1
   138    15    12    1
   139    15    16    1
   140    12    11    1
   141   126   127    2
   142   135   136    2
   143    17    16    1
   144   167   165   ar
   145     4     3    2
   146   165   166   ar
   147   165   164    1
   148     3     2    1
   149   164   163    1
   150     1     2    1
   151   163   160    1
   152   159   160    1
   153   160   161    1
   154   161   162    2
