@<TRIPOS>MOLECULE
tmp/6mfvD00.pdb
 199 188 0 0 0
SMALL
GASTEIGER

@<TRIPOS>ATOM
      1  N        -85.2660  -42.2480 -144.9700 N.3    11  VAL11      -0.1245
      2  CA       -84.9480  -41.8030 -146.3190 C.3    11  VAL11       0.1561
      3  C        -83.6390  -42.4440 -146.7690 C.2    11  VAL11       0.2260
      4  O        -82.7740  -42.7880 -145.9520 O.2    11  VAL11      -0.2867
      5  CB       -84.8680  -40.2660 -146.3680 C.3    11  VAL11       0.0252
      6  CG1      -85.0470  -39.7590 -147.7940 C.3    11  VAL11       0.0019
      7  CG2      -85.9000  -39.6600 -145.4360 C.3    11  VAL11       0.0019
      8  N        -81.1270  -41.0470 -148.6310 N.3    13  VAL13      -0.1231
      9  CA       -80.0560  -40.1080 -148.3190 C.3    13  VAL13       0.1692
     10  C        -80.3250  -39.4910 -146.9540 C.2    13  VAL13       0.2592
     11  O        -81.4590  -39.1130 -146.6360 O.2    13  VAL13      -0.2718
     12  CB       -79.9330  -39.0290 -149.4150 C.3    13  VAL13       0.0266
     13  CG1      -81.2610  -38.3070 -149.6260 C.3    13  VAL13       0.0020
     14  CG2      -78.8230  -38.0470 -149.0790 C.3    13  VAL13       0.0020
     15  N        -79.2810  -39.4040 -146.1310 N.am   14  PHE14      -0.1962
     16  CA       -79.3980  -38.7700 -144.8250 C.3    14  PHE14       0.1771
     17  C        -78.0090  -38.4250 -144.3150 C.2    14  PHE14       0.2619
     18  O        -77.1120  -39.2740 -144.3210 O.2    14  PHE14      -0.2715
     19  CB       -80.1340  -39.6670 -143.8180 C.3    14  PHE14       0.0574
     20  CG       -79.4870  -41.0040 -143.6050 C.ar   14  PHE14      -0.0200
     21  CD1      -79.7620  -42.0590 -144.4550 C.ar   14  PHE14      -0.0042
     22  CD2      -78.6110  -41.2070 -142.5510 C.ar   14  PHE14      -0.0042
     23  CE1      -79.1730  -43.2870 -144.2630 C.ar   14  PHE14      -0.0003
     24  CE2      -78.0170  -42.4360 -142.3540 C.ar   14  PHE14      -0.0003
     25  CZ       -78.2980  -43.4770 -143.2110 C.ar   14  PHE14      -0.0000
     26  N        -77.8320  -37.1750 -143.8970 N.am   15  VAL15      -0.1977
     27  CA       -76.6090  -36.7590 -143.2240 C.3    15  VAL15       0.1596
     28  C        -77.0080  -36.2580 -141.8410 C.2    15  VAL15       0.2287
     29  O        -77.1750  -35.0540 -141.6120 O.2    15  VAL15      -0.2864
     30  CB       -75.8340  -35.7090 -144.0510 C.3    15  VAL15       0.0276
     31  CG1      -76.7470  -34.5750 -144.5300 C.3    15  VAL15       0.0022
     32  CG2      -74.6210  -35.1790 -143.2790 C.3    15  VAL15       0.0022
     33  N        -77.2440  -35.2380 -137.8790 N.3    17  ARG17      -0.1245
     34  CA       -76.4320  -34.4360 -136.9690 C.3    17  ARG17       0.1563
     35  C        -76.0150  -35.3490 -135.8240 C.2    17  ARG17       0.2260
     36  O        -76.8090  -35.6420 -134.9260 O.2    17  ARG17      -0.2867
     37  CB       -77.2100  -33.2160 -136.4910 C.3    17  ARG17       0.0307
     38  CG       -77.4610  -32.1870 -137.5890 C.3    17  ARG17       0.0489
     39  CD       -78.9450  -32.0060 -137.8840 C.3    17  ARG17       0.2205
     40  NE       -79.5480  -33.2000 -138.4730 N.pl3  17  ARG17      -0.0865
     41  CZ       -80.7960  -33.2610 -138.9280 C.cat  17  ARG17       0.5346
     42  NH1      -81.5830  -32.1950 -138.8660 N.pl3  17  ARG17       0.1354
     43  NH2      -81.2600  -34.3900 -139.4500 N.pl3  17  ARG17       0.1354
     44  N        -92.0850  -28.1750 -140.1510 N.3    37  ALA37      -0.1231
     45  CA       -92.5040  -29.1910 -141.1070 C.3    37  ALA37       0.1694
     46  C        -91.3400  -29.5800 -142.0090 C.2    37  ALA37       0.2593
     47  O        -90.6480  -28.7190 -142.5590 O.2    37  ALA37      -0.2718
     48  CB       -93.6750  -28.6770 -141.9430 C.3    37  ALA37       0.0304
     49  N        -91.1240  -30.8850 -142.1560 N.am   38  GLY38      -0.1942
     50  CA       -90.0490  -31.3540 -143.0050 C.3    38  GLY38       0.2014
     51  C        -88.6640  -31.0470 -142.4880 C.2    38  GLY38       0.2639
     52  O        -87.6950  -31.1420 -143.2460 O.2    38  GLY38      -0.2714
     53  N        -88.5410  -30.6750 -141.2110 N.am   39  ILE39      -0.1963
     54  CA       -87.2370  -30.3550 -140.6460 C.3    39  ILE39       0.1727
     55  C        -86.3940  -31.6060 -140.4370 C.2    39  ILE39       0.2617
     56  O        -85.1730  -31.5070 -140.2600 O.2    39  ILE39      -0.2715
     57  CB       -87.4040  -29.5840 -139.3240 C.3    39  ILE39       0.0290
     58  CG1      -86.1460  -28.7730 -139.0120 C.3    39  ILE39       0.0022
     59  CG2      -87.7250  -30.5380 -138.1870 C.3    39  ILE39       0.0023
     60  CD1      -85.7960  -27.7700 -140.0870 C.3    39  ILE39       0.0001
     61  N        -87.0120  -32.7840 -140.4500 N.am   40  GLY40      -0.1940
     62  CA       -86.2950  -34.0310 -140.3040 C.3    40  GLY40       0.2014
     63  C        -86.5680  -34.7990 -139.0320 C.2    40  GLY40       0.2639
     64  O        -85.8250  -35.7380 -138.7300 O.2    40  GLY40      -0.2714
     65  N        -87.6180  -34.4500 -138.2880 N.am   41  LYS41      -0.1963
     66  CA       -87.8750  -35.1000 -137.0060 C.3    41  LYS41       0.1728
     67  C        -88.2810  -36.5600 -137.1920 C.2    41  LYS41       0.2617
     68  O        -87.6770  -37.4600 -136.5980 O.2    41  LYS41      -0.2715
     69  CB       -88.9430  -34.3200 -136.2400 C.3    41  LYS41       0.0311
     70  CG       -90.0090  -33.7210 -137.1370 C.3    41  LYS41       0.0038
     71  CD       -90.7770  -32.6090 -136.4450 C.3    41  LYS41       0.0206
     72  CE       -91.9110  -32.1060 -137.3290 C.3    41  LYS41       0.1093
     73  NZ       -91.4530  -31.8230 -138.7210 N.3    41  LYS41      -0.1314
     74  N        -89.3090  -36.8140 -138.0090 N.am   42  THR42      -0.1937
     75  CA       -89.7590  -38.1850 -138.2380 C.3    42  THR42       0.2028
     76  C        -88.6380  -39.0460 -138.8080 C.2    42  THR42       0.2642
     77  O        -88.4040  -40.1690 -138.3470 O.2    42  THR42      -0.2714
     78  CB       -90.9670  -38.1910 -139.1790 C.3    42  THR42       0.1808
     79  OG1      -92.1100  -37.6540 -138.5020 O.3    42  THR42      -0.2208
     80  CG2      -91.2800  -39.6000 -139.6560 C.3    42  THR42       0.0379
     81  N        -87.9230  -38.5260 -139.8050 N.am   43  SER43      -0.1949
     82  CA       -86.8310  -39.2830 -140.4050 C.3    43  SER43       0.1924
     83  C        -85.6520  -39.4520 -139.4500 C.2    43  SER43       0.2314
     84  O        -84.9450  -40.4630 -139.5220 O.2    43  SER43      -0.2863
     85  CB       -86.3950  -38.6130 -141.7070 C.3    43  SER43       0.2116
     86  OG       -86.5160  -37.2070 -141.6080 O.3    43  SER43      -0.2180
     87  N        -83.7060  -42.9520 -137.7700 N.3    47  LYS47      -0.1245
     88  CA       -82.2550  -43.1110 -137.7780 C.3    47  LYS47       0.1561
     89  C        -81.7240  -43.5200 -136.4090 C.2    47  LYS47       0.2260
     90  O        -80.6700  -44.1610 -136.3230 O.2    47  LYS47      -0.2867
     91  CB       -81.5860  -41.8140 -138.2360 C.3    47  LYS47       0.0271
     92  CG       -81.5260  -41.6340 -139.7470 C.3    47  LYS47       0.0035
     93  CD       -80.7960  -40.3520 -140.1340 C.3    47  LYS47       0.0206
     94  CE       -81.6980  -39.1350 -140.0390 C.3    47  LYS47       0.1093
     95  NZ       -81.0190  -37.9040 -140.5250 N.3    47  LYS47      -0.1314
     96  N        -95.2300  -40.6230 -133.9010 N.3   114  ASP114     -0.1225
     97  CA       -95.0860  -39.6150 -134.9410 C.3   114  ASP114      0.1805
     98  C        -96.2410  -38.6250 -134.8550 C.2   114  ASP114      0.2597
     99  O        -97.4010  -39.0290 -134.7250 O.2   114  ASP114     -0.2718
    100  CB       -95.0360  -40.2620 -136.3260 C.3   114  ASP114      0.1424
    101  CG       -94.3410  -39.3860 -137.3520 C.2   114  ASP114      0.3668
    102  OD1      -93.7810  -38.3380 -136.9640 O.co2 114  ASP114     -0.2456
    103  OD2      -94.3540  -39.7460 -138.5490 O.co2 114  ASP114     -0.2456
    104  N        -95.9100  -37.3320 -134.9030 N.am  115  ASP115     -0.1974
    105  CA       -96.8790  -36.2380 -134.8990 C.3   115  ASP115      0.1709
    106  C        -97.6540  -36.1650 -133.5860 C.2   115  ASP115      0.2293
    107  O        -97.2110  -36.6920 -132.5590 O.2   115  ASP115     -0.2864
    108  CB       -97.8400  -36.3550 -136.0890 C.3   115  ASP115      0.1436
    109  CG       -97.1300  -36.2390 -137.4310 C.2   115  ASP115      0.3671
    110  OD1      -96.0280  -35.6500 -137.4740 O.co2 115  ASP115     -0.2456
    111  OD2      -97.6760  -36.7300 -138.4440 O.co2 115  ASP115     -0.2456
    112  N        -92.2260  -37.1600 -131.9430 N.3   143  THR143     -0.1218
    113  CA       -91.9530  -36.0860 -132.8870 C.3   143  THR143      0.1862
    114  C        -93.1430  -35.1370 -132.8680 C.2   143  THR143      0.2287
    115  O        -94.2670  -35.5440 -133.1800 O.2   143  THR143     -0.2866
    116  CB       -91.7110  -36.6290 -134.3000 C.3   143  THR143      0.1770
    117  OG1      -92.8940  -37.2800 -134.7790 O.3   143  THR143     -0.2211
    118  CG2      -90.5620  -37.6300 -134.3030 C.3   143  THR143      0.0375
    119  N        -80.1680  -28.5050 -141.4470 N.3   163  LEU163     -0.1245
    120  CA       -78.9010  -29.1130 -141.8170 C.3   163  LEU163      0.1561
    121  C        -77.7980  -28.0670 -141.7930 C.2   163  LEU163      0.2260
    122  O        -78.0210  -26.8980 -142.1190 O.2   163  LEU163     -0.2867
    123  CB       -78.9690  -29.7560 -143.2080 C.3   163  LEU163      0.0270
    124  CG       -79.6540  -31.1180 -143.3130 C.3   163  LEU163      0.0019
    125  CD1      -79.7370  -31.5530 -144.7670 C.3   163  LEU163      0.0001
    126  CD2      -78.9190  -32.1600 -142.4780 C.3   163  LEU163      0.0001
    127  N        -74.6320  -33.6010 -148.9290 N.3   171  LEU171     -0.1245
    128  CA       -75.8310  -34.3270 -149.3380 C.3   171  LEU171      0.1561
    129  C        -76.0560  -34.2150 -150.8410 C.2   171  LEU171      0.2260
    130  O        -76.3560  -35.2100 -151.5120 O.2   171  LEU171     -0.2867
    131  CB       -77.0410  -33.8000 -148.5650 C.3   171  LEU171      0.0270
    132  CG       -78.3700  -34.5390 -148.7310 C.3   171  LEU171      0.0019
    133  CD1      -79.1080  -34.6000 -147.4050 C.3   171  LEU171      0.0001
    134  CD2      -79.2460  -33.8900 -149.7890 C.3   171  LEU171      0.0001
    135  N        -84.1970  -29.9030 -144.8800 N.3   195  PRO195     -0.2102
    136  CA       -83.8640  -31.1440 -145.5960 C.3   195  PRO195      0.1504
    137  C        -84.8890  -31.5270 -146.6480 C.2   195  PRO195      0.2575
    138  O        -84.5100  -32.0040 -147.7240 O.2   195  PRO195     -0.2718
    139  CB       -83.7770  -32.1830 -144.4680 C.3   195  PRO195      0.0282
    140  CG       -83.6680  -31.3860 -143.1970 C.3   195  PRO195      0.0208
    141  CD       -84.4430  -30.1400 -143.4510 C.3   195  PRO195      0.0893
    142  N        -86.1810  -31.3350 -146.3730 N.am  196  LEU196     -0.1980
    143  CA       -87.1990  -31.6860 -147.3580 C.3   196  LEU196      0.1596
    144  C        -87.1260  -30.7700 -148.5720 C.2   196  LEU196      0.2287
    145  O        -87.0800  -31.2400 -149.7140 O.2   196  LEU196     -0.2864
    146  CB       -88.5920  -31.6290 -146.7290 C.3   196  LEU196      0.0297
    147  CG       -89.7760  -31.8280 -147.6820 C.3   196  LEU196      0.0022
    148  CD1      -89.6210  -33.0980 -148.5050 C.3   196  LEU196      0.0001
    149  CD2      -91.0860  -31.8550 -146.9120 C.3   196  LEU196      0.0001
    150  N        -84.1940  -31.6660 -150.9540 N.3   199  ASN199     -0.1240
    151  CA       -84.4110  -32.7330 -151.9260 C.3   199  ASN199      0.1653
    152  C        -85.2990  -32.2780 -153.0750 C.2   199  ASN199      0.2266
    153  O        -85.1120  -32.7200 -154.2140 O.2   199  ASN199     -0.2867
    154  CB       -85.0180  -33.9580 -151.2440 C.3   199  ASN199      0.1155
    155  CG       -83.9720  -34.8470 -150.6070 C.2   199  ASN199      0.2627
    156  OD1      -82.8930  -34.3860 -150.2360 O.2   199  ASN199     -0.2716
    157  ND2      -84.2770  -36.1340 -150.4950 N.am  199  ASN199     -0.0877
    158  N        -89.2130  -36.5850 -153.1210 N.3   263  GLY263     -0.1225
    159  CA       -89.5510  -36.3640 -151.7320 C.3   263  GLY263      0.1811
    160  C        -90.9360  -35.8170 -151.4920 C.2   263  GLY263      0.2280
    161  O        -91.2690  -35.5020 -150.3440 O.2   263  GLY263     -0.2866
    162  N        -94.2240  -39.7000 -149.2750 N.3   266  GLU266     -0.1245
    163  CA       -93.5020  -40.5270 -148.3210 C.3   266  GLU266      0.1567
    164  C        -94.2660  -41.8190 -148.0780 C.2   266  GLU266      0.2260
    165  O        -95.4930  -41.8100 -147.9290 O.2   266  GLU266     -0.2867
    166  CB       -93.2910  -39.7850 -146.9980 C.3   266  GLU266      0.0388
    167  CG       -92.5490  -38.4650 -147.1400 C.3   266  GLU266      0.1160
    168  CD       -91.1250  -38.6410 -147.6350 C.2   266  GLU266      0.3649
    169  OE1      -90.5550  -39.7380 -147.4530 O.co2 266  GLU266     -0.2457
    170  OE2      -90.5730  -37.6750 -148.2030 O.co2 266  GLU266     -0.2457
    171  N        -98.5560  -41.6680 -148.5250 N.3   273  PHE273     -0.1241
    172  CA       -99.3370  -40.4490 -148.3330 C.3   273  PHE273      0.1605
    173  C        -98.4090  -39.2460 -148.4300 C.2   273  PHE273      0.2264
    174  O        -97.2070  -39.3550 -148.1750 O.2   273  PHE273     -0.2867
    175  CB      -100.0820  -40.4410 -146.9890 C.3   273  PHE273      0.0534
    176  CG       -99.2190  -40.0960 -145.8060 C.ar  273  PHE273     -0.0203
    177  CD1      -98.1670  -40.9140 -145.4280 C.ar  273  PHE273     -0.0042
    178  CD2      -99.4800  -38.9600 -145.0560 C.ar  273  PHE273     -0.0042
    179  CE1      -97.3800  -40.5950 -144.3340 C.ar  273  PHE273     -0.0003
    180  CE2      -98.6990  -38.6360 -143.9630 C.ar  273  PHE273     -0.0003
    181  CZ       -97.6490  -39.4550 -143.6010 C.ar  273  PHE273     -0.0000
    182  N        -96.7000  -35.5200 -147.6910 N.3   275  HIS275     -0.1226
    183  CA       -96.2290  -34.8530 -146.4870 C.3   275  HIS275      0.1752
    184  C        -97.2180  -33.7740 -146.0550 C.2   275  HIS275      0.2596
    185  O        -97.9700  -33.2270 -146.8660 O.2   275  HIS275     -0.2718
    186  CB       -94.8470  -34.2470 -146.7290 C.3   275  HIS275      0.0759
    187  CG       -94.1000  -33.9180 -145.4750 C.ar  275  HIS275      0.0818
    188  ND1      -94.2500  -32.7200 -144.8120 N.ar  275  HIS275     -0.2268
    189  CD2      -93.2010  -34.6350 -144.7600 C.ar  275  HIS275      0.1154
    190  CE1      -93.4710  -32.7100 -143.7440 C.ar  275  HIS275      0.1986
    191  NE2      -92.8250  -33.8610 -143.6890 N.ar  275  HIS275     -0.2212
    192  N        -97.2140  -33.4740 -144.7530 N.am  276  ASP276     -0.1974
    193  CA       -98.1640  -32.5050 -144.2150 C.3   276  ASP276      0.1709
    194  C        -97.9200  -31.1020 -144.7590 C.2   276  ASP276      0.2293
    195  O        -98.8730  -30.3300 -144.9150 O.2   276  ASP276     -0.2864
    196  CB       -98.1030  -32.4980 -142.6860 C.3   276  ASP276      0.1436
    197  CG       -98.7980  -33.6970 -142.0680 C.2   276  ASP276      0.3671
    198  OD1      -99.7210  -34.2450 -142.7060 O.co2 276  ASP276     -0.2456
    199  OD2      -98.4220  -34.0890 -140.9420 O.co2 276  ASP276     -0.2456
@<TRIPOS>BOND
     1   153   152    2
     2   158   159    1
     3   152   151    1
     4   151   154    1
     5   151   150    1
     6   159   160    1
     7   130   129    2
     8   160   161    2
     9   154   155    1
    10   129   128    1
    11   155   157   am
    12   155   156    2
    13   134   132    1
    14   145   144    2
    15    13    12    1
    16    12    14    1
    17    12     9    1
    18   128   127    1
    19   128   131    1
    20   162   163    1
    21   132   131    1
    22   132   133    1
    23     8     9    1
    24   144   143    1
    25   171   172    1
    26   148   147    1
    27   173   172    1
    28   173   174    2
    29   172   175    1
    30   163   164    1
    31   163   166    1
    32     9    10    1
    33   170   168   ar
    34   164   165    2
    35     6     5    1
    36   138   137    2
    37   182   183    1
    38   147   149    1
    39   147   146    1
    40   168   169   ar
    41   168   167    1
    42   143   146    1
    43   143   142    1
    44   167   166    1
    45   175   176    1
    46    10    11    2
    47    10    15   am
    48   185   184    2
    49     3     2    1
    50     3     4    2
    51   186   183    1
    52   186   187    1
    53   137   142   am
    54   137   136    1
    55   183   184    1
    56     5     2    1
    57     5     7    1
    58     2     1    1
    59    15    16    1
    60   184   192   am
    61   176   177   ar
    62   176   178   ar
    63   136   135    1
    64   136   139    1
    65   187   188   ar
    66   187   189   ar
    67   177   179   ar
    68   178   180   ar
    69   195   194    2
    70   135   141    1
    71    16    17    1
    72    16    19    1
    73   188   190   ar
    74   125   124    1
    75   189   191   ar
    76   194   193    1
    77   192   193    1
    78    31    30    1
    79   139   140    1
    80    21    23   ar
    81    21    20   ar
    82   179   181   ar
    83    18    17    2
    84    17    26   am
    85    23    25   ar
    86   193   196    1
    87    30    32    1
    88    30    27    1
    89   180   181   ar
    90    26    27    1
    91    19    20    1
    92   190   191   ar
    93    20    22   ar
    94   141   140    1
    95   124   123    1
    96   124   126    1
    97    52    51    2
    98    27    28    1
    99    25    24   ar
   100   123   120    1
   101    50    51    1
   102    50    49    1
   103   198   197   ar
   104   196   197    1
   105    47    46    2
   106    22    24   ar
   107    51    53   am
   108    49    46   am
   109   122   121    2
   110   197   199   ar
   111    46    45    1
   112    48    45    1
   113    28    29    2
   114   120   121    1
   115   120   119    1
   116    85    86    1
   117    85    82    1
   118    53    54    1
   119    45    44    1
   120    54    55    1
   121    54    57    1
   122    95    94    1
   123    61    55   am
   124    61    62    1
   125    55    56    2
   126    82    81    1
   127    82    83    1
   128    62    63    1
   129    93    94    1
   130    93    92    1
   131    60    58    1
   132    81    76   am
   133    92    91    1
   134    80    78    1
   135    84    83    2
   136    43    41    1
   137    57    58    1
   138    57    59    1
   139    78    79    1
   140    78    75    1
   141    63    64    2
   142    63    65   am
   143    41    42    1
   144    41    40    2
   145    76    77    2
   146    76    75    1
   147    73    72    1
   148   103   101   ar
   149    40    39    1
   150   111   109   ar
   151    65    66    1
   152    75    74    1
   153    91    88    1
   154    74    67   am
   155    39    38    1
   156    33    34    1
   157    88    87    1
   158    88    89    1
   159    38    37    1
   160   110   109   ar
   161   109   108    1
   162   101   102   ar
   163   101   100    1
   164    72    71    1
   165    67    66    1
   166    67    68    2
   167    70    71    1
   168    70    69    1
   169    66    69    1
   170    34    37    1
   171    34    35    1
   172    89    90    2
   173   100    97    1
   174   108   105    1
   175    35    36    2
   176    97    98    1
   177    97    96    1
   178   104   105    1
   179   104    98   am
   180   105   106    1
   181    98    99    2
   182   117   116    1
   183   118   116    1
   184   116   113    1
   185   106   107    2
   186   115   114    2
   187   113   114    1
   188   113   112    1
