@<TRIPOS>MOLECULE
tmp/6mggC00.pdb
 215 208 0 0 0
SMALL
GASTEIGER

@<TRIPOS>ATOM
      1  N        -13.0190  -15.7830   37.5330 N.3    13  GLN13      -0.1231
      2  CA       -12.0340  -16.6830   37.0220 C.3    13  GLN13       0.1698
      3  C        -10.7170  -16.4260   37.7740 C.2    13  GLN13       0.2592
      4  O        -10.2410  -15.2920   37.8000 O.2    13  GLN13      -0.2718
      5  CB       -11.9610  -16.5070   35.5070 C.3    13  GLN13       0.0381
      6  CG       -13.1720  -17.1130   34.8120 C.3    13  GLN13       0.0905
      7  CD       -13.2870  -16.6930   33.3810 C.2    13  GLN13       0.2608
      8  OE1      -13.9960  -15.7180   33.0480 O.2    13  GLN13      -0.2717
      9  NE2      -12.6250  -17.4600   32.5250 N.am   13  GLN13      -0.0878
     10  N        -10.1670  -17.4830   38.3770 N.am   14  GLY14      -0.1957
     11  CA        -9.0570  -17.3490   39.3210 C.3    14  GLY14       0.1869
     12  C         -9.5700  -16.9160   40.6850 C.2    14  GLY14       0.2309
     13  O         -8.9000  -16.2470   41.3950 O.2    14  GLY14      -0.2863
     14  N         -9.9990  -18.5120   43.5130 N.3    16  THR16      -0.1203
     15  CA        -9.3190  -19.0000   44.7420 C.3    16  THR16       0.1994
     16  C         -7.9190  -18.4020   44.9090 C.2    16  THR16       0.2618
     17  O         -7.2920  -18.5960   45.9260 O.2    16  THR16      -0.2717
     18  CB        -9.2390  -20.5210   44.7320 C.3    16  THR16       0.1784
     19  OG1       -8.4900  -20.9100   43.5690 O.3    16  THR16      -0.2211
     20  CG2      -10.6190  -21.1390   44.7920 C.3    16  THR16       0.0376
     21  N         -7.4440  -17.6650   43.9110 N.am   17  GLY17      -0.1942
     22  CA        -6.1700  -16.9940   43.9530 C.3    17  GLY17       0.2014
     23  C         -6.1370  -15.8040   44.8900 C.2    17  GLY17       0.2639
     24  O         -7.1460  -15.3990   45.4360 O.2    17  GLY17      -0.2714
     25  N         -4.9280  -15.2510   45.0670 N.am   18  LYS18      -0.1963
     26  CA        -4.6630  -14.1200   45.9760 C.3    18  LYS18       0.1728
     27  C         -5.5260  -12.9110   45.6180 C.2    18  LYS18       0.2616
     28  O         -6.1900  -12.3540   46.4640 O.2    18  LYS18      -0.2715
     29  CB        -3.1940  -13.6980   45.9220 C.3    18  LYS18       0.0311
     30  CG        -2.8690  -12.5070   46.8050 C.3    18  LYS18       0.0038
     31  CD        -1.4470  -11.9590   46.6610 C.3    18  LYS18       0.0206
     32  CE        -1.2400  -10.7120   47.5010 C.3    18  LYS18       0.1093
     33  NZ        -2.3970   -9.7770   47.4000 N.3    18  LYS18      -0.1314
     34  N         -5.4600  -12.4810   44.3500 N.am   19  ASN19      -0.1958
     35  CA        -6.1880  -11.3000   43.9170 C.3    19  ASN19       0.1819
     36  C         -7.6690  -11.6060   43.7180 C.2    19  ASN19       0.2621
     37  O         -8.4760  -10.7550   44.1110 O.2    19  ASN19      -0.2715
     38  CB        -5.5940  -10.6460   42.6700 C.3    19  ASN19       0.1195
     39  CG        -4.5550   -9.6240   43.0660 C.2    19  ASN19       0.2630
     40  OD1       -4.8320   -8.4200   43.1510 O.2    19  ASN19      -0.2716
     41  ND2       -3.3890  -10.1170   43.4260 N.am   19  ASN19      -0.0877
     42  N         -8.0210  -12.7720   43.1570 N.am   20  GLY20      -0.1954
     43  CA        -9.4390  -13.1790   43.0450 C.3    20  GLY20       0.1869
     44  C        -10.1250  -13.1510   44.4140 C.2    20  GLY20       0.2309
     45  O        -11.2890  -12.7340   44.5630 O.2    20  GLY20      -0.2863
     46  N        -14.3950  -20.0430   39.1180 N.3    38  VAL38      -0.1231
     47  CA       -13.7590  -21.1310   38.4540 C.3    38  VAL38       0.1692
     48  C        -12.2640  -21.0870   38.7820 C.2    38  VAL38       0.2593
     49  O        -11.6220  -20.0610   38.5850 O.2    38  VAL38      -0.2718
     50  CB       -13.9410  -21.0540   36.9350 C.3    38  VAL38       0.0266
     51  CG1      -13.1030  -22.0910   36.2280 C.3    38  VAL38       0.0020
     52  CG2      -15.4090  -21.1700   36.5520 C.3    38  VAL38       0.0020
     53  N        -11.7940  -22.1930   39.3340 N.am   39  THR39      -0.1940
     54  CA       -10.3680  -22.5520   39.3910 C.3    39  THR39       0.2013
     55  C        -10.3020  -24.0300   39.0080 C.2    39  THR39       0.2484
     56  O        -10.8290  -24.8930   39.7090 O.2    39  THR39      -0.2729
     57  CB        -9.7480  -22.2630   40.7620 C.3    39  THR39       0.1807
     58  OG1       -9.9410  -20.8790   41.0630 O.3    39  THR39      -0.2208
     59  CG2       -8.2630  -22.5860   40.7720 C.3    39  THR39       0.0379
     60  N         -9.6810  -24.3600   37.8570 N.am   40  PRO40      -0.2726
     61  CA        -9.6150  -25.7520   37.4270 C.3    40  PRO40       0.1402
     62  C         -8.9420  -26.5750   38.5270 C.2    40  PRO40       0.2269
     63  O         -7.9310  -26.1140   39.0570 O.2    40  PRO40      -0.2865
     64  CB        -8.7690  -25.7070   36.1580 C.3    40  PRO40       0.0296
     65  CG        -8.9100  -24.3030   35.6610 C.3    40  PRO40       0.0237
     66  CD        -9.1120  -23.4320   36.8840 C.3    40  PRO40       0.0939
     67  N        -10.3800  -27.2460   41.5110 N.3    42  LYS42      -0.1245
     68  CA       -11.0470  -27.0040   42.8040 C.3    42  LYS42       0.1561
     69  C        -12.5670  -27.0160   42.6580 C.2    42  LYS42       0.2260
     70  O        -13.2780  -26.5870   43.5830 O.2    42  LYS42      -0.2867
     71  CB       -10.5150  -25.7080   43.4120 C.3    42  LYS42       0.0271
     72  CG        -9.0230  -25.7390   43.7120 C.3    42  LYS42       0.0035
     73  CD        -8.4700  -24.4510   44.2650 C.3    42  LYS42       0.0206
     74  CE        -7.0300  -24.5920   44.7210 C.3    42  LYS42       0.1093
     75  NZ        -6.5650  -23.3620   45.3920 N.3    42  LYS42      -0.1314
     76  N         -8.9640  -12.7470   36.9310 N.3    71  TYR71      -0.1227
     77  CA        -7.7590  -12.4970   37.7230 C.3    71  TYR71       0.1736
     78  C         -6.6970  -13.5740   37.4960 C.2    71  TYR71       0.2595
     79  O         -5.8870  -13.8030   38.3900 O.2    71  TYR71      -0.2718
     80  CB        -8.1260  -12.4860   39.2000 C.3    71  TYR71       0.0548
     81  CG        -8.9750  -11.3250   39.6160 C.ar   71  TYR71      -0.0200
     82  CD1       -8.4010  -10.0810   39.7430 C.ar   71  TYR71      -0.0009
     83  CD2      -10.3480  -11.4370   39.7890 C.ar   71  TYR71      -0.0009
     84  CE1       -9.1270   -8.9740   40.1230 C.ar   71  TYR71       0.0417
     85  CE2      -11.0950  -10.3250   40.1500 C.ar   71  TYR71       0.0417
     86  CZ       -10.4840   -9.1020   40.3370 C.ar   71  TYR71       0.1957
     87  OH       -11.1710   -7.9750   40.7100 O.3    71  TYR71      -0.2866
     88  N         -6.6620  -14.2040   36.3200 N.am   72  VAL72      -0.1966
     89  CA        -5.7140  -15.2420   36.0400 C.3    72  VAL72       0.1712
     90  C         -4.4270  -14.5980   35.5220 C.2    72  VAL72       0.2458
     91  O         -4.4560  -13.5740   34.8190 O.2    72  VAL72      -0.2730
     92  CB        -6.2810  -16.2840   35.0570 C.3    72  VAL72       0.0289
     93  CG1       -7.6890  -16.7040   35.4820 C.3    72  VAL72       0.0023
     94  CG2       -6.3290  -15.8180   33.6310 C.3    72  VAL72       0.0023
     95  N         -3.2570  -15.2020   35.8100 N.am   73  PRO73      -0.2716
     96  CA        -1.9970  -14.6600   35.3030 C.3    73  PRO73       0.1536
     97  C         -1.9750  -14.5860   33.7560 C.2    73  PRO73       0.2598
     98  O         -2.5820  -15.4430   33.0600 O.2    73  PRO73      -0.2715
     99  CB        -0.9460  -15.6430   35.8630 C.3    73  PRO73       0.0310
    100  CG        -1.6250  -16.2310   37.0910 C.3    73  PRO73       0.0237
    101  CD        -3.0710  -16.3900   36.6400 C.3    73  PRO73       0.0939
    102  N         -1.2020  -13.6250   33.2270 N.am   74  ALA74      -0.1978
    103  CA        -1.1350  -13.2710   31.8020 C.3    74  ALA74       0.1597
    104  C         -1.0410  -14.5000   30.8960 C.2    74  ALA74       0.2287
    105  O         -1.7570  -14.5560   29.8950 O.2    74  ALA74      -0.2864
    106  CB        -0.0280  -12.2940   31.5090 C.3    74  ALA74       0.0319
    107  N         -2.3330  -17.3200   30.8940 N.3    76  PHE76      -0.1241
    108  CA        -3.5520  -18.0920   30.8300 C.3    76  PHE76       0.1605
    109  C         -4.7450  -17.2510   30.3560 C.2    76  PHE76       0.2264
    110  O         -5.8490  -17.7590   30.2420 O.2    76  PHE76      -0.2867
    111  CB        -3.7890  -18.7170   32.2070 C.3    76  PHE76       0.0534
    112  CG        -2.6040  -19.5390   32.6630 C.ar   76  PHE76      -0.0203
    113  CD1       -2.1480  -20.6080   31.9090 C.ar   76  PHE76      -0.0042
    114  CD2       -1.8810  -19.1820   33.7910 C.ar   76  PHE76      -0.0042
    115  CE1       -1.0530  -21.3640   32.3270 C.ar   76  PHE76      -0.0003
    116  CE2       -0.7990  -19.9480   34.2180 C.ar   76  PHE76      -0.0003
    117  CZ        -0.3840  -21.0310   33.4840 C.ar   76  PHE76      -0.0000
    118  N         -6.7830  -18.2050   26.9360 N.3    79  ASP79      -0.1225
    119  CA        -7.5470  -19.4190   27.1720 C.3    79  ASP79       0.1805
    120  C         -8.7890  -19.1020   28.0360 C.2    79  ASP79       0.2598
    121  O         -9.9070  -19.4930   27.7080 O.2    79  ASP79      -0.2718
    122  CB        -6.6510  -20.4900   27.7990 C.3    79  ASP79       0.1424
    123  CG        -7.3900  -21.7670   28.1340 C.2    79  ASP79       0.3668
    124  OD1       -7.9600  -22.3620   27.1960 O.co2  79  ASP79      -0.2456
    125  OD2       -7.4270  -22.1290   29.3490 O.co2  79  ASP79      -0.2456
    126  N         -8.5790  -18.3390   29.1140 N.am   80  SER80      -0.1952
    127  CA        -9.6280  -17.9750   30.0270 C.3    80  SER80       0.1924
    128  C        -10.6820  -17.1150   29.3360 C.2    80  SER80       0.2314
    129  O        -11.9100  -17.3190   29.5450 O.2    80  SER80      -0.2863
    130  CB        -9.0760  -17.2860   31.2250 C.3    80  SER80       0.2116
    131  OG        -8.7160  -18.2720   32.1550 O.3    80  SER80      -0.2180
    132  N        -12.6980  -19.2040   26.9090 N.3    83  GLU83      -0.1245
    133  CA       -13.5890  -20.0220   27.7230 C.3    83  GLU83       0.1567
    134  C        -14.8710  -19.2900   28.1140 C.2    83  GLU83       0.2260
    135  O        -16.0120  -19.7870   27.8950 O.2    83  GLU83      -0.2867
    136  CB       -12.8900  -20.5330   28.9750 C.3    83  GLU83       0.0388
    137  CG       -13.7550  -21.5310   29.7170 C.3    83  GLU83       0.1160
    138  CD       -13.1890  -22.2390   30.9290 C.2    83  GLU83       0.3649
    139  OE1      -13.8110  -23.2810   31.3380 O.co2  83  GLU83      -0.2457
    140  OE2      -12.1160  -21.8310   31.4410 O.co2  83  GLU83      -0.2457
    141  N         -8.7090   -8.0710   34.3020 N.3    95  ILE95      -0.1231
    142  CA        -7.9250   -7.1600   35.1110 C.3    95  ILE95       0.1692
    143  C         -6.4430   -7.2940   34.7380 C.2    95  ILE95       0.2593
    144  O         -5.7140   -6.2840   34.7240 O.2    95  ILE95      -0.2718
    145  CB        -8.1640   -7.4330   36.6040 C.3    95  ILE95       0.0266
    146  CG1       -9.6410   -7.2350   36.9580 C.3    95  ILE95       0.0019
    147  CG2       -7.2240   -6.5950   37.4680 C.3    95  ILE95       0.0020
    148  CD1      -10.1770   -5.8650   36.5980 C.3    95  ILE95       0.0001
    149  N         -6.0220   -8.5250   34.4650 N.am   96  THR96      -0.1939
    150  CA        -4.5850   -8.9160   34.2860 C.3    96  THR96       0.2028
    151  C         -3.7800   -7.9930   33.3620 C.2    96  THR96       0.2642
    152  O         -4.1880   -7.6560   32.2330 O.2    96  THR96      -0.2714
    153  CB        -4.5430  -10.3150   33.6840 C.3    96  THR96       0.1808
    154  OG1       -5.4460  -11.0940   34.4610 O.3    96  THR96      -0.2208
    155  CG2       -3.1840  -10.9500   33.6630 C.3    96  THR96       0.0379
    156  N         -2.5790   -7.6340   33.8360 N.am   97  GLU97      -0.1976
    157  CA        -1.5850   -6.9090   33.0660 C.3    97  GLU97       0.1602
    158  C         -0.5950   -7.9360   32.5150 C.2    97  GLU97       0.2287
    159  O         -0.3460   -8.9730   33.1240 O.2    97  GLU97      -0.2864
    160  CB        -0.8700   -5.8400   33.9150 C.3    97  GLU97       0.0415
    161  CG         0.1160   -4.9880   33.1300 C.3    97  GLU97       0.1163
    162  CD         0.5920   -3.7400   33.8660 C.2    97  GLU97       0.3649
    163  OE1        0.6810   -3.8420   35.1080 O.co2  97  GLU97      -0.2457
    164  OE2        0.9130   -2.6880   33.1920 O.co2  97  GLU97      -0.2457
    165  N         -5.6220   -5.3150   31.4370 N.3   122  ASN122     -0.1225
    166  CA        -4.7850   -4.2830   32.1120 C.3   122  ASN122      0.1785
    167  C         -5.6480   -3.0880   32.5350 C.2   122  ASN122      0.2597
    168  O         -5.3850   -1.9330   32.1750 O.2   122  ASN122     -0.2718
    169  CB        -3.6630   -3.8520   31.1760 C.3   122  ASN122      0.1169
    170  CG        -2.6360   -3.0170   31.8990 C.2   122  ASN122      0.2627
    171  OD1       -2.6080   -3.0060   33.1330 O.2   122  ASN122     -0.2716
    172  ND2       -1.8060   -2.3400   31.1190 N.am  122  ASN122     -0.0877
    173  N         -6.7440   -3.3690   33.2550 N.am  123  CYS123     -0.1957
    174  CA        -7.7320   -2.3460   33.5390 C.3   123  CYS123      0.1828
    175  C         -8.2690   -2.5340   34.9470 C.2   123  CYS123      0.2467
    176  O         -8.1020   -3.5950   35.5340 O.2   123  CYS123     -0.2730
    177  CB        -8.8750   -2.3420   32.5310 C.3   123  CYS123      0.0996
    178  SG       -10.1610   -3.5650   32.8620 S.3   123  CYS123     -0.0797
    179  N         -8.8160   -1.4750   35.5580 N.am  124  PRO124     -0.2726
    180  CA        -9.3630   -1.6080   36.9020 C.3   124  PRO124      0.1402
    181  C        -10.7840   -2.1770   36.9640 C.2   124  PRO124      0.2269
    182  O        -11.2520   -2.5300   38.0630 O.2   124  PRO124     -0.2865
    183  CB        -9.3190   -0.1620   37.3780 C.3   124  PRO124      0.0296
    184  CG        -9.6040    0.6330   36.1420 C.3   124  PRO124      0.0237
    185  CD        -8.7970   -0.0810   35.0670 C.3   124  PRO124      0.0939
    186  N        -11.0840   -3.7140   40.6540 N.3   136  ILE136     -0.1245
    187  CA       -10.1810   -3.4800   41.7830 C.3   136  ILE136      0.1561
    188  C        -10.3210   -2.0500   42.3420 C.2   136  ILE136      0.2260
    189  O         -9.5080   -1.6770   43.2180 O.2   136  ILE136     -0.2867
    190  CB        -8.7340   -3.7690   41.3430 C.3   136  ILE136      0.0252
    191  CG1       -8.3050   -2.8100   40.2300 C.3   136  ILE136      0.0019
    192  CG2       -8.6250   -5.2130   40.8880 C.3   136  ILE136      0.0019
    193  CD1       -6.8450   -2.8430   39.9540 C.3   136  ILE136      0.0001
    194  N         -6.6290    4.4540   32.1840 N.3   153  SER153     -0.1202
    195  CA        -5.7330    4.2890   33.3570 C.3   153  SER153      0.2020
    196  C         -6.4670    3.8030   34.6250 C.2   153  SER153      0.2619
    197  O         -7.7100    3.6720   34.6930 O.2   153  SER153     -0.2717
    198  CB        -4.9650    5.5630   33.6230 C.3   153  SER153      0.2103
    199  OG        -5.8640    6.6350   33.6130 O.3   153  SER153     -0.2182
    200  N         -5.6800    3.5120   35.6610 N.am  154  GLY154     -0.1956
    201  CA        -6.2350    3.0000   36.9250 C.3   154  GLY154      0.1869
    202  C         -6.4390    4.1210   37.9140 C.2   154  GLY154      0.2309
    203  O         -7.5100    4.7930   37.9710 O.2   154  GLY154     -0.2863
    204  N         -9.3360    7.3110   39.3380 N.3   158  TYR158     -0.1241
    205  CA        -9.8080    7.5370   40.7120 C.3   158  TYR158      0.1605
    206  C         -9.7320    9.0390   41.0500 C.2   158  TYR158      0.2264
    207  O        -10.5140    9.5280   41.8220 O.2   158  TYR158     -0.2867
    208  CB        -8.9980    6.7160   41.7150 C.3   158  TYR158      0.0534
    209  CG        -8.9310    5.2350   41.4450 C.ar  158  TYR158     -0.0201
    210  CD1       -9.8320    4.5830   40.6150 C.ar  158  TYR158     -0.0009
    211  CD2       -7.9190    4.4800   42.0000 C.ar  158  TYR158     -0.0009
    212  CE1       -9.7220    3.2270   40.3470 C.ar  158  TYR158      0.0417
    213  CE2       -7.8040    3.1210   41.7570 C.ar  158  TYR158      0.0417
    214  CZ        -8.7060    2.4880   40.9260 C.ar  158  TYR158      0.1957
    215  OH        -8.5460    1.1440   40.6680 O.3   158  TYR158     -0.2866
@<TRIPOS>BOND
     1   132   133    1
     2   118   119    1
     3   119   122    1
     4   119   120    1
     5   124   123   ar
     6   121   120    2
     7   133   134    1
     8   133   136    1
     9   122   123    1
    10   135   134    2
    11   120   126   am
    12   123   125   ar
    13   136   137    1
    14   126   127    1
    15   128   129    2
    16   128   127    1
    17   137   138    1
    18   105   104    2
    19   127   130    1
    20   110   109    2
    21   109   108    1
    22   108   107    1
    23   108   111    1
    24   104   103    1
    25   138   139   ar
    26   138   140   ar
    27   172   170   am
    28   169   170    1
    29   169   166    1
    30   130   131    1
    31   165   166    1
    32   106   103    1
    33   103   102    1
    34   170   171    2
    35   113   115   ar
    36   113   112   ar
    37   166   167    1
    38   168   167    2
    39   194   195    1
    40   111   112    1
    41   152   151    2
    42   115   117   ar
    43   158   157    1
    44   158   159    2
    45     9     7   am
    46   177   178    1
    47   177   174    1
    48   167   173   am
    49   112   114   ar
    50     8     7    2
    51    98    97    2
    52   157   156    1
    53   157   160    1
    54   161   162    1
    55   161   160    1
    56   164   162   ar
    57   102    97   am
    58   173   174    1
    59   195   198    1
    60   195   196    1
    61   151   156   am
    62   151   150    1
    63     7     6    1
    64   117   116   ar
    65   174   175    1
    66   199   198    1
    67    94    92    1
    68   155   153    1
    69   153   150    1
    70   153   154    1
    71    97    96    1
    72   114   116   ar
    73   162   163   ar
    74   150   149    1
    75   141   142    1
    76   149   143   am
    77   196   197    2
    78   196   200   am
    79   144   143    2
    80   143   142    1
    81     6     5    1
    82    91    90    2
    83   175   176    2
    84   175   179   am
    85    92    93    1
    86    92    89    1
    87   185   179    1
    88   185   184    1
    89   142   145    1
    90    96    95    1
    91    96    99    1
    92     5     2    1
    93    90    95   am
    94    90    89    1
    95   179   180    1
    96   200   201    1
    97    65    64    1
    98    65    66    1
    99    95   101    1
   100    99   100    1
   101    89    88    1
   102   184   183    1
   103    64    61    1
   104    51    50    1
   105    88    78   am
   106    52    50    1
   107   148   146    1
   108   145   146    1
   109   145   147    1
   110   101   100    1
   111    66    60    1
   112   180   181    1
   113   180   183    1
   114   201   202    1
   115    76    77    1
   116    50    47    1
   117   181   182    2
   118     2     1    1
   119     2     3    1
   120    61    60    1
   121    61    62    1
   122    78    77    1
   123    78    79    2
   124    77    80    1
   125     3     4    2
   126     3    10   am
   127    60    55   am
   128   202   203    2
   129    10    11    1
   130    47    48    1
   131    47    46    1
   132    62    63    2
   133    49    48    2
   134    48    53   am
   135    55    54    1
   136    55    56    2
   137    80    81    1
   138    11    12    1
   139    53    54    1
   140   204   205    1
   141    54    57    1
   142    81    82   ar
   143    81    83   ar
   144    82    84   ar
   145    83    85   ar
   146   193   191    1
   147    84    86   ar
   148    85    86   ar
   149   191   190    1
   150    86    87    1
   151   212   210   ar
   152   212   214   ar
   153   210   209   ar
   154   186   187    1
   155   215   214    1
   156    12    13    2
   157   205   206    1
   158   205   208    1
   159    57    59    1
   160    57    58    1
   161   192   190    1
   162   214   213   ar
   163   206   207    2
   164   190   187    1
   165   209   208    1
   166   209   211   ar
   167    67    68    1
   168   213   211   ar
   169   187   188    1
   170   188   189    2
   171    69    68    1
   172    69    70    2
   173    38    39    1
   174    38    35    1
   175    68    71    1
   176    43    42    1
   177    43    44    1
   178    39    40    2
   179    39    41   am
   180    42    36   am
   181    71    72    1
   182    14    15    1
   183    19    18    1
   184    72    73    1
   185    36    35    1
   186    36    37    2
   187    21    22    1
   188    21    16   am
   189    35    34    1
   190    22    23    1
   191    73    74    1
   192    34    27   am
   193    44    45    2
   194    74    75    1
   195    18    15    1
   196    18    20    1
   197    15    16    1
   198    23    25   am
   199    23    24    2
   200    16    17    2
   201    25    26    1
   202    27    26    1
   203    27    28    2
   204    29    26    1
   205    29    30    1
   206    31    30    1
   207    31    32    1
   208    33    32    1
