@<TRIPOS>MOLECULE
tmp/6mghD00.pdb
 242 234 0 0 0
SMALL
GASTEIGER

@<TRIPOS>ATOM
      1  N        -10.0060   19.8460   19.9980 N.3    30  CYS30      -0.1235
      2  CA        -9.9730   18.4510   20.3010 C.3    30  CYS30       0.1677
      3  C         -9.7640   17.6140   19.0970 C.2    30  CYS30       0.2270
      4  O         -9.7820   18.1000   17.9440 O.2    30  CYS30      -0.2867
      5  CB       -11.2700   18.0800   21.1000 C.3    30  CYS30       0.0956
      6  SG       -12.7200   18.1980   20.0780 S.3    30  CYS30      -0.0801
      7  N        -11.3060   14.2020   17.3540 N.3    32  PHE32      -0.1241
      8  CA       -12.3730   13.2450   17.2750 C.3    32  PHE32       0.1605
      9  C        -11.9600   12.0690   16.4010 C.2    32  PHE32       0.2264
     10  O        -11.6780   12.2480   15.1790 O.2    32  PHE32      -0.2867
     11  CB       -13.6210   13.8780   16.7030 C.3    32  PHE32       0.0534
     12  CG       -14.8590   12.9820   16.7510 C.ar   32  PHE32      -0.0203
     13  CD1      -15.6010   12.8500   17.9410 C.ar   32  PHE32      -0.0042
     14  CD2      -15.2770   12.2920   15.6250 C.ar   32  PHE32      -0.0042
     15  CE1      -16.7280   11.9960   17.9870 C.ar   32  PHE32      -0.0003
     16  CE2      -16.4440   11.5140   15.6560 C.ar   32  PHE32      -0.0003
     17  CZ       -17.1570   11.3790   16.8490 C.ar   32  PHE32      -0.0000
     18  N        -14.3030   11.5710   21.1690 N.3    42  VAL42      -0.1245
     19  CA       -13.3290   12.5970   21.5030 C.3    42  VAL42       0.1561
     20  C        -12.1650   12.0260   22.3160 C.2    42  VAL42       0.2260
     21  O        -12.2740   11.8010   23.5170 O.2    42  VAL42      -0.2867
     22  CB       -13.9320   13.8210   22.1940 C.3    42  VAL42       0.0252
     23  CG1      -12.8710   14.8940   22.4640 C.3    42  VAL42       0.0019
     24  CG2      -15.0600   14.4340   21.3690 C.3    42  VAL42       0.0019
     25  N        -15.6380   17.9870   26.9140 N.3    54  ILE54      -0.1245
     26  CA       -16.2850   16.9270   26.1320 C.3    54  ILE54       0.1561
     27  C        -15.3520   15.7430   25.8920 C.2    54  ILE54       0.2260
     28  O        -15.6000   14.8760   25.0500 O.2    54  ILE54      -0.2867
     29  CB       -16.8700   17.4960   24.8480 C.3    54  ILE54       0.0252
     30  CG1      -15.7210   17.9120   23.8950 C.3    54  ILE54       0.0019
     31  CG2      -17.7980   18.6630   25.1960 C.3    54  ILE54       0.0019
     32  CD1      -16.1850   18.4530   22.6180 C.3    54  ILE54       0.0001
     33  N        -20.0010   10.5320   19.5300 N.3    59  VAL59      -0.1231
     34  CA       -20.9850   11.0390   18.6210 C.3    59  VAL59       0.1692
     35  C        -21.2040    9.9900   17.5770 C.2    59  VAL59       0.2592
     36  O        -20.2620    9.4560   16.9830 O.2    59  VAL59      -0.2718
     37  CB       -20.5610   12.4170   17.9940 C.3    59  VAL59       0.0266
     38  CG1      -21.6680   13.0260   17.1480 C.3    59  VAL59       0.0020
     39  CG2      -20.1450   13.4180   19.0770 C.3    59  VAL59       0.0020
     40  N        -22.4810    9.7270   17.3300 N.am   60  ARG60      -0.1966
     41  CA       -22.9210    8.8570   16.2920 C.3    60  ARG60       0.1729
     42  C        -23.5700    9.7980   15.3100 C.2    60  ARG60       0.2616
     43  O        -24.8080   10.0240   15.3240 O.2    60  ARG60      -0.2715
     44  CB       -23.9170    7.8280   16.8430 C.3    60  ARG60       0.0348
     45  CG       -23.3050    6.9550   17.9060 C.3    60  ARG60       0.0492
     46  CD       -24.2660    5.8450   18.3610 C.3    60  ARG60       0.2205
     47  NE       -24.4310    4.8400   17.3030 N.pl3  60  ARG60      -0.0865
     48  CZ       -23.5270    3.9080   16.9920 C.cat  60  ARG60       0.5346
     49  NH1      -22.3580    3.8120   17.6350 N.pl3  60  ARG60       0.1354
     50  NH2      -23.7840    3.0690   16.0100 N.pl3  60  ARG60       0.1354
     51  N        -22.7250   10.3710   14.4510 N.am   61  ASP61      -0.1957
     52  CA       -23.1560   11.4670   13.5980 C.3    61  ASP61       0.1840
     53  C        -23.7280   10.9330   12.3040 C.2    61  ASP61       0.2622
     54  O        -23.0520   10.2990   11.5430 O.2    61  ASP61      -0.2715
     55  CB       -22.0270   12.4440   13.3420 C.3    61  ASP61       0.1450
     56  CG       -22.4500   13.6000   12.5090 C.2    61  ASP61       0.3671
     57  OD1      -22.4220   13.5160   11.2780 O.co2  61  ASP61      -0.2456
     58  OD2      -22.7610   14.6280   13.0840 O.co2  61  ASP61      -0.2456
     59  N        -24.9710   11.2880   12.0090 N.am   62  ARG62      -0.1963
     60  CA       -25.6110   10.7490   10.8190 C.3    62  ARG62       0.1729
     61  C        -24.8780   11.1010    9.5330 C.2    62  ARG62       0.2616
     62  O        -24.8140   10.2940    8.6180 O.2    62  ARG62      -0.2715
     63  CB       -27.0370   11.2300   10.7060 C.3    62  ARG62       0.0348
     64  CG       -27.8370   10.2990    9.8150 C.3    62  ARG62       0.0492
     65  CD       -29.3090   10.6560    9.8300 C.3    62  ARG62       0.2205
     66  NE       -29.5170   11.9730    9.2200 N.pl3  62  ARG62      -0.0865
     67  CZ       -30.4220   12.8670    9.6210 C.cat  62  ARG62       0.5346
     68  NH1      -31.2470   12.6170   10.6520 N.pl3  62  ARG62       0.1354
     69  NH2      -30.5020   14.0480    8.9800 N.pl3  62  ARG62       0.1354
     70  N        -24.3700   12.3220    9.4360 N.am   63  TYR63      -0.1960
     71  CA       -23.7260   12.7380    8.1920 C.3    63  TYR63       0.1771
     72  C        -22.5180   11.8540    7.9060 C.2    63  TYR63       0.2619
     73  O        -22.3400   11.4100    6.7960 O.2    63  TYR63      -0.2715
     74  CB       -23.3130   14.2410    8.2290 C.3    63  TYR63       0.0574
     75  CG       -22.3650   14.6450    7.1210 C.ar   63  TYR63      -0.0198
     76  CD1      -22.8290   14.8520    5.8220 C.ar   63  TYR63      -0.0009
     77  CD2      -20.9930   14.7700    7.3590 C.ar   63  TYR63      -0.0009
     78  CE1      -21.9600   15.2150    4.7830 C.ar   63  TYR63       0.0417
     79  CE2      -20.1160   15.1040    6.3240 C.ar   63  TYR63       0.0417
     80  CZ       -20.6110   15.3170    5.0630 C.ar   63  TYR63       0.1957
     81  OH       -19.7580   15.6700    4.1000 O.3    63  TYR63      -0.2866
     82  N        -21.6870   11.6380    8.9240 N.am   64  PHE64      -0.1974
     83  CA       -20.4770   10.8460    8.7670 C.3    64  PHE64       0.1639
     84  C        -20.7870    9.3670    8.6160 C.2    64  PHE64       0.2290
     85  O        -20.0730    8.6700    7.8970 O.2    64  PHE64      -0.2864
     86  CB       -19.4780   11.0780    9.9120 C.3    64  PHE64       0.0560
     87  CG       -18.6990   12.3710    9.7560 C.ar   64  PHE64      -0.0200
     88  CD1      -17.6890   12.4740    8.7860 C.ar   64  PHE64      -0.0042
     89  CD2      -19.0240   13.5000   10.4850 C.ar   64  PHE64      -0.0042
     90  CE1      -17.0010   13.6610    8.5690 C.ar   64  PHE64      -0.0003
     91  CE2      -18.3490   14.6940   10.2690 C.ar   64  PHE64      -0.0003
     92  CZ       -17.3140   14.7660    9.3180 C.ar   64  PHE64      -0.0000
     93  N        -15.1520   14.4870    3.2510 N.3    72  TYR72      -0.1241
     94  CA       -14.0260   14.8390    4.1120 C.3    72  TYR72       0.1605
     95  C        -12.7140   14.1620    3.7090 C.2    72  TYR72       0.2264
     96  O        -11.6760   14.5900    4.1080 O.2    72  TYR72      -0.2867
     97  CB       -14.3870   14.5760    5.6000 C.3    72  TYR72       0.0534
     98  CG       -15.1180   15.7550    6.2240 C.ar   72  TYR72      -0.0201
     99  CD1      -16.3460   16.2340    5.6720 C.ar   72  TYR72      -0.0009
    100  CD2      -14.5260   16.4940    7.2670 C.ar   72  TYR72      -0.0009
    101  CE1      -16.9750   17.3630    6.1930 C.ar   72  TYR72       0.0417
    102  CE2      -15.1530   17.6280    7.8010 C.ar   72  TYR72       0.0417
    103  CZ       -16.3850   18.0560    7.2540 C.ar   72  TYR72       0.1957
    104  OH       -16.9680   19.1460    7.8070 O.3    72  TYR72      -0.2866
    105  N        -13.2570   18.4130    1.9300 N.3    76  ARG76      -0.1231
    106  CA       -14.2820   19.1650    2.6220 C.3    76  ARG76       0.1694
    107  C        -13.9410   19.3850    4.0760 C.2    76  ARG76       0.2592
    108  O        -13.4340   18.4920    4.7510 O.2    76  ARG76      -0.2718
    109  CB       -15.6270   18.4800    2.4760 C.3    76  ARG76       0.0321
    110  CG       -16.7440   19.3660    2.9160 C.3    76  ARG76       0.0489
    111  CD       -18.0680   18.8170    2.5260 C.3    76  ARG76       0.2205
    112  NE       -19.1040   19.7790    2.8930 N.pl3  76  ARG76      -0.0865
    113  CZ       -20.4160   19.5390    2.8230 C.cat  76  ARG76       0.5346
    114  NH1      -20.8850   18.3860    2.3750 N.pl3  76  ARG76       0.1354
    115  NH2      -21.2650   20.4940    3.1790 N.pl3  76  ARG76       0.1354
    116  N        -14.2140   20.5900    4.5550 N.am   77  TYR77      -0.1962
    117  CA       -14.1550   20.8930    5.9630 C.3    77  TYR77       0.1771
    118  C        -15.2790   21.8470    6.3640 C.2    77  TYR77       0.2619
    119  O        -16.0060   22.3470    5.5070 O.2    77  TYR77      -0.2715
    120  CB       -12.8070   21.5000    6.3280 C.3    77  TYR77       0.0574
    121  CG       -12.5440   22.7940    5.6730 C.ar   77  TYR77      -0.0198
    122  CD1      -11.9920   22.8630    4.3530 C.ar   77  TYR77      -0.0009
    123  CD2      -12.6970   23.9510    6.3650 C.ar   77  TYR77      -0.0009
    124  CE1      -11.7070   24.0890    3.7650 C.ar   77  TYR77       0.0417
    125  CE2      -12.4550   25.1720    5.7540 C.ar   77  TYR77       0.0417
    126  CZ       -11.9410   25.2150    4.4610 C.ar   77  TYR77       0.1957
    127  OH       -11.7600   26.4090    3.9240 O.3    77  TYR77      -0.2866
    128  N        -15.4150   22.0710    7.6540 N.am   78  GLN78      -0.1977
    129  CA       -16.4830   22.9200    8.1930 C.3    78  GLN78       0.1601
    130  C        -15.8780   24.1300    8.8270 C.2    78  GLN78       0.2287
    131  O        -14.9800   24.0050    9.6540 O.2    78  GLN78      -0.2864
    132  CB       -17.3170   22.1770    9.2530 C.3    78  GLN78       0.0394
    133  CG       -18.3900   23.1120    9.7960 C.3    78  GLN78       0.0908
    134  CD       -19.5660   22.4060   10.3860 C.2    78  GLN78       0.2608
    135  OE1      -19.4740   21.8040   11.4450 O.2    78  GLN78      -0.2717
    136  NE2      -20.6740   22.4870    9.7040 N.am   78  GLN78      -0.0878
    137  N        -26.9950   27.6650    8.4650 N.3    87  ASN87      -0.1225
    138  CA       -28.1160   26.8590    8.0170 C.3    87  ASN87       0.1785
    139  C        -27.8360   25.3990    8.4260 C.2    87  ASN87       0.2597
    140  O        -27.4590   24.5910    7.5990 O.2    87  ASN87      -0.2718
    141  CB       -28.3080   27.1140    6.5020 C.3    87  ASN87       0.1169
    142  CG       -29.0300   26.0020    5.7680 C.2    87  ASN87       0.2627
    143  OD1      -28.6240   25.6520    4.6560 O.2    87  ASN87      -0.2716
    144  ND2      -30.0970   25.4460    6.3650 N.am   87  ASN87      -0.0877
    145  N        -28.0000   25.0880    9.7200 N.am   88  LEU88      -0.1966
    146  CA       -27.7620   23.7250   10.2620 C.3    88  LEU88       0.1728
    147  C        -29.0590   22.9670   10.4780 C.2    88  LEU88       0.2616
    148  O        -30.0870   23.5660   10.7740 O.2    88  LEU88      -0.2715
    149  CB       -27.0290   23.7470   11.6170 C.3    88  LEU88       0.0311
    150  CG       -25.7250   24.5410   11.7870 C.3    88  LEU88       0.0022
    151  CD1      -25.1600   24.4280   13.1960 C.3    88  LEU88       0.0001
    152  CD2      -24.6990   24.0630   10.7780 C.3    88  LEU88       0.0001
    153  N        -28.9640   21.6410   10.3720 N.am   89  THR89      -0.1951
    154  CA       -29.9860   20.7250   10.8110 C.3    89  THR89       0.1897
    155  C        -30.0930   20.7910   12.3290 C.2    89  THR89       0.2313
    156  O        -29.1160   20.8090   13.0800 O.2    89  THR89      -0.2863
    157  CB       -29.6990   19.2770   10.3740 C.3    89  THR89       0.1794
    158  OG1      -29.8010   19.1950    8.9590 O.3    89  THR89      -0.2208
    159  CG2      -30.6940   18.3020   10.9550 C.3    89  THR89       0.0378
    160  N        -30.9670   18.8160   14.8060 N.3    91  CYS91      -0.1221
    161  CA       -30.2650   17.8940   15.7190 C.3    91  CYS91       0.1808
    162  C        -28.7510   18.1980   15.8200 C.2    91  CYS91       0.2601
    163  O        -28.2020   18.1190   16.9070 O.2    91  CYS91      -0.2717
    164  CB       -30.4770   16.4000   15.3470 C.3    91  CYS91       0.0970
    165  SG       -29.7560   15.8650   13.7930 S.3    91  CYS91      -0.0800
    166  N        -28.1000   18.5190   14.6920 N.am   92  TYR92      -0.1976
    167  CA       -26.6510   18.8540   14.7370 C.3    92  TYR92       0.1639
    168  C        -26.4350   20.1570   15.5310 C.2    92  TYR92       0.2290
    169  O        -25.6240   20.2180   16.4630 O.2    92  TYR92      -0.2864
    170  CB       -26.0470   18.9400   13.3500 C.3    92  TYR92       0.0560
    171  CG       -24.5490   19.2780   13.3760 C.ar   92  TYR92      -0.0198
    172  CD1      -23.6630   18.6310   14.2600 C.ar   92  TYR92      -0.0009
    173  CD2      -24.0160   20.2330   12.5050 C.ar   92  TYR92      -0.0009
    174  CE1      -22.2800   18.9600   14.2750 C.ar   92  TYR92       0.0417
    175  CE2      -22.6580   20.5700   12.5390 C.ar   92  TYR92       0.0417
    176  CZ       -21.7960   19.9210   13.3950 C.ar   92  TYR92       0.1957
    177  OH       -20.4540   20.2980   13.4240 O.3    92  TYR92      -0.2866
    178  N        -26.6940   19.2640   19.1690 N.3    95  LEU95      -0.1231
    179  CA       -25.4090   18.6700   19.6060 C.3    95  LEU95       0.1693
    180  C        -24.3580   19.7780   19.9060 C.2    95  LEU95       0.2591
    181  O        -23.7470   19.8440   20.9560 O.2    95  LEU95      -0.2718
    182  CB       -24.8990   17.6950   18.5270 C.3    95  LEU95       0.0284
    183  CG       -23.5410   17.0640   18.7570 C.3    95  LEU95       0.0019
    184  CD1      -23.5330   16.0530   19.9110 C.3    95  LEU95       0.0001
    185  CD2      -23.0580   16.4540   17.4430 C.3    95  LEU95       0.0001
    186  N        -24.1590   20.6750   18.9610 N.am   96  LEU96      -0.1980
    187  CA       -23.1190   21.7150   19.1250 C.3    96  LEU96       0.1596
    188  C        -23.4650   22.6160   20.2960 C.2    96  LEU96       0.2287
    189  O        -22.6040   22.9730   21.1190 O.2    96  LEU96      -0.2864
    190  CB       -23.0040   22.5240   17.8400 C.3    96  LEU96       0.0297
    191  CG       -22.3240   21.8510   16.6390 C.3    96  LEU96       0.0022
    192  CD1      -22.3930   22.8330   15.4870 C.3    96  LEU96       0.0001
    193  CD2      -20.8820   21.4240   16.9300 C.3    96  LEU96       0.0001
    194  N        -22.2630   21.2510   23.5240 N.3    99  PHE99      -0.1241
    195  CA       -20.8250   21.5030   23.7210 C.3    99  PHE99       0.1605
    196  C        -20.5210   22.9930   23.9590 C.2    99  PHE99       0.2264
    197  O        -19.3500   23.3770   24.0220 O.2    99  PHE99      -0.2867
    198  CB       -20.0520   21.0930   22.4620 C.3    99  PHE99       0.0534
    199  CG       -20.1880   19.6510   22.0640 C.ar   99  PHE99      -0.0203
    200  CD1      -20.5580   18.6530   22.9760 C.ar   99  PHE99      -0.0042
    201  CD2      -19.9030   19.2890   20.7560 C.ar   99  PHE99      -0.0042
    202  CE1      -20.6190   17.3180   22.5770 C.ar   99  PHE99      -0.0003
    203  CE2      -19.9890   17.9530   20.3520 C.ar   99  PHE99      -0.0003
    204  CZ       -20.3570   16.9770   21.2570 C.ar   99  PHE99      -0.0000
    205  N        -17.1880   26.9640   14.9660 N.3   104  ILE104     -0.1245
    206  CA       -16.4920   25.7120   14.8070 C.3   104  ILE104      0.1561
    207  C        -15.6800   25.6720   13.4930 C.2   104  ILE104      0.2260
    208  O        -16.2200   25.9850   12.4150 O.2   104  ILE104     -0.2867
    209  CB       -17.4900   24.5510   14.8670 C.3   104  ILE104      0.0252
    210  CG1      -16.7760   23.2290   14.6370 C.3   104  ILE104      0.0019
    211  CG2      -18.5770   24.7720   13.8550 C.3   104  ILE104      0.0019
    212  CD1      -17.6650   22.0230   14.7260 C.3   104  ILE104      0.0001
    213  N        -13.6310   22.4830   11.7840 N.3   106  ALA106     -0.1245
    214  CA       -13.3440   21.0530   11.8620 C.3   106  ALA106      0.1562
    215  C        -12.6960   20.6130   10.5510 C.2   106  ALA106      0.2260
    216  O        -13.3410   20.7090    9.4910 O.2   106  ALA106     -0.2867
    217  CB       -14.6200   20.3020   12.0130 C.3   106  ALA106      0.0290
    218  N        -11.1880   13.8300   13.0980 N.3   118  LEU118     -0.1245
    219  CA       -11.2650   15.3030   12.8500 C.3   118  LEU118      0.1561
    220  C        -10.4210   16.0680   13.8770 C.2   118  LEU118      0.2260
    221  O        -10.2810   15.6630   15.0270 O.2   118  LEU118     -0.2867
    222  CB       -12.6980   15.8670   12.9070 C.3   118  LEU118      0.0270
    223  CG       -13.7650   15.0990   12.1460 C.3   118  LEU118      0.0019
    224  CD1      -15.1610   15.5850   12.5020 C.3   118  LEU118      0.0001
    225  CD2      -13.5440   15.2560   10.6690 C.3   118  LEU118      0.0001
    226  N        -10.5310   19.5620   15.5200 N.3   120  VAL120     -0.1245
    227  CA       -11.6700   20.4850   15.6590 C.3   120  VAL120      0.1561
    228  C        -11.3620   21.6360   16.6470 C.2   120  VAL120      0.2260
    229  O        -10.9270   21.3980   17.7420 O.2   120  VAL120     -0.2867
    230  CB       -12.8830   19.7170   16.1840 C.3   120  VAL120      0.0252
    231  CG1      -14.0870   20.6580   16.4090 C.3   120  VAL120      0.0019
    232  CG2      -13.1970   18.5480   15.2750 C.3   120  VAL120      0.0019
    233  N        -13.2100   24.8450   18.5670 N.3   122  HIS122     -0.1241
    234  CA       -14.4700   25.4750   18.9880 C.3   122  HIS122      0.1621
    235  C        -14.2310   26.8170   19.6870 C.2   122  HIS122      0.2264
    236  O        -13.4160   26.9420   20.5920 O.2   122  HIS122     -0.2867
    237  CB       -15.2360   24.6160   20.0160 C.3   122  HIS122      0.0745
    238  CG       -15.7940   23.3320   19.4700 C.ar  122  HIS122      0.0817
    239  ND1      -15.8340   22.1780   20.2070 N.ar  122  HIS122     -0.2268
    240  CD2      -16.2960   23.0060   18.2490 C.ar  122  HIS122      0.1154
    241  CE1      -16.3120   21.1860   19.4700 C.ar  122  HIS122      0.1986
    242  NE2      -16.6550   21.6790   18.2970 N.ar  122  HIS122     -0.2212
@<TRIPOS>BOND
     1   105   106    1
     2   114   113    1
     3   109   106    1
     4   109   110    1
     5   111   112    1
     6   111   110    1
     7   106   107    1
     8   113   112    2
     9   113   115    1
    10    93    94    1
    11    95    96    2
    12    95    94    1
    13   124   122   ar
    14   124   126   ar
    15   127   126    1
    16   107   116   am
    17   107   108    2
    18    81    80    1
    19    94    97    1
    20   122   121   ar
    21   126   125   ar
    22   116   117    1
    23   143   142    2
    24    78    80   ar
    25    78    76   ar
    26    80    79   ar
    27   119   118    2
    28    97    98    1
    29    99   101   ar
    30    99    98   ar
    31   121   120    1
    32   121   123   ar
    33   125   123   ar
    34   142   144   am
    35   142   141    1
    36    76    75   ar
    37   117   120    1
    38   117   118    1
    39   101   103   ar
    40    98   100   ar
    41    79    77   ar
    42   118   128   am
    43   141   138    1
    44    73    72    2
    45    75    77   ar
    46    75    74    1
    47   103   102   ar
    48   103   104    1
    49   100   102   ar
    50   140   139    2
    51   128   129    1
    52    85    84    2
    53    72    71    1
    54    72    82   am
    55   138   139    1
    56   138   137    1
    57    71    74    1
    58    71    70    1
    59   129   130    1
    60   129   132    1
    61   139   145   am
    62    90    88   ar
    63    90    92   ar
    64    84    83    1
    65    62    61    2
    66    83    82    1
    67    83    86    1
    68    88    87   ar
    69   130   131    2
    70   158   157    1
    71    69    67    1
    72    66    67    2
    73    66    65    1
    74   132   133    1
    75    92    91   ar
    76    70    61   am
    77   216   215    2
    78    61    60    1
    79    67    68    1
    80   136   134   am
    81   145   146    1
    82    87    86    1
    83    87    89   ar
    84   133   134    1
    85    64    65    1
    86    64    63    1
    87   146   147    1
    88   146   149    1
    89    91    89   ar
    90   153   147   am
    91   153   154    1
    92   157   154    1
    93   157   159    1
    94   134   135    2
    95   147   148    2
    96   215   214    1
    97   225   223    1
    98    63    60    1
    99   152   150    1
   100   154   155    1
   101    60    59    1
   102    57    56   ar
   103    54    53    2
   104   149   150    1
   105   213   214    1
   106   150   151    1
   107   214   217    1
   108    59    53   am
   109   223   224    1
   110   223   222    1
   111    53    52    1
   112   155   156    2
   113   208   207    2
   114   173   175   ar
   115   173   171   ar
   116    56    58   ar
   117    56    55    1
   118   175   176   ar
   119   219   222    1
   120   219   218    1
   121   219   220    1
   122    55    52    1
   123   170   171    1
   124   170   167    1
   125   171   172   ar
   126   176   177    1
   127   176   174   ar
   128   207   206    1
   129    52    51    1
   130   165   164    1
   131   211   209    1
   132   220   221    2
   133   172   174   ar
   134    51    42   am
   135   210   212    1
   136   210   209    1
   137   166   167    1
   138   166   162   am
   139   167   168    1
   140   160   161    1
   141   206   209    1
   142   206   205    1
   143    10     9    2
   144   232   230    1
   145    42    43    2
   146    42    41    1
   147   164   161    1
   148   192   191    1
   149   226   227    1
   150   168   169    2
   151    14    16   ar
   152    14    12   ar
   153    16    17   ar
   154   227   230    1
   155   227   228    1
   156   161   162    1
   157   162   163    2
   158    50    48    1
   159   230   231    1
   160    41    44    1
   161    41    40    1
   162     9     8    1
   163   191   193    1
   164   191   190    1
   165   228   229    2
   166    11    12    1
   167    11     8    1
   168    12    13   ar
   169    44    45    1
   170    17    15   ar
   171    36    35    2
   172    48    47    2
   173    48    49    1
   174    38    37    1
   175     8     7    1
   176    47    46    1
   177    40    35   am
   178   185   183    1
   179    35    34    1
   180   190   187    1
   181    45    46    1
   182    13    15   ar
   183     4     3    2
   184    37    34    1
   185    37    39    1
   186   240   242   ar
   187   240   238   ar
   188   242   241   ar
   189   182   183    1
   190   182   179    1
   191   233   234    1
   192    34    33    1
   193   183   184    1
   194   186   187    1
   195   186   180   am
   196   234   235    1
   197   234   237    1
   198     3     2    1
   199   187   188    1
   200   178   179    1
   201   241   239   ar
   202   238   237    1
   203   238   239   ar
   204   179   180    1
   205   235   236    2
   206   180   181    2
   207     1     2    1
   208     6     5    1
   209   188   189    2
   210     2     5    1
   211   203   201   ar
   212   203   204   ar
   213   201   199   ar
   214    18    19    1
   215   204   202   ar
   216    24    22    1
   217    19    22    1
   218    19    20    1
   219   199   198    1
   220   199   200   ar
   221    22    23    1
   222    20    21    2
   223   198   195    1
   224   202   200   ar
   225    32    30    1
   226   194   195    1
   227   195   196    1
   228    30    29    1
   229   196   197    2
   230    29    31    1
   231    29    26    1
   232    28    27    2
   233    27    26    1
   234    26    25    1
