@<TRIPOS>MOLECULE
tmp/6mgkA01.pdb
 74 71 0 0 0
SMALL
GASTEIGER

@<TRIPOS>ATOM
      1  N         -4.4040   84.1130   31.5250 N.3   570  ALA570     -0.1231
      2  CA        -4.5780   83.9210   32.9670 C.3   570  ALA570      0.1694
      3  C         -3.7890   84.9440   33.7820 C.2   570  ALA570      0.2593
      4  O         -3.1530   84.6080   34.7820 O.2   570  ALA570     -0.2718
      5  CB        -4.2030   82.4950   33.3770 C.3   570  ALA570      0.0304
      6  N         -3.8310   86.2050   33.3530 N.am  571  GLY571     -0.1942
      7  CA        -3.1900   87.2820   34.0750 C.3   571  GLY571      0.2014
      8  C         -1.7550   87.5620   33.6870 C.2   571  GLY571      0.2639
      9  O         -1.2010   88.5780   34.1270 O.2   571  GLY571     -0.2714
     10  N         -1.1340   86.7080   32.8800 N.am  572  THR572     -0.1950
     11  CA         0.2600   86.8680   32.4890 C.3   572  THR572      0.1897
     12  C          0.3420   87.3570   31.0500 C.2   572  THR572      0.2313
     13  O         -0.2800   86.7770   30.1540 O.2   572  THR572     -0.2863
     14  CB         1.0300   85.5550   32.6410 C.3   572  THR572      0.1794
     15  OG1        0.9650   85.1180   34.0040 O.3   572  THR572     -0.2208
     16  CG2        2.4870   85.7510   32.2530 C.3   572  THR572      0.0378
     17  N          7.3110   85.5780   29.2480 N.3   585  ALA585     -0.1231
     18  CA         6.4340   86.4050   30.0620 C.3   585  ALA585      0.1694
     19  C          7.1230   87.7090   30.4430 C.2   585  ALA585      0.2593
     20  O          8.3320   87.7450   30.6850 O.2   585  ALA585     -0.2718
     21  CB         6.0160   85.6500   31.3210 C.3   585  ALA585      0.0304
     22  N          6.3460   88.7850   30.4880 N.am  586  THR586     -0.1939
     23  CA         6.8110   90.0620   31.0050 C.3   586  THR586      0.2028
     24  C          6.3420   90.2360   32.4450 C.2   586  THR586      0.2643
     25  O          5.5470   89.4530   32.9700 O.2   586  THR586     -0.2714
     26  CB         6.3140   91.2240   30.1380 C.3   586  THR586      0.1808
     27  OG1        4.9420   91.5060   30.4470 O.3   586  THR586     -0.2208
     28  CG2        6.4370   90.8800   28.6630 C.3   586  THR586      0.0379
     29  N          6.8460   91.2850   33.0850 N.am  587  GLY587     -0.1939
     30  CA         6.5270   91.5710   34.4650 C.3   587  GLY587      0.2014
     31  C          5.2670   92.3760   34.6890 C.2   587  GLY587      0.2639
     32  O          5.0000   92.7640   35.8310 O.2   587  GLY587     -0.2714
     33  N          4.4910   92.6450   33.6370 N.am  588  ALA588     -0.1963
     34  CA         3.2430   93.3840   33.7770 C.3   588  ALA588      0.1728
     35  C          2.3640   92.7460   34.8430 C.2   588  ALA588      0.2617
     36  O          2.1120   91.5390   34.8180 O.2   588  ALA588     -0.2715
     37  CB         2.5060   93.4280   32.4370 C.3   588  ALA588      0.0334
     38  N          1.9090   93.5620   35.7890 N.am  589  SER589     -0.1936
     39  CA         1.2150   93.0740   36.9680 C.3   589  SER589      0.2055
     40  C         -0.1770   93.6840   37.0660 C.2   589  SER589      0.2644
     41  O         -0.4670   94.7300   36.4790 O.2   589  SER589     -0.2714
     42  CB         2.0110   93.3870   38.2410 C.3   589  SER589      0.2130
     43  OG         2.4160   94.7450   38.2660 O.3   589  SER589     -0.2179
     44  N         -1.0380   93.0100   37.8270 N.am  590  GLY590     -0.1939
     45  CA        -2.3860   93.4780   38.0670 C.3   590  GLY590      0.2014
     46  C         -3.4000   93.1110   37.0080 C.2   590  GLY590      0.2638
     47  O         -4.5790   93.4560   37.1630 O.2   590  GLY590     -0.2714
     48  N         -2.9890   92.4310   35.9430 N.am  591  PHE591     -0.1973
     49  CA        -3.9280   92.0630   34.8960 C.3   591  PHE591      0.1639
     50  C         -4.9160   91.0230   35.4170 C.2   591  PHE591      0.2290
     51  O         -4.5350   90.1290   36.1790 O.2   591  PHE591     -0.2864
     52  CB        -3.1940   91.5090   33.6770 C.3   591  PHE591      0.0560
     53  CG        -2.6990   92.5650   32.7390 C.ar  591  PHE591     -0.0200
     54  CD1       -3.4760   93.6750   32.4530 C.ar  591  PHE591     -0.0042
     55  CD2       -1.4570   92.4480   32.1400 C.ar  591  PHE591     -0.0042
     56  CE1       -3.0210   94.6500   31.5870 C.ar  591  PHE591     -0.0003
     57  CE2       -0.9950   93.4170   31.2720 C.ar  591  PHE591     -0.0003
     58  CZ        -1.7780   94.5210   30.9950 C.ar  591  PHE591     -0.0000
     59  N         -7.0670   87.7590   35.8700 N.3   593  THR593     -0.1218
     60  CA        -7.1770   86.3650   35.4620 C.3   593  THR593      0.1862
     61  C         -8.6710   86.0950   35.3460 C.2   593  THR593      0.2287
     62  O         -9.3360   85.8110   36.3440 O.2   593  THR593     -0.2866
     63  CB        -6.5200   85.4230   36.4650 C.3   593  THR593      0.1770
     64  OG1       -7.4780   85.0460   37.4660 O.3   593  THR593     -0.2211
     65  CG2       -5.3430   86.0950   37.1420 C.3   593  THR593      0.0375
     66  N         -9.9530   93.7990   39.1860 N.3   628  LYS628     -0.1245
     67  CA        -8.9630   94.0520   38.1410 C.3   628  LYS628      0.1561
     68  C         -9.7670   94.2500   36.8620 C.2   628  LYS628      0.2260
     69  O        -10.1790   93.2760   36.2270 O.2   628  LYS628     -0.2867
     70  CB        -7.9650   92.9060   38.0230 C.3   628  LYS628      0.0271
     71  CG        -7.1650   92.6690   39.2910 C.3   628  LYS628      0.0035
     72  CD        -6.4870   91.3120   39.2820 C.3   628  LYS628      0.0206
     73  CE        -5.5150   91.1850   40.4440 C.3   628  LYS628      0.1093
     74  NZ        -4.9210   89.8240   40.5350 N.3   628  LYS628     -0.1314
@<TRIPOS>BOND
     1    28    26    1
     2    17    18    1
     3    18    19    1
     4    18    21    1
     5    26    27    1
     6    26    23    1
     7    13    12    2
     8    19    22   am
     9    19    20    2
    10    22    23    1
    11    58    57   ar
    12    58    56   ar
    13    23    24    1
    14    12    11    1
    15    57    55   ar
    16     1     2    1
    17    56    54   ar
    18    55    53   ar
    19    16    14    1
    20    37    34    1
    21    24    25    2
    22    24    29   am
    23    54    53   ar
    24    11    14    1
    25    11    10    1
    26    14    15    1
    27    53    52    1
    28    10     8   am
    29     2     5    1
    30     2     3    1
    31    29    30    1
    32     6     3   am
    33     6     7    1
    34    33    34    1
    35    33    31   am
    36    52    49    1
    37     8     7    1
    38     8     9    2
    39    34    35    1
    40     3     4    2
    41    30    31    1
    42    31    32    2
    43    36    35    2
    44    35    38   am
    45    49    50    1
    46    49    48    1
    47    61    60    1
    48    61    62    2
    49    50    51    2
    50    60    59    1
    51    60    63    1
    52    38    39    1
    53    48    46   am
    54    69    68    2
    55    63    65    1
    56    63    64    1
    57    41    40    2
    58    68    67    1
    59    39    40    1
    60    39    42    1
    61    46    47    2
    62    46    45    1
    63    40    44   am
    64    44    45    1
    65    70    67    1
    66    70    71    1
    67    67    66    1
    68    42    43    1
    69    72    71    1
    70    72    73    1
    71    73    74    1
