@<TRIPOS>MOLECULE
tmp/6mglA00.pdb
 74 69 0 0 0
SMALL
GASTEIGER

@<TRIPOS>ATOM
      1  N        -28.1250  -34.6210   21.2030 N.3   479  SER479     -0.1217
      2  CA       -29.2110  -34.1180   20.3580 C.3   479  SER479      0.1889
      3  C        -28.6970  -32.8870   19.6390 C.2   479  SER479      0.2288
      4  O        -29.0690  -31.7540   19.9660 O.2   479  SER479     -0.2866
      5  CB       -30.4540  -33.7810   21.1820 C.3   479  SER479      0.2089
      6  OG       -31.1570  -34.9440   21.5410 O.3   479  SER479     -0.2183
      7  N        -30.0820  -29.3290   18.7980 N.3   482  TYR482     -0.1241
      8  CA       -30.2620  -28.3150   19.8220 C.3   482  TYR482      0.1605
      9  C        -28.9400  -27.6000   20.0390 C.2   482  TYR482      0.2264
     10  O        -27.9430  -28.2240   20.4210 O.2   482  TYR482     -0.2867
     11  CB       -30.7470  -28.9500   21.1220 C.3   482  TYR482      0.0534
     12  CG       -31.1960  -27.9380   22.1350 C.ar  482  TYR482     -0.0201
     13  CD1      -32.4270  -27.2960   22.0110 C.ar  482  TYR482     -0.0009
     14  CD2      -30.3930  -27.6180   23.2170 C.ar  482  TYR482     -0.0009
     15  CE1      -32.8400  -26.3500   22.9430 C.ar  482  TYR482      0.0417
     16  CE2      -30.7950  -26.6750   24.1620 C.ar  482  TYR482      0.0417
     17  CZ       -32.0200  -26.0640   24.0240 C.ar  482  TYR482      0.1957
     18  OH       -32.3960  -25.1340   24.9690 O.3   482  TYR482     -0.2866
     19  N        -33.5050  -25.3040   17.5440 N.3   504  ASN504     -0.1240
     20  CA       -33.9160  -26.7000   17.5940 C.3   504  ASN504      0.1653
     21  C        -33.7620  -27.4030   16.2570 C.2   504  ASN504      0.2266
     22  O        -34.1770  -28.5590   16.1300 O.2   504  ASN504     -0.2867
     23  CB       -35.3720  -26.8130   18.0620 C.3   504  ASN504      0.1155
     24  CG       -35.5350  -26.5210   19.5370 C.2   504  ASN504      0.2627
     25  OD1      -35.1420  -27.3210   20.3910 O.2   504  ASN504     -0.2716
     26  ND2      -36.1300  -25.3750   19.8480 N.am  504  ASN504     -0.0877
     27  N        -27.7680  -33.6500   26.8920 N.3   535  SER535     -0.1202
     28  CA       -29.0870  -33.9420   26.3490 C.3   535  SER535      0.2020
     29  C        -29.8290  -32.6950   25.8970 C.2   535  SER535      0.2619
     30  O        -30.9120  -32.8090   25.3030 O.2   535  SER535     -0.2717
     31  CB       -29.9390  -34.6460   27.3970 C.3   535  SER535      0.2103
     32  OG       -30.1890  -33.7070   28.4260 O.3   535  SER535     -0.2182
     33  N        -29.2910  -31.5150   26.1760 N.am  536  GLY536     -0.1942
     34  CA       -29.9980  -30.2860   25.8980 C.3   536  GLY536      0.2014
     35  C        -31.0050  -29.8910   26.9550 C.2   536  GLY536      0.2638
     36  O        -31.7200  -28.9030   26.7590 O.2   536  GLY536     -0.2714
     37  N        -31.0920  -30.6170   28.0680 N.am  537  ASN537     -0.1972
     38  CA       -32.0800  -30.2590   29.0770 C.3   537  ASN537      0.1688
     39  C        -31.6410  -29.1210   29.9820 C.2   537  ASN537      0.2292
     40  O        -32.3970  -28.7650   30.8960 O.2   537  ASN537     -0.2864
     41  CB       -32.4730  -31.4850   29.9190 C.3   537  ASN537      0.1181
     42  CG       -31.3950  -31.9220   30.9180 C.2   537  ASN537      0.2629
     43  OD1      -30.2020  -31.5870   30.7990 O.2   537  ASN537     -0.2716
     44  ND2      -31.8210  -32.7130   31.9050 N.am  537  ASN537     -0.0877
     45  N        -32.8160  -24.5600   33.4310 N.3   552  LYS552     -0.1231
     46  CA       -33.4360  -25.8400   33.1240 C.3   552  LYS552      0.1693
     47  C        -34.8280  -25.6510   32.5460 C.2   552  LYS552      0.2593
     48  O        -35.5790  -26.6200   32.4400 O.2   552  LYS552     -0.2718
     49  CB       -33.4850  -26.7120   34.3850 C.3   552  LYS552      0.0285
     50  CG       -32.1020  -27.1800   34.8530 C.3   552  LYS552      0.0035
     51  CD       -32.0730  -27.6320   36.3200 C.3   552  LYS552      0.0206
     52  CE       -30.6150  -27.7910   36.8010 C.3   552  LYS552      0.1093
     53  NZ       -30.4490  -28.3930   38.1590 N.3   552  LYS552     -0.1314
     54  N        -35.1760  -24.4210   32.1650 N.am  553  THR553     -0.1939
     55  CA       -36.5000  -24.0330   31.6900 C.3   553  THR553      0.2028
     56  C        -36.4170  -23.4020   30.3030 C.2   553  THR553      0.2642
     57  O        -37.2230  -22.5300   29.9650 O.2   553  THR553     -0.2714
     58  CB       -37.1490  -23.0600   32.6750 C.3   553  THR553      0.1808
     59  OG1      -36.3010  -21.9060   32.8160 O.3   553  THR553     -0.2208
     60  CG2      -37.3480  -23.7180   34.0530 C.3   553  THR553      0.0379
     61  N        -35.4270  -23.8050   29.5050 N.am  554  SER554     -0.1949
     62  CA       -35.2450  -23.2790   28.1550 C.3   554  SER554      0.1924
     63  C        -35.1190  -21.7630   28.1520 C.2   554  SER554      0.2314
     64  O        -35.6040  -21.0920   27.2350 O.2   554  SER554     -0.2863
     65  CB       -36.3920  -23.7030   27.2290 C.3   554  SER554      0.2116
     66  OG       -36.4160  -25.1040   27.0620 O.3   554  SER554     -0.2180
     67  N        -36.6340  -19.6810   30.1420 N.3   556  ASN556     -0.1240
     68  CA       -37.7640  -18.9870   30.7560 C.3   556  ASN556      0.1653
     69  C        -37.3840  -18.3860   32.1060 C.2   556  ASN556      0.2266
     70  O        -38.0400  -17.4500   32.5800 O.2   556  ASN556     -0.2867
     71  CB       -38.9550  -19.9330   30.9580 C.3   556  ASN556      0.1155
     72  CG       -39.7720  -20.1400   29.6950 C.2   556  ASN556      0.2627
     73  OD1      -39.8320  -19.2740   28.8210 O.2   556  ASN556     -0.2716
     74  ND2      -40.4150  -21.2970   29.6010 N.am  556  ASN556     -0.0877
@<TRIPOS>BOND
     1    22    21    2
     2    21    20    1
     3    19    20    1
     4    20    23    1
     5    23    24    1
     6     7     8    1
     7    24    26   am
     8    24    25    2
     9     3     4    2
    10     3     2    1
    11     8     9    1
    12     8    11    1
    13     9    10    2
    14     2     5    1
    15     2     1    1
    16    11    12    1
    17     5     6    1
    18    13    12   ar
    19    13    15   ar
    20    12    14   ar
    21    15    17   ar
    22    14    16   ar
    23    17    16   ar
    24    17    18    1
    25    30    29    2
    26    29    33   am
    27    29    28    1
    28    34    33    1
    29    34    35    1
    30    28    27    1
    31    28    31    1
    32    36    35    2
    33    35    37   am
    34    66    65    1
    35    65    62    1
    36    64    63    2
    37    31    32    1
    38    37    38    1
    39    63    62    1
    40    62    61    1
    41    73    72    2
    42    38    41    1
    43    38    39    1
    44    61    56   am
    45    74    72   am
    46    72    71    1
    47    41    42    1
    48    57    56    2
    49    39    40    2
    50    67    68    1
    51    56    55    1
    52    68    71    1
    53    68    69    1
    54    43    42    2
    55    42    44   am
    56    55    54    1
    57    55    58    1
    58    69    70    2
    59    54    47   am
    60    48    47    2
    61    47    46    1
    62    58    59    1
    63    58    60    1
    64    46    45    1
    65    46    49    1
    66    49    50    1
    67    50    51    1
    68    51    52    1
    69    52    53    1
