@<TRIPOS>MOLECULE
tmp/6mglA05.pdb
 117 108 0 0 0
SMALL
GASTEIGER

@<TRIPOS>ATOM
      1  N        -14.4640   -8.2000    7.1960 N.3    18  GLY18      -0.1210
      2  CA       -13.7170   -7.2200    7.9520 C.3    18  GLY18       0.1956
      3  C        -13.3940   -6.0070    7.0960 C.2    18  GLY18       0.2611
      4  O        -13.6930   -5.9490    5.9000 O.2    18  GLY18      -0.2717
      5  N        -12.7710   -5.0430    7.7520 N.am   19  PHE19      -0.1976
      6  CA       -12.5000   -3.7430    7.1520 C.3    19  PHE19       0.1639
      7  C        -11.2950   -3.7980    6.2330 C.2    19  PHE19       0.2290
      8  O        -10.2410   -4.3120    6.6180 O.2    19  PHE19      -0.2864
      9  CB       -12.2750   -2.7620    8.2950 C.3    19  PHE19       0.0560
     10  CG       -11.8550   -1.3710    7.9080 C.ar   19  PHE19      -0.0200
     11  CD1      -12.3850   -0.7080    6.7970 C.ar   19  PHE19      -0.0042
     12  CD2      -10.9600   -0.6990    8.7300 C.ar   19  PHE19      -0.0042
     13  CE1      -11.9960    0.6200    6.5080 C.ar   19  PHE19      -0.0003
     14  CE2      -10.5920    0.6210    8.4540 C.ar   19  PHE19      -0.0003
     15  CZ       -11.0940    1.2650    7.3270 C.ar   19  PHE19      -0.0000
     16  N         -6.3560   -4.6070    8.6080 N.3    38  ALA38      -0.1231
     17  CA        -5.8810   -4.1370    9.9020 C.3    38  ALA38       0.1694
     18  C         -5.3080   -5.2400   10.7680 C.2    38  ALA38       0.2591
     19  O         -4.4270   -4.9710   11.5870 O.2    38  ALA38      -0.2718
     20  CB        -7.0040   -3.4760   10.6880 C.3    38  ALA38       0.0304
     21  N         -5.8260   -6.4660   10.6320 N.am   39  ILE39      -0.1980
     22  CA        -5.4130   -7.5490   11.5130 C.3    39  ILE39       0.1595
     23  C         -5.1960   -8.8230   10.7170 C.2    39  ILE39       0.2287
     24  O         -4.8740   -9.8560   11.3060 O.2    39  ILE39      -0.2864
     25  CB        -6.4360   -7.8170   12.6400 C.3    39  ILE39       0.0276
     26  CG1       -7.8170   -8.1050   12.0500 C.3    39  ILE39       0.0022
     27  CG2       -6.4810   -6.6580   13.6230 C.3    39  ILE39       0.0022
     28  CD1       -8.7260   -8.8680   13.0130 C.3    39  ILE39       0.0001
     29  N         -0.4270   -2.4590   16.8240 N.3    89  TYR89      -0.1241
     30  CA        -0.7980   -1.3820   17.7360 C.3    89  TYR89       0.1605
     31  C          0.4260   -0.5540   18.0710 C.2    89  TYR89       0.2264
     32  O          1.5650   -1.0450   18.0510 O.2    89  TYR89      -0.2867
     33  CB        -1.4490   -1.9120   19.0500 C.3    89  TYR89       0.0534
     34  CG        -2.6080   -2.8220   18.7610 C.ar   89  TYR89      -0.0201
     35  CD1       -3.8000   -2.3110   18.2810 C.ar   89  TYR89      -0.0009
     36  CD2       -2.4910   -4.2190   18.8990 C.ar   89  TYR89      -0.0009
     37  CE1       -4.8580   -3.1410   17.9740 C.ar   89  TYR89       0.0417
     38  CE2       -3.5450   -5.0440   18.5950 C.ar   89  TYR89       0.0417
     39  CZ        -4.7280   -4.5060   18.1380 C.ar   89  TYR89       0.1957
     40  OH        -5.8240   -5.2990   17.7980 O.3    89  TYR89      -0.2866
     41  N         -3.7580   -1.5960   13.1050 N.3   121  ASN121     -0.1240
     42  CA        -5.0950   -1.6010   13.6820 C.3   121  ASN121      0.1653
     43  C         -5.3250   -0.4160   14.6090 C.2   121  ASN121      0.2266
     44  O         -6.0730   -0.5130   15.5880 O.2   121  ASN121     -0.2867
     45  CB        -5.3790   -2.9230   14.4000 C.3   121  ASN121      0.1155
     46  CG        -6.8720   -3.1630   14.5660 C.2   121  ASN121      0.2627
     47  OD1       -7.6820   -2.6280   13.8010 O.2   121  ASN121     -0.2716
     48  ND2       -7.2430   -3.9610   15.5690 N.am  121  ASN121     -0.0877
     49  N         -5.9740    4.4010    9.9730 N.3   125  ARG125     -0.1245
     50  CA        -5.3540    3.3960    9.1110 C.3   125  ARG125      0.1563
     51  C         -5.8540    3.4090    7.6700 C.2   125  ARG125      0.2260
     52  O         -5.2120    2.7760    6.8320 O.2   125  ARG125     -0.2867
     53  CB        -5.5380    1.9970    9.7030 C.3   125  ARG125      0.0307
     54  CG        -6.9850    1.5710    9.9150 C.3   125  ARG125      0.0489
     55  CD        -6.9750    0.2450   10.6890 C.3   125  ARG125      0.2205
     56  NE        -8.2840   -0.2710   11.1040 N.pl3 125  ARG125     -0.0865
     57  CZ        -8.9560    0.1550   12.1610 C.cat 125  ARG125      0.5346
     58  NH1       -8.4800    1.1690   12.8790 N.pl3 125  ARG125      0.1354
     59  NH2      -10.1250   -0.4320   12.4900 N.pl3 125  ARG125      0.1354
     60  N        -14.0850    5.3580   11.9470 N.3   262  TYR262     -0.1241
     61  CA       -15.4730    5.3580   12.3940 C.3   262  TYR262      0.1605
     62  C        -16.1050    6.7300   12.5000 C.2   262  TYR262      0.2264
     63  O        -17.3360    6.8080   12.5880 O.2   262  TYR262     -0.2867
     64  CB       -15.6020    4.6960   13.7670 C.3   262  TYR262      0.0534
     65  CG       -15.0180    3.3220   13.8100 C.ar  262  TYR262     -0.0201
     66  CD1      -15.6720    2.2480   13.2210 C.ar  262  TYR262     -0.0009
     67  CD2      -13.8070    3.0880   14.4690 C.ar  262  TYR262     -0.0009
     68  CE1      -15.1210    0.9710   13.2400 C.ar  262  TYR262      0.0417
     69  CE2      -13.2510    1.8100   14.4990 C.ar  262  TYR262      0.0417
     70  CZ       -13.9160    0.7570   13.8770 C.ar  262  TYR262      0.1957
     71  OH       -13.3800   -0.5110   13.8950 O.3   262  TYR262     -0.2866
     72  N        -17.3870    3.1980    6.4780 N.3   375  MET375     -0.1245
     73  CA       -15.9160    3.1980    6.6130 C.3   375  MET375      0.1570
     74  C        -15.2400    3.1880    5.2530 C.2   375  MET375      0.2261
     75  O        -14.2470    2.5050    5.0310 O.2   375  MET375     -0.2867
     76  CB       -15.4210    2.0320    7.4870 C.3   375  MET375      0.0387
     77  CG       -15.9390    2.1640    8.9040 C.3   375  MET375      0.0595
     78  SD       -15.9740    0.5990    9.8150 S.3   375  MET375     -0.1393
     79  CE       -14.2050    0.2530   10.0260 C.3   375  MET375      0.0692
     80  N        -16.2980   -1.4890    6.0160 N.3   394  GLY394     -0.1225
     81  CA       -16.0390   -2.2320    7.2480 C.3   394  GLY394      0.1811
     82  C        -16.3070   -3.7250    7.1470 C.2   394  GLY394      0.2280
     83  O        -15.9420   -4.4530    8.0760 O.2   394  GLY394     -0.2866
     84  N        -11.3490  -12.3080    6.6560 N.3   423  GLU423     -0.1245
     85  CA       -10.8410  -11.3950    7.6680 C.3   423  GLU423      0.1567
     86  C        -11.4220  -11.5960    9.0500 C.2   423  GLU423      0.2260
     87  O        -11.0930  -10.8310    9.9640 O.2   423  GLU423     -0.2867
     88  CB       -11.1610   -9.9570    7.2570 C.3   423  GLU423      0.0388
     89  CG       -10.4740   -9.5000    6.0080 C.3   423  GLU423      0.1160
     90  CD       -10.8200   -8.0520    5.7300 C.2   423  GLU423      0.3649
     91  OE1      -11.4980   -7.8180    4.7140 O.co2 423  GLU423     -0.2457
     92  OE2      -10.4430   -7.1860    6.5570 O.co2 423  GLU423     -0.2457
     93  N        -12.5370  -12.5970   12.8230 N.3   425  ALA425     -0.1245
     94  CA       -11.9750  -13.0530   14.0800 C.3   425  ALA425      0.1562
     95  C        -12.9040  -14.1340   14.6290 C.2   425  ALA425      0.2260
     96  O        -14.1050  -13.9120   14.8090 O.2   425  ALA425     -0.2867
     97  CB       -11.8330  -11.8850   15.0620 C.3   425  ALA425      0.0290
     98  N        -16.6500  -12.3750   15.3940 N.3   444  GLY444     -0.1210
     99  CA       -16.8290  -10.9670   15.6640 C.3   444  GLY444      0.1956
    100  C        -17.4710  -10.2830   14.4730 C.2   444  GLY444      0.2611
    101  O        -17.3110  -10.6970   13.3160 O.2   444  GLY444     -0.2717
    102  N        -18.2360   -9.2320   14.7760 N.am  445  ASP445     -0.1973
    103  CA       -18.7820   -8.2700   13.8110 C.3   445  ASP445      0.1709
    104  C        -19.8720   -8.7920   12.8870 C.2   445  ASP445      0.2293
    105  O        -20.8240   -8.0580   12.6190 O.2   445  ASP445     -0.2864
    106  CB       -17.6880   -7.6620   12.9320 C.3   445  ASP445      0.1436
    107  CG       -16.7090   -6.8330   13.7270 C.2   445  ASP445      0.3671
    108  OD1      -17.1250   -6.2970   14.7820 O.co2 445  ASP445     -0.2456
    109  OD2      -15.5330   -6.7720   13.3140 O.co2 445  ASP445     -0.2456
    110  N         -7.4710  -14.8040   14.1620 N.3   737  ASN737     -0.1240
    111  CA        -7.8460  -13.4290   14.5220 C.3   737  ASN737      0.1653
    112  C         -7.4940  -12.5120   13.3490 C.2   737  ASN737      0.2266
    113  O         -6.4950  -11.7920   13.3640 O.2   737  ASN737     -0.2867
    114  CB        -7.1420  -13.0000   15.8100 C.3   737  ASN737      0.1155
    115  CG        -7.7650  -11.7550   16.4190 C.2   737  ASN737      0.2627
    116  OD1       -8.3220  -10.9030   15.6960 O.2   737  ASN737     -0.2716
    117  ND2       -7.6630  -11.6160   17.7430 N.am  737  ASN737     -0.0877
@<TRIPOS>BOND
     1    91    90   ar
     2    75    74    2
     3    74    73    1
     4    90    89    1
     5    90    92   ar
     6     4     3    2
     7    89    88    1
     8    80    81    1
     9     7     8    2
    10     7     6    1
    11    72    73    1
    12    13    11   ar
    13    13    15   ar
    14    73    76    1
    15    84    85    1
    16    11    10   ar
    17    52    51    2
    18     3     5   am
    19     3     2    1
    20    82    81    1
    21    82    83    2
    22     6     5    1
    23     6     9    1
    24     1     2    1
    25    88    85    1
    26    15    14   ar
    27    76    77    1
    28    85    86    1
    29    51    50    1
    30    10     9    1
    31    10    12   ar
    32    14    12   ar
    33    16    17    1
    34    77    78    1
    35    86    87    2
    36    50    53    1
    37    50    49    1
    38    53    54    1
    39    78    79    1
    40    17    20    1
    41    17    18    1
    42    54    55    1
    43    21    18   am
    44    21    22    1
    45    55    56    1
    46    23    24    2
    47    23    22    1
    48    18    19    2
    49    56    57    2
    50    22    25    1
    51    60    61    1
    52    26    25    1
    53    26    28    1
    54    57    59    1
    55    57    58    1
    56    61    62    1
    57    61    64    1
    58    62    63    2
    59   105   104    2
    60    25    27    1
    61    93    94    1
    62   104   103    1
    63   106   107    1
    64   106   103    1
    65    41    42    1
    66    66    68   ar
    67    66    65   ar
    68    68    70   ar
    69   109   107   ar
    70   101   100    2
    71   112   113    2
    72   112   111    1
    73    42    45    1
    74    42    43    1
    75   107   108   ar
    76    64    65    1
    77    47    46    2
    78    65    67   ar
    79   103   102    1
    80    70    71    1
    81    70    69   ar
    82    94    95    1
    83    94    97    1
    84   110   111    1
    85    45    46    1
    86    67    69   ar
    87   100   102   am
    88   100    99    1
    89   111   114    1
    90    46    48   am
    91    43    44    2
    92    95    96    2
    93    98    99    1
    94   116   115    2
    95   114   115    1
    96   115   117   am
    97    29    30    1
    98    30    31    1
    99    30    33    1
   100    40    39    1
   101    37    39   ar
   102    37    35   ar
   103    32    31    2
   104    39    38   ar
   105    35    34   ar
   106    38    36   ar
   107    34    36   ar
   108    34    33    1
