@<TRIPOS>MOLECULE
tmp/6mgoA00.pdb
 210 202 0 0 0
SMALL
GASTEIGER

@<TRIPOS>ATOM
      1  N         -3.1100    6.3420    5.8080 N.3    19  GLY19      -0.1210
      2  CA        -4.3830    5.7740    5.3520 C.3    19  GLY19       0.1956
      3  C         -4.2430    4.2850    5.1420 C.2    19  GLY19       0.2612
      4  O         -5.2230    3.5970    5.3520 O.2    19  GLY19      -0.2717
      5  N         -3.0610    3.7760    4.7940 N.am   20  ASP20      -0.1959
      6  CA        -2.8990    2.3140    4.5890 C.3    20  ASP20       0.1840
      7  C         -2.9790    1.6340    5.9420 C.2    20  ASP20       0.2622
      8  O         -2.7490    2.3080    6.9770 O.2    20  ASP20      -0.2715
      9  CB        -1.5860    1.9350    3.9160 C.3    20  ASP20       0.1450
     10  CG        -1.5060    2.3500    2.4640 C.2    20  ASP20       0.3671
     11  OD1       -2.4950    3.0000    1.9650 O.co2  20  ASP20      -0.2456
     12  OD2       -0.4550    2.0050    1.8380 O.co2  20  ASP20      -0.2456
     13  N         -3.2570    0.3430    5.9170 N.am   21  ASP21      -0.1971
     14  CA        -3.4700   -0.4660    7.1390 C.3    21  ASP21       0.1709
     15  C         -2.1250   -0.9840    7.6870 C.2    21  ASP21       0.2293
     16  O         -2.1000   -1.4510    8.8210 O.2    21  ASP21      -0.2864
     17  CB        -4.4370   -1.6040    6.8290 C.3    21  ASP21       0.1436
     18  CG        -3.8010   -2.7770    6.1210 C.2    21  ASP21       0.3671
     19  OD1       -2.9150   -2.5400    5.2340 O.co2  21  ASP21      -0.2456
     20  OD2       -4.2020   -3.9170    6.4510 O.co2  21  ASP21      -0.2456
     21  N          6.1690   16.3490   10.0120 N.3   121  TYR121     -0.1241
     22  CA         5.8320   16.2870   11.4560 C.3   121  TYR121      0.1605
     23  C          6.7020   15.2080   12.0750 C.2   121  TYR121      0.2264
     24  O          7.0160   14.1950   11.3560 O.2   121  TYR121     -0.2867
     25  CB         4.3370   16.0340   11.6430 C.3   121  TYR121      0.0534
     26  CG         3.8530   16.3430   13.0280 C.ar  121  TYR121     -0.0201
     27  CD1        3.5330   17.6410   13.4010 C.ar  121  TYR121     -0.0009
     28  CD2        3.8090   15.3520   13.9920 C.ar  121  TYR121     -0.0009
     29  CE1        3.1260   17.9360   14.6880 C.ar  121  TYR121      0.0417
     30  CE2        3.4100   15.6290   15.2890 C.ar  121  TYR121      0.0417
     31  CZ         3.0660   16.9210   15.6310 C.ar  121  TYR121      0.1957
     32  OH         2.6920   17.2200   16.8990 O.3   121  TYR121     -0.2866
     33  N          6.5990   12.6970   15.3590 N.3   123  ALA123     -0.1231
     34  CA         5.7950   12.2040   16.5060 C.3   123  ALA123      0.1694
     35  C          6.5810   11.1360   17.2790 C.2   123  ALA123      0.2591
     36  O          7.3410   10.3790   16.6620 O.2   123  ALA123     -0.2718
     37  CB         4.4790   11.6680   16.0100 C.3   123  ALA123      0.0304
     38  N          6.3250   11.0490   18.5790 N.am  124  ILE124     -0.1980
     39  CA         6.9040   10.0390   19.5000 C.3   124  ILE124      0.1595
     40  C          6.3250    8.6560   19.2070 C.2   124  ILE124      0.2287
     41  O          5.1010    8.5170   19.1100 O.2   124  ILE124     -0.2864
     42  CB         6.6920   10.4810   20.9470 C.3   124  ILE124      0.0276
     43  CG1        7.3720   11.8370   21.1970 C.3   124  ILE124      0.0022
     44  CG2        7.1860    9.3820   21.8700 C.3   124  ILE124      0.0022
     45  CD1        7.0120   12.5170   22.5370 C.3   124  ILE124      0.0001
     46  N          3.6080    7.1250   21.6130 N.3   127  VAL127     -0.1245
     47  CA         2.3560    7.9130   21.5440 C.3   127  VAL127      0.1561
     48  C          1.5290    7.3930   20.3830 C.2   127  VAL127      0.2260
     49  O          0.3370    7.1160   20.5940 O.2   127  VAL127     -0.2867
     50  CB         2.6600    9.4130   21.4420 C.3   127  VAL127      0.0252
     51  CG1        1.4120   10.2370   21.1030 C.3   127  VAL127      0.0019
     52  CG2        3.2720    9.8560   22.7500 C.3   127  VAL127      0.0019
     53  N         -2.3360    5.6370   20.2590 N.3   131  TYR131     -0.1227
     54  CA        -3.4250    6.1160   19.3620 C.3   131  TYR131      0.1736
     55  C         -3.9440    4.9490   18.5340 C.2   131  TYR131      0.2595
     56  O         -5.1510    4.8640   18.2850 O.2   131  TYR131     -0.2718
     57  CB        -2.9450    7.2010   18.4020 C.3   131  TYR131      0.0548
     58  CG        -2.4650    8.4660   19.0420 C.ar  131  TYR131     -0.0200
     59  CD1       -2.7310    8.7690   20.3650 C.ar  131  TYR131     -0.0009
     60  CD2       -1.7590    9.3730   18.2870 C.ar  131  TYR131     -0.0009
     61  CE1       -2.2950    9.9550   20.9260 C.ar  131  TYR131      0.0417
     62  CE2       -1.2780   10.5470   18.8390 C.ar  131  TYR131      0.0417
     63  CZ        -1.5760   10.8520   20.1470 C.ar  131  TYR131      0.1957
     64  OH        -1.1490   12.0480   20.6440 O.3   131  TYR131     -0.2866
     65  N         -3.0510    4.0660   18.0960 N.am  132  ALA132     -0.1966
     66  CA        -3.4070    2.9360   17.2030 C.3   132  ALA132      0.1728
     67  C         -4.2580    1.9190   17.9710 C.2   132  ALA132      0.2617
     68  O         -4.8480    1.0150   17.2950 O.2   132  ALA132     -0.2715
     69  CB        -2.1800    2.2870   16.6160 C.3   132  ALA132      0.0334
     70  N         -4.2910    1.9960   19.3030 N.am  133  SER133     -0.1936
     71  CA        -5.1300    1.0880   20.1300 C.3   133  SER133      0.2055
     72  C         -6.4480    1.7830   20.5000 C.2   133  SER133      0.2644
     73  O         -7.1440    1.2710   21.3710 O.2   133  SER133     -0.2714
     74  CB        -4.4180    0.6200   21.3620 C.3   133  SER133      0.2130
     75  OG        -4.4030    1.6340   22.3490 O.3   133  SER133     -0.2179
     76  N         -6.7040    2.9540   19.9260 N.am  134  GLY134     -0.1939
     77  CA        -7.9250    3.7440   20.1250 C.3   134  GLY134      0.2014
     78  C         -7.9170    4.4770   21.4470 C.2   134  GLY134      0.2639
     79  O         -9.0140    4.7820   21.9110 O.2   134  GLY134     -0.2714
     80  N         -6.7380    4.8330   21.9730 N.am  135  ARG135     -0.1963
     81  CA        -6.6040    5.4790   23.3040 C.3   135  ARG135      0.1729
     82  C         -5.7680    6.7670   23.2320 C.2   135  ARG135      0.2616
     83  O         -4.8310    6.8360   22.4060 O.2   135  ARG135     -0.2715
     84  CB        -5.9310    4.4990   24.2700 C.3   135  ARG135      0.0348
     85  CG        -6.7670    3.2760   24.6150 C.3   135  ARG135      0.0492
     86  CD        -5.9340    2.3020   25.4410 C.3   135  ARG135      0.2205
     87  NE        -6.7770    1.2360   25.9600 N.pl3 135  ARG135     -0.0865
     88  CZ        -7.1590    0.1790   25.2780 C.cat 135  ARG135      0.5346
     89  NH1       -6.7670    0.0210   24.0310 N.pl3 135  ARG135      0.1354
     90  NH2       -7.9050   -0.7400   25.8540 N.pl3 135  ARG135      0.1354
     91  N         -6.0560    7.7350   24.1050 N.am  136  THR136     -0.1951
     92  CA        -5.2290    8.9580   24.3390 C.3   136  THR136      0.1897
     93  C         -4.6910    9.0240   25.7810 C.2   136  THR136      0.2313
     94  O         -3.8930    9.9130   26.0920 O.2   136  THR136     -0.2863
     95  CB        -6.0170   10.2170   23.9740 C.3   136  THR136      0.1794
     96  OG1       -7.2370   10.1290   24.6930 O.3   136  THR136     -0.2208
     97  CG2       -6.2560   10.3340   22.4870 C.3   136  THR136      0.0378
     98  N         -4.1480   12.0950   28.0170 N.3   155  GLU155     -0.1231
     99  CA        -4.9420   13.0400   27.1910 C.3   155  GLU155      0.1699
    100  C         -4.1140   13.4130   25.9680 C.2   155  GLU155      0.2593
    101  O         -4.0890   14.5780   25.6030 O.2   155  GLU155     -0.2718
    102  CB        -5.3440   14.2680   28.0150 C.3   155  GLU155      0.0402
    103  CG        -6.3830   13.9550   29.0800 C.3   155  GLU155      0.1161
    104  CD        -6.8080   15.1550   29.9010 C.2   155  GLU155      0.3649
    105  OE1       -6.1420   16.2140   29.8220 O.co2 155  GLU155     -0.2457
    106  OE2       -7.8060   15.0210   30.6250 O.co2 155  GLU155     -0.2457
    107  N         -3.4180   12.4390   25.4060 N.am  156  GLY156     -0.1942
    108  CA        -2.7920   12.5800   24.0860 C.3   156  GLY156      0.2014
    109  C         -1.3080   12.8540   24.1350 C.2   156  GLY156      0.2639
    110  O         -0.7030   12.7880   23.0510 O.2   156  GLY156     -0.2714
    111  N         -0.7400   13.1670   25.2960 N.am  157  TYR157     -0.1959
    112  CA         0.6620   13.6470   25.4130 C.3   157  TYR157      0.1771
    113  C          1.4500   12.7460   26.3560 C.2   157  TYR157      0.2619
    114  O          0.9740   12.4270   27.4350 O.2   157  TYR157     -0.2715
    115  CB         0.7640   15.1110   25.8610 C.3   157  TYR157      0.0574
    116  CG         0.1750   16.0750   24.8640 C.ar  157  TYR157     -0.0198
    117  CD1       -1.1930   16.3220   24.8330 C.ar  157  TYR157     -0.0009
    118  CD2        0.9620   16.7140   23.9260 C.ar  157  TYR157     -0.0009
    119  CE1       -1.7710   17.1580   23.8840 C.ar  157  TYR157      0.0417
    120  CE2        0.4070   17.5570   22.9720 C.ar  157  TYR157      0.0417
    121  CZ        -0.9580   17.7940   22.9650 C.ar  157  TYR157      0.1957
    122  OH        -1.5080   18.6390   22.0470 O.3   157  TYR157     -0.2866
    123  N          2.6350   12.3470   25.9010 N.am  158  ALA158     -0.1977
    124  CA         3.6730   11.6960   26.7110 C.3   158  ALA158      0.1597
    125  C          3.9570   12.5650   27.9320 C.2   158  ALA158      0.2287
    126  O          3.9110   13.8150   27.8040 O.2   158  ALA158     -0.2864
    127  CB         4.9190   11.5320   25.8860 C.3   158  ALA158      0.0319
    128  N         -1.4670   -6.7450   15.7680 N.3   322  GLU322     -0.1245
    129  CA        -0.7230   -5.8890   14.7990 C.3   322  GLU322      0.1567
    130  C          0.3950   -5.0640   15.4940 C.2   322  GLU322      0.2260
    131  O          0.9350   -4.1360   14.8610 O.2   322  GLU322     -0.2867
    132  CB        -1.7450   -5.0080   14.0590 C.3   322  GLU322      0.0388
    133  CG        -2.3890   -3.8940   14.9110 C.3   322  GLU322      0.1160
    134  CD        -3.5660   -4.2850   15.8080 C.2   322  GLU322      0.3649
    135  OE1       -3.8440   -5.4810   15.9220 O.co2 322  GLU322     -0.2457
    136  OE2       -4.1530   -3.4070   16.4260 O.co2 322  GLU322     -0.2457
    137  N          1.1210    2.2780   12.2610 N.3   329  ILE329     -0.1231
    138  CA        -0.3620    2.3890   12.0680 C.3   329  ILE329      0.1692
    139  C         -0.8430    3.6550   12.7680 C.2   329  ILE329      0.2592
    140  O         -1.6680    4.3950   12.1780 O.2   329  ILE329     -0.2718
    141  CB        -1.1050    1.1180   12.5420 C.3   329  ILE329      0.0266
    142  CG1       -0.7550   -0.0800   11.6590 C.3   329  ILE329      0.0019
    143  CG2       -2.6210    1.3440   12.5940 C.3   329  ILE329      0.0020
    144  CD1       -1.1610   -1.4360   12.2540 C.3   329  ILE329      0.0001
    145  N         -0.3470    3.9390   13.9710 N.am  330  GLY330     -0.1957
    146  CA        -0.7480    5.1660   14.6840 C.3   330  GLY330      0.1869
    147  C         -0.3870    6.4090   13.8830 C.2   330  GLY330      0.2309
    148  O         -1.1490    7.4080   13.8970 O.2   330  GLY330     -0.2863
    149  N         -0.1450    6.4960   10.4750 N.3   332  SER332     -0.1202
    150  CA        -1.0870    6.3960    9.3440 C.3   332  SER332      0.2020
    151  C         -2.4180    7.0260    9.7430 C.2   332  SER332      0.2619
    152  O         -2.9860    7.7700    8.9020 O.2   332  SER332     -0.2717
    153  CB        -1.2760    4.9790    8.9050 C.3   332  SER332      0.2103
    154  OG        -2.1290    4.9000    7.7590 O.3   332  SER332     -0.2182
    155  N         -2.8800    6.7790   10.9720 N.am  333  ILE333     -0.1965
    156  CA        -4.1740    7.3210   11.4770 C.3   333  ILE333      0.1727
    157  C         -4.0200    8.8180   11.6620 C.2   333  ILE333      0.2616
    158  O         -4.7740    9.5760   11.0170 O.2   333  ILE333     -0.2715
    159  CB        -4.6320    6.6090   12.7600 C.3   333  ILE333      0.0290
    160  CG1       -4.8870    5.1270   12.4880 C.3   333  ILE333      0.0022
    161  CG2       -5.8530    7.3020   13.3520 C.3   333  ILE333      0.0023
    162  CD1       -4.9660    4.2810   13.7230 C.3   333  ILE333      0.0001
    163  N         -3.0890    9.2310   12.5100 N.am  334  LEU334     -0.1977
    164  CA        -2.9240   10.6490   12.8930 C.3   334  LEU334      0.1596
    165  C         -2.7920   11.5000   11.6210 C.2   334  LEU334      0.2287
    166  O         -3.4540   12.5470   11.5410 O.2   334  LEU334     -0.2864
    167  CB        -1.6980   10.7940   13.8010 C.3   334  LEU334      0.0297
    168  CG        -1.4080   12.2010   14.3180 C.3   334  LEU334      0.0022
    169  CD1       -2.5200   12.7060   15.2150 C.3   334  LEU334      0.0001
    170  CD2       -0.0810   12.2330   15.0800 C.3   334  LEU334      0.0001
    171  N         -3.8260   10.9960    8.6590 N.3   336  SER336     -0.1202
    172  CA        -5.0940   10.9320    7.8720 C.3   336  SER336      0.2020
    173  C         -6.1890   11.8650    8.4420 C.2   336  SER336      0.2618
    174  O         -7.1780   12.0970    7.7300 O.2   336  SER336     -0.2717
    175  CB        -5.6150    9.5250    7.8240 C.3   336  SER336      0.2103
    176  OG        -4.8030    8.7040    7.0170 O.3   336  SER336     -0.2182
    177  N         -6.0870   12.3350    9.6860 N.am  337  LEU337     -0.1979
    178  CA        -7.1460   13.1820   10.3160 C.3   337  LEU337      0.1596
    179  C         -7.1940   14.5860    9.6770 C.2   337  LEU337      0.2287
    180  O         -6.1390   15.2610    9.5680 O.2   337  LEU337     -0.2864
    181  CB        -6.9040   13.3150   11.8280 C.3   337  LEU337      0.0297
    182  CG        -6.9000   12.0260   12.6480 C.3   337  LEU337      0.0022
    183  CD1       -6.8620   12.3450   14.1300 C.3   337  LEU337      0.0001
    184  CD2       -8.0940   11.1430   12.3250 C.3   337  LEU337      0.0001
    185  N         -8.2690   17.1340   11.2750 N.3   339  THR339     -0.1203
    186  CA        -7.7840   18.0260   12.3730 C.3   339  THR339      0.1994
    187  C         -6.2530   18.0770   12.4130 C.2   339  THR339      0.2617
    188  O         -5.7080   19.0560   12.9730 O.2   339  THR339     -0.2717
    189  CB        -8.2970   17.5930   13.7390 C.3   339  THR339      0.1784
    190  OG1       -8.2170   16.1670   13.7550 O.3   339  THR339     -0.2211
    191  CG2       -9.7090   18.0720   13.9930 C.3   339  THR339      0.0376
    192  N         -5.5790   17.1020   11.8040 N.am  340  PHE340     -0.1975
    193  CA        -4.0990   17.0730   11.8010 C.3   340  PHE340      0.1639
    194  C         -3.5410   18.0530   10.7490 C.2   340  PHE340      0.2290
    195  O         -2.4010   18.5070   10.8880 O.2   340  PHE340     -0.2864
    196  CB        -3.6050   15.6330   11.6250 C.3   340  PHE340      0.0560
    197  CG        -2.1140   15.5070   11.7610 C.ar  340  PHE340     -0.0200
    198  CD1       -1.5140   15.7240   12.9790 C.ar  340  PHE340     -0.0042
    199  CD2       -1.3220   15.2170   10.6630 C.ar  340  PHE340     -0.0042
    200  CE1       -0.1360   15.6680   13.1050 C.ar  340  PHE340     -0.0003
    201  CE2        0.0550   15.1370   10.7870 C.ar  340  PHE340     -0.0003
    202  CZ         0.6450   15.3720   12.0070 C.ar  340  PHE340     -0.0000
    203  N         -1.5420   20.8790   11.4910 N.3   343  MET343     -0.1245
    204  CA        -0.4380   20.6160   12.4470 C.3   343  MET343      0.1570
    205  C          0.8740   20.3910   11.7030 C.2   343  MET343      0.2261
    206  O          1.9070   20.6470   12.2950 O.2   343  MET343     -0.2867
    207  CB        -0.7620   19.4420   13.3560 C.3   343  MET343      0.0387
    208  CG        -1.8060   19.8530   14.3880 C.3   343  MET343      0.0595
    209  SD        -2.2270   18.5070   15.4800 S.3   343  MET343     -0.1393
    210  CE        -0.7240   18.4220   16.4590 C.3   343  MET343      0.0692
@<TRIPOS>BOND
     1    12    10   ar
     2    11    10   ar
     3    10     9    1
     4     9     6    1
     5     6     5    1
     6     6     7    1
     7     5     3   am
     8     3     4    2
     9     3     2    1
    10    19    18   ar
    11     2     1    1
    12    13     7   am
    13    13    14    1
    14     7     8    2
    15    18    20   ar
    16    18    17    1
    17    17    14    1
    18   176   175    1
    19    14    15    1
    20    15    16    2
    21   174   173    2
    22   154   153    1
    23   175   172    1
    24   172   173    1
    25   172   171    1
    26   173   177   am
    27   152   151    2
    28   153   150    1
    29   150   151    1
    30   150   149    1
    31   180   179    2
    32   179   178    1
    33   177   178    1
    34   151   155   am
    35    21    22    1
    36   178   181    1
    37   199   201   ar
    38   199   197   ar
    39   194   195    2
    40   194   193    1
    41   201   202   ar
    42   155   156    1
    43   158   157    2
    44   185   186    1
    45    24    23    2
    46    22    25    1
    47    22    23    1
    48   156   157    1
    49   156   159    1
    50   203   204    1
    51   166   165    2
    52   165   164    1
    53   196   197    1
    54   196   193    1
    55    25    26    1
    56   142   144    1
    57   142   141    1
    58   157   163   am
    59   205   206    2
    60   205   204    1
    61   197   198   ar
    62   193   192    1
    63   192   187   am
    64   181   182    1
    65   202   200   ar
    66   138   137    1
    67   138   141    1
    68   138   139    1
    69   140   139    2
    70   184   182    1
    71   186   187    1
    72   186   189    1
    73   187   188    2
    74   204   207    1
    75   160   159    1
    76   160   162    1
    77   163   164    1
    78   141   143    1
    79   182   183    1
    80   159   161    1
    81   139   145   am
    82   164   167    1
    83   198   200   ar
    84    26    27   ar
    85    26    28   ar
    86   207   208    1
    87    27    29   ar
    88   189   190    1
    89   189   191    1
    90   167   168    1
    91   147   148    2
    92   147   146    1
    93   145   146    1
    94    28    30   ar
    95   132   129    1
    96   132   133    1
    97   168   170    1
    98   168   169    1
    99   208   209    1
   100    29    31   ar
   101   129   130    1
   102   129   128    1
   103   131   130    2
   104   133   134    1
   105    30    31   ar
   106    33    34    1
   107   209   210    1
   108    31    32    1
   109   134   135   ar
   110   134   136   ar
   111    37    34    1
   112    34    35    1
   113    69    66    1
   114    36    35    2
   115    66    67    1
   116    66    65    1
   117    35    38   am
   118    68    67    2
   119    67    70   am
   120    65    55   am
   121    56    55    2
   122    60    62   ar
   123    60    58   ar
   124    57    58    1
   125    57    54    1
   126    55    54    1
   127    38    39    1
   128    62    63   ar
   129    58    59   ar
   130    41    40    2
   131    40    39    1
   132    70    71    1
   133    54    53    1
   134    39    42    1
   135    76    77    1
   136    76    72   am
   137    77    78    1
   138    71    72    1
   139    71    74    1
   140    63    64    1
   141    63    61   ar
   142    59    61   ar
   143    48    49    2
   144    48    47    1
   145    72    73    2
   146    42    43    1
   147    42    44    1
   148    51    50    1
   149    43    45    1
   150    74    75    1
   151    50    47    1
   152    50    52    1
   153    78    79    2
   154    78    80   am
   155    47    46    1
   156    80    81    1
   157   122   121    1
   158    83    82    2
   159    97    95    1
   160   121   120   ar
   161   121   119   ar
   162   120   118   ar
   163   110   109    2
   164    82    81    1
   165    82    91   am
   166    81    84    1
   167   119   117   ar
   168   118   116   ar
   169    95    92    1
   170    95    96    1
   171    89    88    1
   172   108   109    1
   173   108   107    1
   174    91    92    1
   175   109   111   am
   176    84    85    1
   177    92    93    1
   178    85    86    1
   179   117   116   ar
   180   116   115    1
   181    88    90    1
   182    88    87    2
   183   111   112    1
   184   107   100   am
   185   112   115    1
   186   112   113    1
   187    86    87    1
   188   101   100    2
   189    93    94    2
   190   127   124    1
   191   123   113   am
   192   123   124    1
   193   100    99    1
   194   113   114    2
   195   124   125    1
   196    99   102    1
   197    99    98    1
   198   126   125    2
   199   102   103    1
   200   103   104    1
   201   105   104   ar
   202   104   106   ar
