@<TRIPOS>MOLECULE
tmp/6mgrC01.pdb
 93 83 0 0 0
SMALL
GASTEIGER

@<TRIPOS>ATOM
      1  N         14.1100   43.6280    1.4460 N.3    48  ALA48      -0.1245
      2  CA        13.6060   43.2710    0.1140 C.3    48  ALA48       0.1562
      3  C         12.6460   42.0820    0.2100 C.2    48  ALA48       0.2260
      4  O         12.9210   40.9690   -0.2460 O.2    48  ALA48      -0.2867
      5  CB        14.7650   42.9650   -0.8250 C.3    48  ALA48       0.0290
      6  N         11.9700   41.2790   -5.3170 N.3    72  LYS72      -0.1245
      7  CA        12.0360   40.7300   -6.6670 C.3    72  LYS72       0.1561
      8  C         10.9990   39.6430   -6.9380 C.2    72  LYS72       0.2260
      9  O         11.0700   38.9870   -7.9820 O.2    72  LYS72      -0.2867
     10  CB        13.4320   40.1690   -6.9330 C.3    72  LYS72       0.0271
     11  CG        13.7190   38.9180   -6.1190 C.3    72  LYS72       0.0035
     12  CD        15.1520   38.4720   -6.2470 C.3    72  LYS72       0.0206
     13  CE        15.3800   37.2290   -5.4000 C.3    72  LYS72       0.1093
     14  NZ        16.8230   36.9890   -5.1750 N.3    72  LYS72      -0.1314
     15  N         20.8060   39.2860   -4.0010 N.3   135  ASP135     -0.1225
     16  CA        20.6190   38.5240   -2.7720 C.3   135  ASP135      0.1805
     17  C         20.3630   37.0550   -3.0720 C.2   135  ASP135      0.2598
     18  O         19.4960   36.7120   -3.8840 O.2   135  ASP135     -0.2718
     19  CB        19.4920   39.0890   -1.9000 C.3   135  ASP135      0.1424
     20  CG        18.3600   39.6600   -2.7010 C.2   135  ASP135      0.3668
     21  OD1       18.0110   40.8400   -2.4740 O.co2 135  ASP135     -0.2456
     22  OD2       17.8090   38.9300   -3.5490 O.co2 135  ASP135     -0.2456
     23  N         21.1420   36.2030   -2.4130 N.am  136  SER136     -0.1938
     24  CA        20.9880   34.7650   -2.4140 C.3   136  SER136      0.2055
     25  C         20.9430   34.3170   -0.9640 C.2   136  SER136      0.2642
     26  O         21.4210   35.0190   -0.0640 O.2   136  SER136     -0.2714
     27  CB        22.1350   34.0570   -3.1440 C.3   136  SER136      0.2130
     28  OG        22.0300   32.6480   -2.9870 O.3   136  SER136     -0.2179
     29  N         20.3360   33.1490   -0.7480 N.am  137  ALA137     -0.1977
     30  CA        20.4580   32.4780    0.5370 C.3   137  ALA137      0.1597
     31  C         21.9180   32.2250    0.8750 C.2   137  ALA137      0.2287
     32  O         22.2920   32.2050    2.0520 O.2   137  ALA137     -0.2864
     33  CB        19.6850   31.1650    0.5110 C.3   137  ALA137      0.0319
     34  N         23.5610   36.8730    0.8760 N.3   164  ASN164     -0.1240
     35  CA        24.0070   37.1530    2.2280 C.3   164  ASN164      0.1653
     36  C         25.2040   36.2810    2.6060 C.2   164  ASN164      0.2266
     37  O         25.3550   35.1660    2.1070 O.2   164  ASN164     -0.2867
     38  CB        22.8500   36.9450    3.2080 C.3   164  ASN164      0.1155
     39  CG        21.9650   38.1850    3.3230 C.2   164  ASN164      0.2627
     40  OD1       21.9510   39.0300    2.4200 O.2   164  ASN164     -0.2716
     41  ND2       21.2810   38.3330    4.4570 N.am  164  ASN164     -0.0877
     42  N         26.2930   42.1890    2.3300 N.3   183  LYS183     -0.1245
     43  CA        25.1650   42.0850    3.2450 C.3   183  LYS183      0.1561
     44  C         25.3340   40.8280    4.0980 C.2   183  LYS183      0.2260
     45  O         25.4840   39.7130    3.5670 O.2   183  LYS183     -0.2867
     46  CB        23.8340   42.0880    2.4850 C.3   183  LYS183      0.0271
     47  CG        22.6330   42.3160    3.3990 C.3   183  LYS183      0.0035
     48  CD        21.5090   43.1050    2.7550 C.3   183  LYS183      0.0206
     49  CE        20.8940   42.3800    1.5490 C.3   183  LYS183      0.1093
     50  NZ        20.2550   41.0930    1.9450 N.3   183  LYS183     -0.1314
     51  N         12.9560   33.4910    9.5890 N.3   192  CYS192     -0.1235
     52  CA        13.9030   32.6010    8.9250 C.3   192  CYS192      0.1677
     53  C         14.0730   31.2760    9.6700 C.2   192  CYS192      0.2270
     54  O         14.1950   31.2510   10.8990 O.2   192  CYS192     -0.2867
     55  CB        15.2560   33.3040    8.8070 C.3   192  CYS192      0.0956
     56  SG        16.4910   32.3840    7.8780 S.3   192  CYS192     -0.0801
     57  N         16.4030   28.8930    8.1980 N.3   194  THR194     -0.1218
     58  CA        17.6400   28.3520    7.6340 C.3   194  THR194      0.1862
     59  C         18.4850   27.6030    8.6560 C.2   194  THR194      0.2287
     60  O         18.9360   26.4750    8.4100 O.2   194  THR194     -0.2866
     61  CB        18.4590   29.4960    7.0300 C.3   194  THR194      0.1770
     62  OG1       17.7630   30.0200    5.8970 O.3   194  THR194     -0.2211
     63  CG2       19.8440   29.0140    6.6090 C.3   194  THR194      0.0375
     64  N         10.7170   35.2290    2.4690 N.3   275  MET275     -0.1230
     65  CA        10.7350   35.0800    1.0220 C.3   275  MET275      0.1702
     66  C         11.0810   33.6570    0.6020 C.2   275  MET275      0.2592
     67  O         10.8950   33.3120   -0.5690 O.2   275  MET275     -0.2718
     68  CB        11.7070   36.0890    0.4060 C.3   275  MET275      0.0401
     69  CG        11.2750   37.5440    0.5990 C.3   275  MET275      0.0596
     70  SD         9.6920   37.9170   -0.1970 S.3   275  MET275     -0.1393
     71  CE        10.1890   37.8740   -1.9150 C.3   275  MET275      0.0692
     72  N         11.5720   32.8350    1.5300 N.am  276  GLY276     -0.1957
     73  CA        11.7380   31.4110    1.3380 C.3   276  GLY276      0.1869
     74  C         10.6600   30.5630    1.9800 C.2   276  GLY276      0.2309
     75  O         10.8470   29.3460    2.1110 O.2   276  GLY276     -0.2863
     76  N         18.0990   27.6400   -3.8800 N.3   291  GLN291     -0.1245
     77  CA        16.9310   26.9590   -3.3250 C.3   291  GLN291      0.1566
     78  C         16.2000   26.1060   -4.3580 C.2   291  GLN291      0.2260
     79  O         15.3610   25.2810   -3.9780 O.2   291  GLN291     -0.2867
     80  CB        15.9530   27.9780   -2.7280 C.3   291  GLN291      0.0367
     81  CG        16.5410   28.9000   -1.6650 C.3   291  GLN291      0.0905
     82  CD        15.5020   29.8350   -1.0600 C.2   291  GLN291      0.2608
     83  OE1       15.5940   31.0570   -1.1940 O.2   291  GLN291     -0.2717
     84  NE2       14.5090   29.2620   -0.3850 N.am  291  GLN291     -0.0878
     85  N         12.5970   27.5930    3.6880 N.3   299  GLU299     -0.1245
     86  CA        13.5560   28.1020    4.6620 C.3   299  GLU299      0.1567
     87  C         12.9670   29.2390    5.4880 C.2   299  GLU299      0.2260
     88  O         13.7130   29.9660    6.1590 O.2   299  GLU299     -0.2867
     89  CB        14.8410   28.5630    3.9700 C.3   299  GLU299      0.0388
     90  CG        15.6370   27.4390    3.3170 C.3   299  GLU299      0.1160
     91  CD        17.1040   27.4440    3.7320 C.2   299  GLU299      0.3649
     92  OE1       17.6060   26.3810    4.1650 O.co2 299  GLU299     -0.2457
     93  OE2       17.7500   28.5120    3.6310 O.co2 299  GLU299     -0.2457
@<TRIPOS>BOND
     1     9     8    2
     2     8     7    1
     3    10     7    1
     4    10    11    1
     5     7     6    1
     6    12    11    1
     7    12    13    1
     8    13    14    1
     9    78    79    2
    10    78    77    1
    11    15    16    1
    12    18    17    2
    13    76    77    1
    14    22    20   ar
    15    77    80    1
    16    27    28    1
    17    27    24    1
    18    17    16    1
    19    17    23   am
    20    16    19    1
    21    80    81    1
    22    20    21   ar
    23    20    19    1
    24    24    23    1
    25    24    25    1
    26    71    70    1
    27    81    82    1
    28    83    82    2
    29    82    84   am
    30    25    29   am
    31    25    26    2
    32     5     2    1
    33    29    30    1
    34    67    66    2
    35     4     3    2
    36    70    69    1
    37     2     3    1
    38     2     1    1
    39    68    69    1
    40    68    65    1
    41    33    30    1
    42    30    31    1
    43    66    65    1
    44    66    72   am
    45    31    32    2
    46    34    35    1
    47    65    64    1
    48    73    72    1
    49    73    74    1
    50    49    50    1
    51    49    48    1
    52    74    75    2
    53    37    36    2
    54    35    36    1
    55    35    38    1
    56    42    43    1
    57    40    39    2
    58    46    43    1
    59    46    47    1
    60    48    47    1
    61    38    39    1
    62    43    44    1
    63    90    91    1
    64    90    89    1
    65    39    41   am
    66    45    44    2
    67    93    91   ar
    68    85    86    1
    69    91    92   ar
    70    89    86    1
    71    86    87    1
    72    87    88    2
    73    62    61    1
    74    63    61    1
    75    61    58    1
    76    58    57    1
    77    58    59    1
    78    56    55    1
    79    60    59    2
    80    55    52    1
    81    52    51    1
    82    52    53    1
    83    53    54    2
