@<TRIPOS>MOLECULE
tmp/6mgrC00.pdb
 173 164 0 0 0
SMALL
GASTEIGER

@<TRIPOS>ATOM
      1  N         13.6740   45.8500    4.2640 N.3    47  ALA47      -0.1231
      2  CA        14.0450   44.5660    3.6830 C.3    47  ALA47       0.1694
      3  C         13.3890   44.3380    2.3240 C.2    47  ALA47       0.2592
      4  O         12.2540   44.7570    2.0760 O.2    47  ALA47      -0.2718
      5  CB        13.6490   43.4290    4.6350 C.3    47  ALA47       0.0304
      6  N         14.1100   43.6280    1.4460 N.am   48  ALA48      -0.1966
      7  CA        13.6060   43.2710    0.1140 C.3    48  ALA48       0.1728
      8  C         12.6460   42.0820    0.2100 C.2    48  ALA48       0.2616
      9  O         12.9210   40.9690   -0.2460 O.2    48  ALA48      -0.2715
     10  CB        14.7650   42.9650   -0.8250 C.3    48  ALA48       0.0334
     11  N         11.4760   42.3410    0.7950 N.am   49  MET49      -0.1977
     12  CA        10.4900   41.2960    1.0550 C.3    49  MET49       0.1605
     13  C          9.1100   41.7560    0.6120 C.2    49  MET49       0.2287
     14  O          8.7660   42.9320    0.7630 O.2    49  MET49      -0.2864
     15  CB        10.4590   40.9330    2.5490 C.3    49  MET49       0.0413
     16  CG        11.8340   40.6340    3.1350 C.3    49  MET49       0.0598
     17  SD        11.7540   40.2790    4.9010 S.3    49  MET49      -0.1393
     18  CE        10.7730   38.7810    4.8850 C.3    49  MET49       0.0692
     19  N         20.3360   33.1490   -0.7480 N.3   137  ALA137     -0.1245
     20  CA        20.4580   32.4780    0.5370 C.3   137  ALA137      0.1562
     21  C         21.9180   32.2250    0.8750 C.2   137  ALA137      0.2260
     22  O         22.2920   32.2050    2.0520 O.2   137  ALA137     -0.2867
     23  CB        19.6850   31.1650    0.5110 C.3   137  ALA137      0.0290
     24  N         23.5610   36.8730    0.8760 N.3   164  ASN164     -0.1240
     25  CA        24.0070   37.1530    2.2280 C.3   164  ASN164      0.1653
     26  C         25.2040   36.2810    2.6060 C.2   164  ASN164      0.2266
     27  O         25.3550   35.1660    2.1070 O.2   164  ASN164     -0.2867
     28  CB        22.8500   36.9450    3.2080 C.3   164  ASN164      0.1155
     29  CG        21.9650   38.1850    3.3230 C.2   164  ASN164      0.2627
     30  OD1       21.9510   39.0300    2.4200 O.2   164  ASN164     -0.2716
     31  ND2       21.2810   38.3330    4.4570 N.am  164  ASN164     -0.0877
     32  N         26.2930   42.1890    2.3300 N.3   183  LYS183     -0.1245
     33  CA        25.1650   42.0850    3.2450 C.3   183  LYS183      0.1561
     34  C         25.3340   40.8280    4.0980 C.2   183  LYS183      0.2260
     35  O         25.4840   39.7130    3.5670 O.2   183  LYS183     -0.2867
     36  CB        23.8340   42.0880    2.4850 C.3   183  LYS183      0.0271
     37  CG        22.6330   42.3160    3.3990 C.3   183  LYS183      0.0035
     38  CD        21.5090   43.1050    2.7550 C.3   183  LYS183      0.0206
     39  CE        20.8940   42.3800    1.5490 C.3   183  LYS183      0.1093
     40  NZ        20.2550   41.0930    1.9450 N.3   183  LYS183     -0.1314
     41  N         20.5840   33.2670    8.5950 N.3   187  GLY187     -0.1210
     42  CA        19.7080   32.6780    9.5740 C.3   187  GLY187      0.1940
     43  C         19.0380   33.5490   10.6400 C.2   187  GLY187      0.2454
     44  O         18.0870   33.0800   11.2710 O.2   187  GLY187     -0.2732
     45  N         19.4850   34.7950   10.8950 N.am  188  PRO188     -0.2717
     46  CA        18.9820   35.4920   12.0940 C.3   188  PRO188      0.1536
     47  C         17.5890   36.0860   11.9500 C.2   188  PRO188      0.2599
     48  O         16.9850   36.4290   12.9760 O.2   188  PRO188     -0.2715
     49  CB        20.0170   36.5990   12.3080 C.3   188  PRO188      0.0310
     50  CG        20.3500   36.9900   10.8780 C.3   188  PRO188      0.0237
     51  CD        20.4020   35.6820   10.1370 C.3   188  PRO188      0.0939
     52  N         17.0730   36.2420   10.7280 N.am  189  GLY189     -0.1941
     53  CA        15.7720   36.8520   10.5070 C.3   189  GLY189      0.2014
     54  C         14.6360   36.2820   11.3380 C.2   189  GLY189      0.2640
     55  O         14.5980   35.0830   11.6280 O.2   189  GLY189     -0.2714
     56  N         13.7100   37.1580   11.7380 N.am  190  SER190     -0.1935
     57  CA        12.5610   36.7530   12.5470 C.3   190  SER190      0.2055
     58  C         11.7880   35.5880   11.9240 C.2   190  SER190      0.2643
     59  O         11.3540   34.6740   12.6370 O.2   190  SER190     -0.2714
     60  CB        11.6400   37.9550   12.7380 C.3   190  SER190      0.2130
     61  OG        11.3100   38.5190   11.4760 O.3   190  SER190     -0.2179
     62  N         11.5700   35.6230   10.6020 N.am  191  ILE191     -0.1963
     63  CA        10.7830   34.5930    9.9250 C.3   191  ILE191      0.1727
     64  C         11.6430   33.4630    9.3590 C.2   191  ILE191      0.2616
     65  O         11.1040   32.5540    8.7060 O.2   191  ILE191     -0.2715
     66  CB         9.9110   35.1870    8.7860 C.3   191  ILE191      0.0290
     67  CG1       10.6170   36.3240    8.0320 C.3   191  ILE191      0.0022
     68  CG2        8.5800   35.6980    9.3280 C.3   191  ILE191      0.0023
     69  CD1       11.8920   35.9570    7.3090 C.3   191  ILE191      0.0001
     70  N         12.9560   33.4910    9.5890 N.am  192  CYS192     -0.1968
     71  CA        13.9030   32.6010    8.9250 C.3   192  CYS192      0.1712
     72  C         14.0730   31.2760    9.6700 C.2   192  CYS192      0.2296
     73  O         14.1950   31.2510   10.8990 O.2   192  CYS192     -0.2864
     74  CB        15.2560   33.3040    8.8070 C.3   192  CYS192      0.0983
     75  SG        16.4910   32.3840    7.8780 S.3   192  CYS192     -0.0798
     76  N         16.4030   28.8930    8.1980 N.3   194  THR194     -0.1218
     77  CA        17.6400   28.3520    7.6340 C.3   194  THR194      0.1862
     78  C         18.4850   27.6030    8.6560 C.2   194  THR194      0.2287
     79  O         18.9360   26.4750    8.4100 O.2   194  THR194     -0.2866
     80  CB        18.4590   29.4960    7.0300 C.3   194  THR194      0.1770
     81  OG1       17.7630   30.0200    5.8970 O.3   194  THR194     -0.2211
     82  CG2       19.8440   29.0140    6.6090 C.3   194  THR194      0.0375
     83  N         21.9440   42.5070    8.2260 N.3   225  ASP225     -0.1225
     84  CA        20.6130   42.1640    7.7260 C.3   225  ASP225      0.1805
     85  C         19.9880   41.0750    8.6000 C.2   225  ASP225      0.2598
     86  O         20.4180   39.9180    8.5610 O.2   225  ASP225     -0.2718
     87  CB        20.6990   41.7070    6.2610 C.3   225  ASP225      0.1424
     88  CG        19.3540   41.3240    5.6870 C.2   225  ASP225      0.3668
     89  OD1       18.3250   41.7130    6.2610 O.co2 225  ASP225     -0.2456
     90  OD2       19.3160   40.6170    4.6550 O.co2 225  ASP225     -0.2456
     91  N         18.9570   41.4330    9.3470 N.am  226  GLY226     -0.1942
     92  CA        18.1570   40.4220   10.0140 C.3   226  GLY226      0.2014
     93  C         18.4470   40.3120   11.5020 C.2   226  GLY226      0.2639
     94  O         19.5690   40.5660   11.9740 O.2   226  GLY226     -0.2714
     95  N         17.4140   39.9180   12.2600 N.am  227  GLY227     -0.1939
     96  CA        17.5530   39.6960   13.6880 C.3   227  GLY227      0.2014
     97  C         17.3730   40.9230   14.5610 C.2   227  GLY227      0.2638
     98  O         17.4860   40.8100   15.7950 O.2   227  GLY227     -0.2714
     99  N         17.0960   42.0860   13.9730 N.am  228  ILE228     -0.1977
    100  CA        16.8850   43.3000   14.7610 C.3   228  ILE228      0.1596
    101  C         15.5140   43.2330   15.4210 C.2   228  ILE228      0.2287
    102  O         14.4840   43.1900   14.7400 O.2   228  ILE228     -0.2864
    103  CB        17.0100   44.5500   13.8730 C.3   228  ILE228      0.0276
    104  CG1       18.3740   44.5800   13.1870 C.3   228  ILE228      0.0022
    105  CG2       16.7690   45.8150   14.6790 C.3   228  ILE228      0.0022
    106  CD1       19.5370   44.6980   14.1490 C.3   228  ILE228      0.0001
    107  N         19.5540   46.3940    7.8330 N.3   246  MET246     -0.1230
    108  CA        18.3630   46.0710    7.0670 C.3   246  MET246      0.1702
    109  C         17.3380   45.4290    7.9910 C.2   246  MET246      0.2592
    110  O         17.6660   44.5190    8.7600 O.2   246  MET246     -0.2718
    111  CB        18.6870   45.1470    5.8880 C.3   246  MET246      0.0401
    112  CG        17.4440   44.6590    5.1540 C.3   246  MET246      0.0596
    113  SD        17.8280   43.7590    3.6290 S.3   246  MET246     -0.1393
    114  CE        18.1720   45.1210    2.4920 C.3   246  MET246      0.0692
    115  N         16.0970   45.8900    7.9020 N.am  247  ILE247     -0.1966
    116  CA        15.0710   45.5200    8.8620 C.3   247  ILE247      0.1727
    117  C         13.8360   45.0240    8.1270 C.2   247  ILE247      0.2617
    118  O         13.3360   45.6990    7.2190 O.2   247  ILE247     -0.2715
    119  CB        14.7090   46.7100    9.7690 C.3   247  ILE247      0.0290
    120  CG1       15.9120   47.0730   10.6580 C.3   247  ILE247      0.0022
    121  CG2       13.4630   46.3840   10.5810 C.3   247  ILE247      0.0023
    122  CD1       15.6780   48.3120   11.5200 C.3   247  ILE247      0.0001
    123  N         13.3360   43.8590    8.5350 N.am  248  GLY248     -0.1940
    124  CA        12.0850   43.3340    8.0200 C.3   248  GLY248      0.2014
    125  C         10.9240   43.4210    9.0020 C.2   248  GLY248      0.2639
    126  O         10.0080   44.2300    8.7990 O.2   248  GLY248     -0.2714
    127  N         10.9530   42.6160   10.0770 N.am  249  SER249     -0.1949
    128  CA         9.7420   42.4110   10.8720 C.3   249  SER249      0.1924
    129  C          9.2340   43.7150   11.4730 C.2   249  SER249      0.2314
    130  O          8.0180   43.9520   11.5090 O.2   249  SER249     -0.2863
    131  CB         9.9840   41.3790   11.9790 C.3   249  SER249      0.2116
    132  OG        10.8240   41.8930   12.9950 O.3   249  SER249     -0.2180
    133  N          3.2760   38.8760    7.5090 N.3   272  TYR272     -0.1241
    134  CA         4.7180   38.9580    7.3310 C.3   272  TYR272      0.1605
    135  C          5.2330   37.5430    7.1310 C.2   272  TYR272      0.2264
    136  O          4.9160   36.6490    7.9230 O.2   272  TYR272     -0.2867
    137  CB         5.4000   39.6270    8.5300 C.3   272  TYR272      0.0534
    138  CG         6.9090   39.7510    8.4150 C.ar  272  TYR272     -0.0201
    139  CD1        7.7500   39.2720    9.4280 C.ar  272  TYR272     -0.0009
    140  CD2        7.4990   40.3550    7.3050 C.ar  272  TYR272     -0.0009
    141  CE1        9.1390   39.3930    9.3330 C.ar  272  TYR272      0.0417
    142  CE2        8.8910   40.4890    7.2030 C.ar  272  TYR272      0.0417
    143  CZ         9.7070   40.0020    8.2180 C.ar  272  TYR272      0.1957
    144  OH        11.0890   40.1150    8.1200 O.3   272  TYR272     -0.2866
    145  N          8.5740   34.9530    5.3430 N.3   274  GLY274     -0.1210
    146  CA         9.8530   34.8000    4.6800 C.3   274  GLY274      0.1956
    147  C          9.6940   34.7450    3.1710 C.2   274  GLY274      0.2612
    148  O          8.6700   34.3060    2.6400 O.2   274  GLY274     -0.2717
    149  N         10.7170   35.2290    2.4690 N.am  275  MET275     -0.1965
    150  CA        10.7350   35.0800    1.0220 C.3   275  MET275      0.1736
    151  C         11.0810   33.6570    0.6020 C.2   275  MET275      0.2617
    152  O         10.8950   33.3120   -0.5690 O.2   275  MET275     -0.2715
    153  CB        11.7070   36.0890    0.4060 C.3   275  MET275      0.0427
    154  CG        11.2750   37.5440    0.5990 C.3   275  MET275      0.0599
    155  SD         9.6920   37.9170   -0.1970 S.3   275  MET275     -0.1393
    156  CE        10.1890   37.8740   -1.9150 C.3   275  MET275      0.0692
    157  N         11.5720   32.8350    1.5300 N.am  276  GLY276     -0.1955
    158  CA        11.7380   31.4110    1.3380 C.3   276  GLY276      0.1869
    159  C         10.6600   30.5630    1.9800 C.2   276  GLY276      0.2309
    160  O         10.8470   29.3460    2.1110 O.2   276  GLY276     -0.2863
    161  N         12.5970   27.5930    3.6880 N.3   299  GLU299     -0.1231
    162  CA        13.5560   28.1020    4.6620 C.3   299  GLU299      0.1699
    163  C         12.9670   29.2390    5.4880 C.2   299  GLU299      0.2592
    164  O         13.7130   29.9660    6.1590 O.2   299  GLU299     -0.2718
    165  CB        14.8410   28.5630    3.9700 C.3   299  GLU299      0.0402
    166  CG        15.6370   27.4390    3.3170 C.3   299  GLU299      0.1161
    167  CD        17.1040   27.4440    3.7320 C.2   299  GLU299      0.3649
    168  OE1       17.6060   26.3810    4.1650 O.co2 299  GLU299     -0.2457
    169  OE2       17.7500   28.5120    3.6310 O.co2 299  GLU299     -0.2457
    170  N         11.6460   29.3990    5.4580 N.am  300  GLY300     -0.1957
    171  CA        10.9860   30.4530    6.2040 C.3   300  GLY300      0.1869
    172  C          9.5420   30.0860    6.4650 C.2   300  GLY300      0.2309
    173  O          9.0450   29.0550    6.0050 O.2   300  GLY300     -0.2863
@<TRIPOS>BOND
     1   156   155    1
     2    10     7    1
     3    19    20    1
     4   152   151    2
     5     9     8    2
     6   155   154    1
     7     7     8    1
     8     7     6    1
     9     8    11   am
    10   153   154    1
    11   153   150    1
    12    23    20    1
    13    20    21    1
    14   151   150    1
    15   151   157   am
    16    13    14    2
    17    13    12    1
    18    11    12    1
    19    21    22    2
    20    24    25    1
    21   150   149    1
    22    12    15    1
    23   158   157    1
    24   158   159    1
    25     6     3   am
    26    39    40    1
    27    39    38    1
    28   159   160    2
    29     4     3    2
    30    27    26    2
    31    25    26    1
    32    25    28    1
    33     3     2    1
    34    32    33    1
    35    30    29    2
    36   149   147   am
    37    36    33    1
    38    36    37    1
    39   114   113    1
    40    15    16    1
    41   148   147    2
    42    38    37    1
    43    16    17    1
    44   147   146    1
    45    28    29    1
    46    33    34    1
    47   166   167    1
    48   166   165    1
    49    29    31   am
    50    35    34    2
    51   113   112    1
    52   169   167   ar
    53     2     1    1
    54     2     5    1
    55   161   162    1
    56   167   168   ar
    57   165   162    1
    58    90    88   ar
    59   162   163    1
    60   146   145    1
    61    18    17    1
    62   112   111    1
    63   170   163   am
    64   170   171    1
    65   163   164    2
    66    88    89   ar
    67    88    87    1
    68   111   108    1
    69    81    80    1
    70   173   172    2
    71   171   172    1
    72    87    84    1
    73    82    80    1
    74    80    77    1
    75   108   107    1
    76   108   109    1
    77   135   134    1
    78   135   136    2
    79   142   140   ar
    80   142   143   ar
    81   118   117    2
    82   140   138   ar
    83    69    67    1
    84   134   133    1
    85   134   137    1
    86    77    76    1
    87    77    78    1
    88    84    83    1
    89    84    85    1
    90    75    74    1
    91   115   109   am
    92   115   116    1
    93   109   110    2
    94   124   123    1
    95   124   125    1
    96    67    66    1
    97   144   143    1
    98   117   123   am
    99   117   116    1
   100   143   141   ar
   101    79    78    2
   102   138   137    1
   103   138   139   ar
   104    86    85    2
   105    41    42    1
   106    85    91   am
   107    65    64    2
   108    66    68    1
   109    66    63    1
   110   126   125    2
   111    74    71    1
   112   116   119    1
   113    71    70    1
   114    71    72    1
   115   125   127   am
   116   141   139   ar
   117    91    92    1
   118    64    70   am
   119    64    63    1
   120    42    43    1
   121    72    73    2
   122   119   121    1
   123   119   120    1
   124    63    62    1
   125    92    93    1
   126   127   128    1
   127    51    50    1
   128    51    45    1
   129    53    52    1
   130    53    54    1
   131    62    58   am
   132    43    45   am
   133    43    44    2
   134   120   122    1
   135    52    47   am
   136   128   129    1
   137   128   131    1
   138    50    49    1
   139    45    46    1
   140    54    55    2
   141    54    56   am
   142   129   130    2
   143    61    60    1
   144    93    94    2
   145    93    95   am
   146    56    57    1
   147    58    57    1
   148    58    59    2
   149    47    46    1
   150    47    48    2
   151   131   132    1
   152    46    49    1
   153    95    96    1
   154    57    60    1
   155   104   103    1
   156   104   106    1
   157    96    97    1
   158   103   105    1
   159   103   100    1
   160    99    97   am
   161    99   100    1
   162    97    98    2
   163   102   101    2
   164   100   101    1
