@<TRIPOS>MOLECULE
tmp/6mguA01.pdb
 86 82 0 0 0
SMALL
GASTEIGER

@<TRIPOS>ATOM
      1  N        -27.3260  -28.1230  -32.1910 N.3    40  SER40      -0.1202
      2  CA       -27.7420  -29.1280  -33.1580 C.3    40  SER40       0.2020
      3  C        -29.2450  -29.2860  -33.0140 C.2    40  SER40       0.2619
      4  O        -29.8600  -28.7320  -32.1010 O.2    40  SER40      -0.2717
      5  CB       -27.0350  -30.4610  -32.9300 C.3    40  SER40       0.2103
      6  OG       -27.7530  -31.2090  -31.9720 O.3    40  SER40      -0.2182
      7  N        -29.8360  -30.0680  -33.9150 N.am   41  GLU41      -0.1965
      8  CA       -31.2780  -30.2370  -33.8410 C.3    41  GLU41       0.1733
      9  C        -31.6980  -30.8600  -32.5100 C.2    41  GLU41       0.2617
     10  O        -32.8140  -30.6150  -32.0360 O.2    41  GLU41      -0.2715
     11  CB       -31.7530  -31.0550  -35.0460 C.3    41  GLU41       0.0429
     12  CG       -31.8330  -30.1890  -36.3260 C.3    41  GLU41       0.1163
     13  CD       -31.6850  -30.9770  -37.6310 C.2    41  GLU41       0.3649
     14  OE1      -30.5690  -31.4550  -37.9430 O.co2  41  GLU41      -0.2457
     15  OE2      -32.6960  -31.1180  -38.3520 O.co2  41  GLU41      -0.2457
     16  N        -30.8040  -31.6100  -31.8590 N.am   42  SER42      -0.1950
     17  CA       -31.0820  -32.2100  -30.5590 C.3    42  SER42       0.1924
     18  C        -30.3660  -31.4960  -29.4150 C.2    42  SER42       0.2314
     19  O        -30.2390  -32.0570  -28.3180 O.2    42  SER42      -0.2863
     20  CB       -30.7040  -33.6930  -30.5710 C.3    42  SER42       0.2116
     21  OG       -29.3000  -33.8530  -30.6790 O.3    42  SER42      -0.2180
     22  N        -17.7720  -40.8440  -33.6900 N.3   144  ARG144     -0.1245
     23  CA       -18.8390  -40.6120  -34.6620 C.3   144  ARG144      0.1563
     24  C        -19.2780  -41.9130  -35.3210 C.2   144  ARG144      0.2260
     25  O        -20.4700  -42.1130  -35.5860 O.2   144  ARG144     -0.2867
     26  CB       -18.3800  -39.6030  -35.7210 C.3   144  ARG144      0.0307
     27  CG       -19.3540  -39.4100  -36.8890 C.3   144  ARG144      0.0489
     28  CD       -20.7360  -38.9910  -36.4060 C.3   144  ARG144      0.2205
     29  NE       -20.6920  -37.6480  -35.8530 N.pl3 144  ARG144     -0.0865
     30  CZ       -21.3660  -37.2520  -34.7820 C.cat 144  ARG144      0.5346
     31  NH1      -22.1510  -38.1040  -34.1340 N.pl3 144  ARG144      0.1354
     32  NH2      -21.2400  -36.0020  -34.3540 N.pl3 144  ARG144      0.1354
     33  N        -23.5490  -42.5400  -34.2470 N.3   148  PRO148     -0.2102
     34  CA       -23.7550  -41.6300  -35.3840 C.3   148  PRO148      0.1504
     35  C        -24.6730  -40.4530  -35.0940 C.2   148  PRO148      0.2576
     36  O        -24.6420  -39.4740  -35.8470 O.2   148  PRO148     -0.2718
     37  CB       -24.3550  -42.5490  -36.4590 C.3   148  PRO148      0.0282
     38  CG       -23.9360  -43.9400  -36.0440 C.3   148  PRO148      0.0208
     39  CD       -23.9890  -43.9100  -34.5500 C.3   148  PRO148      0.0893
     40  N        -25.4870  -40.5000  -34.0430 N.am  149  SER149     -0.1938
     41  CA       -26.3790  -39.3920  -33.7270 C.3   149  SER149      0.2055
     42  C        -25.9890  -38.6750  -32.4410 C.2   149  SER149      0.2643
     43  O        -26.7380  -37.8180  -31.9670 O.2   149  SER149     -0.2714
     44  CB       -27.8230  -39.8770  -33.6360 C.3   149  SER149      0.2130
     45  OG       -27.9660  -40.7640  -32.5460 O.3   149  SER149     -0.2179
     46  N        -24.8320  -38.9890  -31.8760 N.am  150  LEU150     -0.1963
     47  CA       -24.3920  -38.3180  -30.6630 C.3   150  LEU150      0.1728
     48  C        -23.8490  -36.9290  -30.9790 C.2   150  LEU150      0.2616
     49  O        -23.0840  -36.7490  -31.9310 O.2   150  LEU150     -0.2715
     50  CB       -23.3230  -39.1580  -29.9680 C.3   150  LEU150      0.0311
     51  CG       -22.5900  -38.5780  -28.7570 C.3   150  LEU150      0.0022
     52  CD1      -23.5240  -38.4590  -27.5680 C.3   150  LEU150      0.0001
     53  CD2      -21.4090  -39.4640  -28.4250 C.3   150  LEU150      0.0001
     54  N        -24.2440  -35.9410  -30.1750 N.am  151  ASN151     -0.1972
     55  CA       -23.6340  -34.6210  -30.2830 C.3   151  ASN151      0.1688
     56  C        -22.2050  -34.6950  -29.7790 C.2   151  ASN151      0.2292
     57  O        -21.9700  -35.0420  -28.6150 O.2   151  ASN151     -0.2864
     58  CB       -24.4060  -33.5880  -29.4780 C.3   151  ASN151      0.1181
     59  CG       -25.7490  -33.2950  -30.0760 C.2   151  ASN151      0.2629
     60  OD1      -25.8390  -32.9270  -31.2420 O.2   151  ASN151     -0.2716
     61  ND2      -26.8050  -33.4590  -29.2900 N.am  151  ASN151     -0.0877
     62  N        -15.8590  -35.2920  -37.9090 N.3   170  GLY170     -0.1210
     63  CA       -17.2200  -35.6220  -37.5370 C.3   170  GLY170      0.1956
     64  C        -17.7610  -34.8700  -36.3320 C.2   170  GLY170      0.2612
     65  O        -18.8730  -35.1550  -35.8790 O.2   170  GLY170     -0.2717
     66  N        -17.0010  -33.9240  -35.7880 N.am  171  ALA171     -0.1965
     67  CA       -17.5300  -33.0930  -34.7170 C.3   171  ALA171      0.1728
     68  C        -18.6350  -32.2050  -35.2660 C.2   171  ALA171      0.2616
     69  O        -18.5030  -31.6310  -36.3490 O.2   171  ALA171     -0.2715
     70  CB       -16.4290  -32.2090  -34.1100 C.3   171  ALA171      0.0334
     71  N        -19.7270  -32.0700  -34.5250 N.am  172  ASN172     -0.1972
     72  CA       -20.7340  -31.1360  -34.9970 C.3   172  ASN172      0.1688
     73  C        -20.7520  -29.8210  -34.2260 C.2   172  ASN172      0.2292
     74  O        -21.5270  -28.9360  -34.5880 O.2   172  ASN172     -0.2864
     75  CB       -22.1220  -31.7900  -35.0310 C.3   172  ASN172      0.1181
     76  CG       -22.5450  -32.4100  -33.7120 C.2   172  ASN172      0.2629
     77  OD1      -22.0390  -33.4560  -33.2920 O.2   172  ASN172     -0.2716
     78  ND2      -23.5320  -31.7960  -33.0840 N.am  172  ASN172     -0.0877
     79  N        -21.4080  -25.3700  -39.1490 N.3   212  ILE212     -0.1245
     80  CA       -21.0470  -25.9270  -37.8450 C.3   212  ILE212      0.1561
     81  C        -20.9070  -24.7930  -36.8270 C.2   212  ILE212      0.2260
     82  O        -20.1790  -23.8270  -37.0940 O.2   212  ILE212     -0.2867
     83  CB       -19.7400  -26.7410  -37.9350 C.3   212  ILE212      0.0252
     84  CG1      -19.9470  -27.9950  -38.7920 C.3   212  ILE212      0.0019
     85  CG2      -19.2440  -27.1010  -36.5530 C.3   212  ILE212      0.0019
     86  CD1      -21.0100  -28.9520  -38.2660 C.3   212  ILE212      0.0001
@<TRIPOS>BOND
     1    79    80    1
     2    84    86    1
     3    84    83    1
     4    15    13   ar
     5    14    13   ar
     6    83    80    1
     7    83    85    1
     8    62    63    1
     9    80    81    1
    10    13    12    1
    11    63    64    1
    12    82    81    2
    13    27    28    1
    14    27    26    1
    15    37    38    1
    16    37    34    1
    17    28    29    1
    18    69    68    2
    19    64    65    2
    20    64    66   am
    21    12    11    1
    22    38    39    1
    23    29    30    2
    24    36    35    2
    25    66    67    1
    26    26    23    1
    27    25    24    2
    28    34    35    1
    29    34    33    1
    30    24    23    1
    31    68    67    1
    32    68    71   am
    33    35    40   am
    34    11     8    1
    35    75    72    1
    36    75    76    1
    37    72    71    1
    38    72    73    1
    39    30    32    1
    40    30    31    1
    41    67    70    1
    42    23    22    1
    43    74    73    2
    44    39    33    1
    45    40    41    1
    46     7     8    1
    47     7     3   am
    48     8     9    1
    49    41    44    1
    50    41    42    1
    51    76    77    2
    52    76    78   am
    53    44    45    1
    54     2     3    1
    55     2     5    1
    56     2     1    1
    57     3     4    2
    58     5     6    1
    59     9    10    2
    60     9    16   am
    61    42    43    2
    62    42    46   am
    63    49    48    2
    64    46    47    1
    65    16    17    1
    66    60    59    2
    67    48    47    1
    68    48    54   am
    69    21    20    1
    70    47    50    1
    71    20    17    1
    72    17    18    1
    73    55    54    1
    74    55    56    1
    75    55    58    1
    76    59    58    1
    77    59    61   am
    78    50    51    1
    79    56    57    2
    80    18    19    2
    81    51    53    1
    82    51    52    1
