@<TRIPOS>MOLECULE
tmp/6mguB00.pdb
 168 158 0 0 0
SMALL
GASTEIGER

@<TRIPOS>ATOM
      1  N        -23.1080  -20.3420   27.7570 N.3    51  ALA51      -0.1245
      2  CA       -24.2170  -19.4830   27.3540 C.3    51  ALA51       0.1562
      3  C        -24.1730  -18.1270   28.0530 C.2    51  ALA51       0.2260
      4  O        -23.7140  -18.0000   29.1890 O.2    51  ALA51      -0.2867
      5  CB       -25.5510  -20.1690   27.6440 C.3    51  ALA51       0.0290
      6  N        -25.9110  -16.3370   29.9940 N.3    53  MET53      -0.1245
      7  CA       -27.0140  -16.3650   30.9400 C.3    53  MET53       0.1570
      8  C        -26.5280  -15.9730   32.3290 C.2    53  MET53       0.2261
      9  O        -25.3790  -16.2320   32.7020 O.2    53  MET53      -0.2867
     10  CB       -27.6620  -17.7520   30.9730 C.3    53  MET53       0.0387
     11  CG       -28.0840  -18.2490   29.5810 C.3    53  MET53       0.0595
     12  SD       -28.6480  -19.9640   29.5700 S.3    53  MET53      -0.1393
     13  CE       -30.1260  -19.8770   30.5700 C.3    53  MET53       0.0692
     14  N        -34.8200  -13.5420   21.1390 N.3   128  ALA128     -0.1245
     15  CA       -35.6640  -14.7290   21.0750 C.3   128  ALA128      0.1562
     16  C        -35.9930  -15.0990   19.6350 C.2   128  ALA128      0.2260
     17  O        -36.0620  -16.2870   19.2950 O.2   128  ALA128     -0.2867
     18  CB       -36.9460  -14.5050   21.8730 C.3   128  ALA128      0.0290
     19  N        -31.3860  -15.7510   17.8520 N.3   155  ASN155     -0.1240
     20  CA       -31.3280  -17.1460   17.4250 C.3   155  ASN155      0.1653
     21  C        -32.2520  -17.4070   16.2580 C.2   155  ASN155      0.2266
     22  O        -33.2820  -16.7510   16.1200 O.2   155  ASN155     -0.2867
     23  CB       -31.7110  -18.0760   18.5700 C.3   155  ASN155      0.1155
     24  CG       -30.5410  -18.4240   19.4270 C.2   155  ASN155      0.2627
     25  OD1      -29.5770  -17.6700   19.4890 O.2   155  ASN155     -0.2716
     26  ND2      -30.6000  -19.5730   20.0800 N.am  155  ASN155     -0.0877
     27  N        -26.1750  -18.0450   15.3590 N.3   174  LYS174     -0.1245
     28  CA       -26.5310  -18.8890   16.4990 C.3   174  LYS174      0.1561
     29  C        -27.9040  -19.5160   16.2760 C.2   174  LYS174      0.2260
     30  O        -28.8850  -18.8040   16.0210 O.2   174  LYS174     -0.2867
     31  CB       -26.5260  -18.0910   17.8010 C.3   174  LYS174      0.0271
     32  CG       -26.5700  -18.9880   19.0540 C.3   174  LYS174      0.0035
     33  CD       -25.7630  -18.4260   20.2340 C.3   174  LYS174      0.0206
     34  CE       -26.4330  -17.2060   20.8520 C.3   174  LYS174      0.1093
     35  NZ       -27.7040  -17.5450   21.5400 N.3   174  LYS174     -0.1314
     36  N        -36.1140  -22.9000   21.0770 N.3   178  GLY178     -0.1210
     37  CA       -36.8720  -23.7520   21.9600 C.3   178  GLY178      0.1940
     38  C        -36.2580  -25.0160   22.5620 C.2   178  GLY178      0.2454
     39  O        -36.8850  -25.6180   23.4370 O.2   178  GLY178     -0.2732
     40  N        -35.0680  -25.4770   22.1430 N.am  179  PRO179     -0.2717
     41  CA       -34.5910  -26.7560   22.6880 C.3   179  PRO179      0.1536
     42  C        -34.0020  -26.6410   24.0780 C.2   179  PRO179      0.2599
     43  O        -33.6580  -27.6740   24.6660 O.2   179  PRO179     -0.2715
     44  CB       -33.5220  -27.1870   21.6770 C.3   179  PRO179      0.0310
     45  CG       -32.9110  -25.9210   21.2800 C.3   179  PRO179      0.0237
     46  CD       -34.0370  -24.8970   21.2580 C.3   179  PRO179      0.0939
     47  N        -33.8980  -25.4310   24.6200 N.am  180  GLY180     -0.1941
     48  CA       -33.1850  -25.2500   25.8740 C.3   180  GLY180      0.2014
     49  C        -33.8330  -26.0360   27.0000 C.2   180  GLY180      0.2640
     50  O        -35.0540  -26.1950   27.0500 O.2   180  GLY180     -0.2714
     51  N        -32.9930  -26.5380   27.9090 N.am  181  SER181     -0.1935
     52  CA       -33.4820  -27.3580   29.0120 C.3   181  SER181      0.2055
     53  C        -34.4300  -26.5840   29.9170 C.2   181  SER181      0.2643
     54  O        -35.3200  -27.1790   30.5360 O.2   181  SER181     -0.2714
     55  CB       -32.2990  -27.8880   29.8140 C.3   181  SER181      0.2130
     56  OG       -31.5440  -26.8140   30.3490 O.3   181  SER181     -0.2179
     57  N        -34.2620  -25.2650   29.9980 N.am  182  ILE182     -0.1963
     58  CA       -35.1020  -24.4050   30.8220 C.3   182  ILE182      0.1727
     59  C        -36.1510  -23.6650   29.9980 C.2   182  ILE182      0.2616
     60  O        -36.8170  -22.7620   30.5170 O.2   182  ILE182     -0.2715
     61  CB       -34.2430  -23.4140   31.6300 C.3   182  ILE182      0.0290
     62  CG1      -33.2380  -22.6590   30.7450 C.3   182  ILE182      0.0022
     63  CG2      -33.4880  -24.1450   32.7300 C.3   182  ILE182      0.0023
     64  CD1      -33.8100  -21.8850   29.5500 C.3   182  ILE182      0.0001
     65  N        -36.3030  -24.0130   28.7220 N.am  183  CYS183     -0.1968
     66  CA       -37.0830  -23.2160   27.7890 C.3   183  CYS183      0.1712
     67  C        -38.5130  -23.7330   27.6810 C.2   183  CYS183      0.2296
     68  O        -38.7460  -24.9450   27.6260 O.2   183  CYS183     -0.2864
     69  CB       -36.4140  -23.2310   26.4130 C.3   183  CYS183      0.0983
     70  SG       -37.0510  -22.0080   25.2500 S.3   183  CYS183     -0.0798
     71  N        -40.6080  -21.8710   25.3260 N.3   185  THR185     -0.1218
     72  CA       -41.0870  -21.1960   24.1190 C.3   185  THR185      0.1862
     73  C        -42.0040  -22.0950   23.3000 C.2   185  THR185      0.2287
     74  O        -43.0670  -21.6620   22.8370 O.2   185  THR185     -0.2866
     75  CB       -39.8940  -20.7370   23.2770 C.3   185  THR185      0.1770
     76  OG1      -39.2190  -19.6670   23.9540 O.3   185  THR185     -0.2211
     77  CG2      -40.3430  -20.2670   21.8970 C.3   185  THR185      0.0375
     78  N        -27.0610  -24.0750   19.6410 N.3   216  ASP216     -0.1225
     79  CA       -27.3510  -23.4890   20.9500 C.3   216  ASP216      0.1805
     80  C        -28.5960  -24.1360   21.5550 C.2   216  ASP216      0.2598
     81  O        -29.7150  -23.8810   21.0980 O.2   216  ASP216     -0.2718
     82  CB       -27.5370  -21.9800   20.8060 C.3   216  ASP216      0.1424
     83  CG       -27.9160  -21.3010   22.1070 C.2   216  ASP216      0.3668
     84  OD1      -27.7250  -21.8960   23.1950 O.co2 216  ASP216     -0.2456
     85  OD2      -28.4060  -20.1530   22.0340 O.co2 216  ASP216     -0.2456
     86  N        -28.4060  -24.9460   22.5870 N.am  217  GLY217     -0.1942
     87  CA       -29.5020  -25.4120   23.4160 C.3   217  GLY217      0.2014
     88  C        -29.8360  -26.8800   23.1860 C.2   217  GLY217      0.2639
     89  O        -29.6570  -27.4280   22.0900 O.2   217  GLY217     -0.2714
     90  N        -30.3480  -27.5260   24.2370 N.am  218  GLY218     -0.1939
     91  CA       -30.8370  -28.8880   24.1270 C.3   218  GLY218      0.2014
     92  C        -29.8100  -29.9880   24.3050 C.2   218  GLY218      0.2638
     93  O        -30.1760  -31.1670   24.2540 O.2   218  GLY218     -0.2714
     94  N        -28.5440  -29.6570   24.5080 N.am  219  ILE219     -0.1977
     95  CA       -27.5080  -30.6670   24.6910 C.3   219  ILE219      0.1596
     96  C        -27.4780  -31.0740   26.1580 C.2   219  ILE219      0.2287
     97  O        -27.2140  -30.2460   27.0340 O.2   219  ILE219     -0.2864
     98  CB       -26.1420  -30.1480   24.2230 C.3   219  ILE219      0.0276
     99  CG1      -26.1460  -30.0290   22.6930 C.3   219  ILE219      0.0022
    100  CG2      -25.0230  -31.0620   24.7030 C.3   219  ILE219      0.0022
    101  CD1      -25.1570  -29.0350   22.1590 C.3   219  ILE219      0.0001
    102  N        -23.2400  -24.3050   22.0850 N.3   237  MET237     -0.1230
    103  CA       -23.4400  -23.4580   23.2530 C.3   237  MET237      0.1702
    104  C        -24.2150  -24.2440   24.2990 C.2   237  MET237      0.2592
    105  O        -25.2740  -24.8050   24.0000 O.2   237  MET237     -0.2718
    106  CB       -24.1870  -22.1710   22.8930 C.3   237  MET237      0.0401
    107  CG       -24.5090  -21.3150   24.1130 C.3   237  MET237      0.0596
    108  SD       -25.1220  -19.6700   23.7200 S.3   237  MET237     -0.1393
    109  CE       -23.5940  -18.8250   23.3380 C.3   237  MET237      0.0692
    110  N        -23.6940  -24.2660   25.5240 N.am  238  LEU238     -0.1966
    111  CA       -24.2550  -25.0570   26.6110 C.3   238  LEU238      0.1728
    112  C        -24.7100  -24.1410   27.7350 C.2   238  LEU238      0.2617
    113  O        -23.9710  -23.2380   28.1470 O.2   238  LEU238     -0.2715
    114  CB       -23.2320  -26.0660   27.1530 C.3   238  LEU238      0.0311
    115  CG       -22.5970  -27.0500   26.1650 C.3   238  LEU238      0.0022
    116  CD1      -21.7820  -28.0960   26.9080 C.3   238  LEU238      0.0001
    117  CD2      -23.6630  -27.7030   25.3250 C.3   238  LEU238      0.0001
    118  N        -25.9160  -24.3930   28.2370 N.am  239  GLY239     -0.1940
    119  CA       -26.3940  -23.7510   29.4410 C.3   239  GLY239      0.2014
    120  C        -26.3850  -24.7130   30.6100 C.2   239  GLY239      0.2639
    121  O        -25.5550  -24.5820   31.5150 O.2   239  GLY239     -0.2714
    122  N        -27.2820  -25.7030   30.5820 N.am  240  SER240     -0.1949
    123  CA       -27.4610  -26.5880   31.7300 C.3   240  SER240      0.1924
    124  C        -26.1930  -27.3680   32.0590 C.2   240  SER240      0.2314
    125  O        -25.8490  -27.5330   33.2340 O.2   240  SER240     -0.2863
    126  CB       -28.6190  -27.5510   31.4760 C.3   240  SER240      0.2116
    127  OG       -28.2520  -28.5370   30.5350 O.3   240  SER240     -0.2180
    128  N        -30.3900  -22.6560   38.2430 N.3   263  TYR263     -0.1241
    129  CA       -30.3500  -22.5010   36.7930 C.3   263  TYR263      0.1605
    130  C        -31.7320  -22.0610   36.3360 C.2   263  TYR263      0.2264
    131  O        -32.7310  -22.7070   36.6650 O.2   263  TYR263     -0.2867
    132  CB       -29.9360  -23.7980   36.0890 C.3   263  TYR263      0.0534
    133  CG       -29.8040  -23.6560   34.5900 C.ar  263  TYR263     -0.0201
    134  CD1      -29.1690  -22.5560   34.0300 C.ar  263  TYR263     -0.0009
    135  CD2      -30.3240  -24.6210   33.7320 C.ar  263  TYR263     -0.0009
    136  CE1      -29.0520  -22.4210   32.6510 C.ar  263  TYR263      0.0417
    137  CE2      -30.2150  -24.4940   32.3540 C.ar  263  TYR263      0.0417
    138  CZ       -29.5740  -23.3910   31.8230 C.ar  263  TYR263      0.1957
    139  OH       -29.4560  -23.2480   30.4620 O.3   263  TYR263     -0.2866
    140  N        -34.0100  -19.8570   33.0130 N.3   265  GLY265     -0.1210
    141  CA       -34.0010  -19.2450   31.7030 C.3   265  GLY265      0.1956
    142  C        -33.9310  -17.7350   31.8050 C.2   265  GLY265      0.2612
    143  O        -34.4390  -17.1250   32.7460 O.2   265  GLY265     -0.2717
    144  N        -33.2730  -17.1190   30.8220 N.am  266  MET266     -0.1965
    145  CA       -33.2170  -15.6640   30.7880 C.3   266  MET266      0.1736
    146  C        -34.5720  -15.0380   30.4880 C.2   266  MET266      0.2617
    147  O        -34.7140  -13.8160   30.6110 O.2   266  MET266     -0.2715
    148  CB       -32.1790  -15.1970   29.7640 C.3   266  MET266      0.0427
    149  CG       -30.7450  -15.4500   30.2040 C.3   266  MET266      0.0599
    150  SD       -30.2290  -14.3820   31.5720 S.3   266  MET266     -0.1393
    151  CE       -29.8810  -12.8650   30.6830 C.3   266  MET266      0.0692
    152  N        -35.5650  -15.8390   30.1090 N.am  267  GLY267     -0.1955
    153  CA       -36.9080  -15.3420   29.9060 C.3   267  GLY267      0.1869
    154  C        -37.8620  -15.8030   30.9870 C.2   267  GLY267      0.2309
    155  O        -39.0810  -15.7920   30.7940 O.2   267  GLY267     -0.2863
    156  N        -41.1700  -17.2480   28.8690 N.3   277  GLU277     -0.1231
    157  CA       -40.8570  -18.3810   28.0080 C.3   277  GLU277      0.1699
    158  C        -39.7390  -19.2320   28.5990 C.2   277  GLU277      0.2592
    159  O        -39.0890  -19.9890   27.8730 O.2   277  GLU277     -0.2718
    160  CB       -40.4900  -17.9040   26.6020 C.3   277  GLU277      0.0402
    161  CG       -41.6340  -17.2100   25.8940 C.3   277  GLU277      0.1161
    162  CD       -41.2950  -16.8090   24.4650 C.2   277  GLU277      0.3649
    163  OE1      -41.8760  -15.8200   23.9790 O.co2 277  GLU277     -0.2457
    164  OE2      -40.4550  -17.4810   23.8310 O.co2 277  GLU277     -0.2457
    165  N        -39.5060  -19.1210   29.9100 N.am  278  GLY278     -0.1957
    166  CA       -38.5170  -19.9370   30.5850 C.3   278  GLY278      0.1869
    167  C        -38.9780  -20.2830   31.9840 C.2   278  GLY278      0.2309
    168  O        -39.9250  -19.6960   32.5130 O.2   278  GLY278     -0.2863
@<TRIPOS>BOND
     1    27    28    1
     2    30    29    2
     3    22    21    2
     4    21    20    1
     5    29    28    1
     6    28    31    1
     7    20    19    1
     8    20    23    1
     9    31    32    1
    10    23    24    1
    11    32    33    1
    12    17    16    2
    13    24    25    2
    14    24    26   am
    15    16    15    1
    16    78    79    1
    17    33    34    1
    18    82    79    1
    19    82    83    1
    20    34    35    1
    21    79    80    1
    22    15    14    1
    23    15    18    1
    24    36    37    1
    25    81    80    2
    26    46    45    1
    27    46    40    1
    28    45    44    1
    29    80    86   am
    30    44    41    1
    31    77    75    1
    32    37    38    1
    33    85    83   ar
    34   102   103    1
    35    89    88    2
    36    83    84   ar
    37    40    38   am
    38    40    41    1
    39   101    99    1
    40    38    39    2
    41    86    87    1
    42    41    42    1
    43    99    98    1
    44    74    73    2
    45   106   103    1
    46   106   107    1
    47    88    87    1
    48    88    90   am
    49   103   104    1
    50    75    76    1
    51    75    72    1
    52    73    72    1
    53   109   108    1
    54   108   107    1
    55   164   162   ar
    56   163   162   ar
    57   105   104    2
    58    42    47   am
    59    42    43    2
    60    72    71    1
    61    91    90    1
    62    91    92    1
    63    98    95    1
    64    98   100    1
    65    93    92    2
    66   104   110   am
    67    92    94   am
    68   162   161    1
    69    94    95    1
    70    47    48    1
    71    95    96    1
    72    70    69    1
    73   117   115    1
    74   110   111    1
    75    48    49    1
    76   161   160    1
    77    96    97    2
    78   115   116    1
    79   115   114    1
    80    69    66    1
    81   160   157    1
    82   111   114    1
    83   111   112    1
    84    49    50    2
    85    49    51   am
    86     2     5    1
    87     2     1    1
    88     2     3    1
    89    68    67    2
    90    67    66    1
    91   112   113    2
    92   112   118   am
    93    66    65    1
    94   159   158    2
    95    51    52    1
    96   157   158    1
    97   157   156    1
    98     3     4    2
    99   118   119    1
   100   158   165   am
   101    65    59   am
   102    52    55    1
   103    52    53    1
   104   119   120    1
   105    64    62    1
   106    12    11    1
   107    12    13    1
   108    11    10    1
   109   148   149    1
   110   148   145    1
   111    55    56    1
   112   153   152    1
   113   153   154    1
   114   165   166    1
   115    53    57   am
   116    53    54    2
   117     6     7    1
   118    59    60    2
   119    59    58    1
   120    57    58    1
   121   152   146   am
   122   149   150    1
   123   139   138    1
   124   146   147    2
   125   146   145    1
   126   127   126    1
   127   122   120   am
   128   122   123    1
   129   166   167    1
   130   120   121    2
   131   151   150    1
   132    62    61    1
   133   145   144    1
   134   155   154    2
   135    58    61    1
   136   144   142   am
   137     7    10    1
   138     7     8    1
   139   126   123    1
   140    61    63    1
   141   141   142    1
   142   141   140    1
   143   123   124    1
   144   142   143    2
   145   138   137   ar
   146   138   136   ar
   147   167   168    2
   148   124   125    2
   149     8     9    2
   150   137   135   ar
   151   136   134   ar
   152   135   133   ar
   153   134   133   ar
   154   133   132    1
   155   132   129    1
   156   130   131    2
   157   130   129    1
   158   129   128    1
