@<TRIPOS>MOLECULE
tmp/6mhbF00.pdb
 133 130 0 0 0
SMALL
GASTEIGER

@<TRIPOS>ATOM
      1  N        -28.3000   33.3670    4.3110 N.3    24  MET24      -0.1245
      2  CA       -28.8960   34.5730    4.8750 C.3    24  MET24       0.1570
      3  C        -30.4130   34.3320    4.7640 C.2    24  MET24       0.2261
      4  O        -30.9190   34.1910    3.6600 O.2    24  MET24      -0.2867
      5  CB       -28.4070   35.8410    4.1350 C.3    24  MET24       0.0387
      6  CG       -28.5720   37.1590    4.9370 C.3    24  MET24       0.0595
      7  SD       -30.0330   37.3100    6.0460 S.3    24  MET24      -0.1393
      8  CE       -30.8500   38.7220    5.3720 C.3    24  MET24       0.0692
      9  N        -33.1850   35.6850    4.5310 N.3    26  PHE26      -0.1227
     10  CA       -34.0970   36.3790    3.6240 C.3    26  PHE26       0.1736
     11  C        -33.4870   36.6440    2.2700 C.2    26  PHE26       0.2596
     12  O        -33.9880   37.4860    1.5180 O.2    26  PHE26      -0.2718
     13  CB       -34.5190   37.6940    4.2590 C.3    26  PHE26       0.0547
     14  CG       -35.2500   37.5220    5.5610 C.ar   26  PHE26      -0.0202
     15  CD1      -36.6130   37.2380    5.5780 C.ar   26  PHE26      -0.0042
     16  CD2      -34.5790   37.6390    6.7730 C.ar   26  PHE26      -0.0042
     17  CE1      -37.2960   37.0950    6.7870 C.ar   26  PHE26      -0.0003
     18  CE2      -35.2590   37.4770    7.9810 C.ar   26  PHE26      -0.0003
     19  CZ       -36.6160   37.2180    7.9800 C.ar   26  PHE26      -0.0000
     20  N        -32.4180   35.9210    1.9490 N.am   27  CYS27      -0.1957
     21  CA       -31.7140   36.1030    0.6950 C.3    27  CYS27       0.1828
     22  C        -32.3090   35.2080   -0.3750 C.2    27  CYS27       0.2467
     23  O        -32.3110   33.9880   -0.2140 O.2    27  CYS27      -0.2730
     24  CB       -30.2170   35.8680    0.8530 C.3    27  CYS27       0.0996
     25  SG       -29.2770   36.1230   -0.6740 S.3    27  CYS27      -0.0797
     26  N        -32.8210   35.8010   -1.4800 N.am   28  PRO28      -0.2715
     27  CA       -33.4230   34.9820   -2.5480 C.3    28  PRO28       0.1536
     28  C        -32.3890   34.0960   -3.2680 C.2    28  PRO28       0.2598
     29  O        -32.7330   32.9890   -3.6840 O.2    28  PRO28      -0.2715
     30  CB       -34.0500   36.0200   -3.4790 C.3    28  PRO28       0.0310
     31  CG       -33.3390   37.2840   -3.2070 C.3    28  PRO28       0.0237
     32  CD       -32.8910   37.2450   -1.7930 C.3    28  PRO28       0.0939
     33  N        -31.1220   34.5630   -3.3870 N.am   29  PHE29      -0.1974
     34  CA       -30.0580   33.7980   -4.0340 C.3    29  PHE29       0.1639
     35  C        -29.7360   32.5440   -3.2290 C.2    29  PHE29       0.2290
     36  O        -29.6400   31.4670   -3.8060 O.2    29  PHE29      -0.2864
     37  CB       -28.8070   34.6410   -4.2250 C.3    29  PHE29       0.0560
     38  CG       -29.0320   35.8780   -5.0500 C.ar   29  PHE29      -0.0200
     39  CD1      -28.9290   35.8350   -6.4400 C.ar   29  PHE29      -0.0042
     40  CD2      -29.2940   37.1020   -4.4390 C.ar   29  PHE29      -0.0042
     41  CE1      -29.0900   36.9870   -7.1990 C.ar   29  PHE29      -0.0003
     42  CE2      -29.4240   38.2530   -5.1920 C.ar   29  PHE29      -0.0003
     43  CZ       -29.3140   38.1890   -6.5700 C.ar   29  PHE29      -0.0000
     44  N        -24.7060   39.6860    6.6100 N.3    51  LEU51      -0.1245
     45  CA       -24.0610   40.3520    5.4870 C.3    51  LEU51       0.1561
     46  C        -23.9700   41.8680    5.6600 C.2    51  LEU51       0.2260
     47  O        -23.4010   42.5570    4.8090 O.2    51  LEU51      -0.2867
     48  CB       -24.7490   40.0050    4.1810 C.3    51  LEU51       0.0270
     49  CG       -24.9390   38.5210    3.9240 C.3    51  LEU51       0.0019
     50  CD1      -26.1410   38.3090    3.0590 C.3    51  LEU51       0.0001
     51  CD2      -23.6700   37.8820    3.3400 C.3    51  LEU51       0.0001
     52  N        -20.2280   36.9670   -0.6200 N.3    66  LEU66      -0.1231
     53  CA       -21.6590   36.7630   -0.8230 C.3    66  LEU66       0.1693
     54  C        -22.0920   35.3610   -0.4740 C.2    66  LEU66       0.2591
     55  O        -21.2890   34.4270   -0.5280 O.2    66  LEU66      -0.2718
     56  CB       -22.0790   37.0340   -2.2780 C.3    66  LEU66       0.0284
     57  CG       -21.8160   38.4160   -2.8850 C.3    66  LEU66       0.0019
     58  CD1      -22.2880   38.4560   -4.3290 C.3    66  LEU66       0.0001
     59  CD2      -22.4560   39.5290   -2.0560 C.3    66  LEU66       0.0001
     60  N        -23.3900   35.2140   -0.1410 N.am   67  VAL67      -0.1980
     61  CA       -24.0010   33.9210    0.1210 C.3    67  VAL67       0.1595
     62  C        -24.9130   33.6310   -1.1190 C.2    67  VAL67       0.2287
     63  O        -25.2770   34.5840   -1.8180 O.2    67  VAL67      -0.2864
     64  CB       -24.6910   33.7940    1.5090 C.3    67  VAL67       0.0276
     65  CG1      -23.6840   33.9630    2.6350 C.3    67  VAL67       0.0022
     66  CG2      -25.8640   34.7460    1.6780 C.3    67  VAL67       0.0022
     67  N        -35.7970   44.1660   -8.5870 N.3   122  VAL122     -0.1231
     68  CA       -36.2910   43.9190   -7.2310 C.3   122  VAL122      0.1692
     69  C        -35.4290   44.7190   -6.2270 C.2   122  VAL122      0.2592
     70  O        -35.9810   45.4430   -5.3970 O.2   122  VAL122     -0.2718
     71  CB       -36.3170   42.4040   -6.9120 C.3   122  VAL122      0.0266
     72  CG1      -36.3330   42.1230   -5.4040 C.3   122  VAL122      0.0020
     73  CG2      -37.4910   41.7280   -7.5940 C.3   122  VAL122      0.0020
     74  N        -34.1040   44.6310   -6.3690 N.am  123  GLY123     -0.1957
     75  CA       -33.1440   45.3540   -5.5470 C.3   123  GLY123      0.1869
     76  C        -33.3700   46.8540   -5.5380 C.2   123  GLY123      0.2309
     77  O        -33.3310   47.4710   -4.4730 O.2   123  GLY123     -0.2863
     78  N        -36.6050   49.4610   -3.4400 N.3   126  ILE126     -0.1245
     79  CA       -36.4300   49.7140   -2.0050 C.3   126  ILE126      0.1561
     80  C        -35.9900   51.1950   -1.8450 C.2   126  ILE126      0.2260
     81  O        -36.6740   51.9540   -1.1550 O.2   126  ILE126     -0.2867
     82  CB       -35.4950   48.7070   -1.2400 C.3   126  ILE126      0.0252
     83  CG1      -36.0190   47.2490   -1.2920 C.3   126  ILE126      0.0019
     84  CG2      -35.3690   49.1130    0.2390 C.3   126  ILE126      0.0019
     85  CD1      -35.2670   46.3120   -2.1350 C.3   126  ILE126      0.0001
     86  N        -37.9520   35.3220   -6.2750 N.3   171  TRP171     -0.1241
     87  CA       -38.3090   36.6990   -6.5830 C.3   171  TRP171      0.1605
     88  C        -39.8110   36.8520   -6.7060 C.2   171  TRP171      0.2264
     89  O        -40.3470   37.8040   -6.1470 O.2   171  TRP171     -0.2867
     90  CB       -37.5610   37.2000   -7.8230 C.3   171  TRP171      0.0550
     91  CG       -36.1130   37.4480   -7.4960 C.ar  171  TRP171      0.0003
     92  CD1      -35.5660   38.6170   -7.0570 C.ar  171  TRP171      0.0946
     93  CD2      -35.0820   36.4560   -7.3740 C.ar  171  TRP171      0.0152
     94  NE1      -34.2400   38.4320   -6.7450 N.ar  171  TRP171     -0.2442
     95  CE2      -33.9090   37.1180   -6.9530 C.ar  171  TRP171      0.0810
     96  CE3      -35.0260   35.0730   -7.6180 C.ar  171  TRP171      0.0012
     97  CZ2      -32.6890   36.4520   -6.7880 C.ar  171  TRP171      0.0191
     98  CZ3      -33.8170   34.4170   -7.4550 C.ar  171  TRP171      0.0001
     99  CH2      -32.6670   35.1040   -7.0460 C.ar  171  TRP171      0.0015
    100  N        -41.5900   36.9860   -3.3470 N.3   174  ARG174     -0.1245
    101  CA       -41.4590   38.2580   -2.6400 C.3   174  ARG174      0.1563
    102  C        -42.5140   39.2290   -3.1000 C.2   174  ARG174      0.2260
    103  O        -42.8420   40.1290   -2.3470 O.2   174  ARG174     -0.2867
    104  CB       -40.0840   38.9150   -2.8560 C.3   174  ARG174      0.0307
    105  CG       -38.8930   37.9880   -2.8190 C.3   174  ARG174      0.0489
    106  CD       -38.6220   37.4680   -1.4300 C.3   174  ARG174      0.2205
    107  NE       -37.8290   36.2400   -1.4290 N.pl3 174  ARG174     -0.0865
    108  CZ       -36.6300   36.1440   -0.8790 C.cat 174  ARG174      0.5346
    109  NH1      -36.0080   34.9790   -0.8340 N.pl3 174  ARG174      0.1354
    110  NH2      -36.0640   37.2030   -0.3180 N.pl3 174  ARG174      0.1354
    111  N        -38.0900   42.0800    7.7880 N.3   216  PHE216     -0.1241
    112  CA       -36.7350   42.1000    7.2340 C.3   216  PHE216      0.1605
    113  C        -36.5970   43.2840    6.2850 C.2   216  PHE216      0.2264
    114  O        -35.5320   43.8920    6.2200 O.2   216  PHE216     -0.2867
    115  CB       -36.3990   40.7760    6.5270 C.3   216  PHE216      0.0534
    116  CG       -35.4130   40.8960    5.3870 C.ar  216  PHE216     -0.0203
    117  CD1      -34.0540   41.0290    5.6320 C.ar  216  PHE216     -0.0042
    118  CD2      -35.8480   40.8910    4.0680 C.ar  216  PHE216     -0.0042
    119  CE1      -33.1520   41.1810    4.5810 C.ar  216  PHE216     -0.0003
    120  CE2      -34.9410   41.0340    3.0180 C.ar  216  PHE216     -0.0003
    121  CZ       -33.5980   41.1590    3.2820 C.ar  216  PHE216     -0.0000
    122  N        -33.9040   46.2830    6.5540 N.3   220  TYR220     -0.1241
    123  CA       -33.0310   46.2400    5.3710 C.3   220  TYR220      0.1605
    124  C        -32.9600   47.6340    4.7650 C.2   220  TYR220      0.2264
    125  O        -31.8580   48.1330    4.5240 O.2   220  TYR220     -0.2867
    126  CB       -33.5190   45.2140    4.3220 C.3   220  TYR220      0.0534
    127  CG       -32.6400   45.0930    3.1060 C.ar  220  TYR220     -0.0201
    128  CD1      -31.3390   44.6630    3.2050 C.ar  220  TYR220     -0.0009
    129  CD2      -33.0960   45.4220    1.8710 C.ar  220  TYR220     -0.0009
    130  CE1      -30.5030   44.5510    2.1030 C.ar  220  TYR220      0.0417
    131  CE2      -32.2670   45.3290    0.7520 C.ar  220  TYR220      0.0417
    132  CZ       -31.0170   44.8550    0.8700 C.ar  220  TYR220      0.1957
    133  OH       -30.2130   44.7800   -0.2680 O.3   220  TYR220     -0.2866
@<TRIPOS>BOND
     1    67    68    1
     2    90    91    1
     3    90    87    1
     4    96    98   ar
     5    96    93   ar
     6    73    71    1
     7    91    93   ar
     8    91    92   ar
     9    98    99   ar
    10    93    95   ar
    11    68    71    1
    12    68    69    1
    13    41    43   ar
    14    41    39   ar
    15    92    94   ar
    16    99    97   ar
    17    95    97   ar
    18    95    94   ar
    19    71    72    1
    20    88    87    1
    21    88    89    2
    22    87    86    1
    23    43    42   ar
    24    39    38   ar
    25    74    69   am
    26    74    75    1
    27    69    70    2
    28    75    76    1
    29    76    77    2
    30    42    40   ar
    31    38    40   ar
    32    38    37    1
    33    58    57    1
    34    37    34    1
    35    34    33    1
    36    34    35    1
    37    36    35    2
    38    29    28    2
    39    30    31    1
    40    30    27    1
    41    78    79    1
    42    33    28   am
    43   100   101    1
    44    28    27    1
    45    31    32    1
    46   102   101    1
    47   102   103    2
    48    57    56    1
    49    57    59    1
    50   104   105    1
    51   104   101    1
    52   105   106    1
    53    27    26    1
    54    56    53    1
    55    85    83    1
    56    79    80    1
    57    79    82    1
    58    80    81    2
    59    63    62    2
    60    32    26    1
    61    26    22   am
    62   106   107    1
    63   107   108    2
    64    83    82    1
    65    82    84    1
    66    62    61    1
    67   108   109    1
    68   108   110    1
    69    53    52    1
    70    53    54    1
    71    25    24    1
    72    55    54    2
    73    54    60   am
    74    22    23    2
    75    22    21    1
    76   133   132    1
    77    60    61    1
    78    61    64    1
    79    21    24    1
    80    21    20    1
    81   131   132   ar
    82   131   129   ar
    83   132   130   ar
    84    64    66    1
    85    64    65    1
    86    12    11    2
    87   129   127   ar
    88    20    11   am
    89   130   128   ar
    90    11    10    1
    91   120   121   ar
    92   120   118   ar
    93    50    49    1
    94   127   128   ar
    95   127   126    1
    96   121   119   ar
    97    51    49    1
    98    10    13    1
    99    10     9    1
   100     4     3    2
   101    49    48    1
   102   118   116   ar
   103     5     2    1
   104     5     6    1
   105    48    45    1
   106    13    14    1
   107     1     2    1
   108   126   123    1
   109   125   124    2
   110   119   117   ar
   111     3     2    1
   112   124   123    1
   113    47    46    2
   114     6     7    1
   115   123   122    1
   116     8     7    1
   117   116   117   ar
   118   116   115    1
   119    45    46    1
   120    45    44    1
   121    14    15   ar
   122    14    16   ar
   123    15    17   ar
   124   114   113    2
   125   113   112    1
   126   115   112    1
   127    16    18   ar
   128    17    19   ar
   129   112   111    1
   130    19    18   ar
