@<TRIPOS>MOLECULE
tmp/6mhbA00.pdb
 175 172 0 0 0
SMALL
GASTEIGER

@<TRIPOS>ATOM
      1  N         -6.1460    1.4530   -7.2940 N.3    24  MET24      -0.1245
      2  CA        -5.7880    2.7890   -7.7890 C.3    24  MET24       0.1570
      3  C         -4.2650    2.7730   -7.9150 C.2    24  MET24       0.2261
      4  O         -3.5730    2.5470   -6.9260 O.2    24  MET24      -0.2867
      5  CB        -6.3180    3.8850   -6.8500 C.3    24  MET24       0.0387
      6  CG        -6.4330    5.2410   -7.4910 C.3    24  MET24       0.0595
      7  SD        -7.3840    6.3250   -6.4120 S.3    24  MET24      -0.1393
      8  CE        -6.9220    7.9470   -7.0220 C.3    24  MET24       0.0692
      9  N         -1.4610    4.4640   -7.9570 N.3    26  PHE26      -0.1227
     10  CA        -0.4030    5.0150   -7.0820 C.3    26  PHE26       0.1736
     11  C         -0.7960    4.9670   -5.5990 C.2    26  PHE26       0.2596
     12  O         -0.0710    5.5080   -4.7560 O.2    26  PHE26      -0.2718
     13  CB        -0.0800    6.4550   -7.5210 C.3    26  PHE26       0.0547
     14  CG         0.4630    6.5160   -8.9270 C.ar   26  PHE26      -0.0202
     15  CD1        1.8060    6.2660   -9.1810 C.ar   26  PHE26      -0.0042
     16  CD2       -0.3740    6.8010  -10.0000 C.ar   26  PHE26      -0.0042
     17  CE1        2.3020    6.3040  -10.4770 C.ar   26  PHE26      -0.0003
     18  CE2        0.1190    6.8370  -11.3020 C.ar   26  PHE26      -0.0003
     19  CZ         1.4550    6.5880  -11.5330 C.ar   26  PHE26      -0.0000
     20  N         -1.9340    4.3240   -5.2770 N.am   27  CYS27      -0.1957
     21  CA        -2.4500    4.2730   -3.9160 C.3    27  CYS27       0.1828
     22  C         -1.6460    3.3100   -3.0260 C.2    27  CYS27       0.2467
     23  O         -1.5750    2.1030   -3.3000 O.2    27  CYS27      -0.2730
     24  CB        -3.9310    3.9280   -3.8940 C.3    27  CYS27       0.0996
     25  SG        -4.6460    3.9990   -2.2430 S.3    27  CYS27      -0.0797
     26  N         -1.0790    3.8290   -1.9160 N.am   28  PRO28      -0.2715
     27  CA        -0.2870    2.9650   -1.0310 C.3    28  PRO28       0.1536
     28  C         -1.1290    1.9070   -0.2930 C.2    28  PRO28       0.2598
     29  O         -0.6470    0.8030   -0.0420 O.2    28  PRO28      -0.2715
     30  CB         0.3710    3.9650   -0.0740 C.3    28  PRO28       0.0310
     31  CG        -0.4760    5.1820   -0.1200 C.3    28  PRO28       0.0237
     32  CD        -1.0540    5.2390   -1.4700 C.3    28  PRO28       0.0939
     33  N         -2.3900    2.2240    0.0290 N.am   29  PHE29      -0.1974
     34  CA        -3.2960    1.3090    0.7300 C.3    29  PHE29       0.1639
     35  C         -3.6220    0.0980   -0.1550 C.2    29  PHE29       0.2290
     36  O         -3.5380   -1.0490    0.3060 O.2    29  PHE29      -0.2864
     37  CB        -4.5840    2.0300    1.1290 C.3    29  PHE29       0.0560
     38  CG        -4.3650    3.2040    2.0500 C.ar   29  PHE29      -0.0200
     39  CD1       -4.2810    3.0210    3.4320 C.ar   29  PHE29      -0.0042
     40  CD2       -4.2640    4.5000    1.5430 C.ar   29  PHE29      -0.0042
     41  CE1       -4.0870    4.1100    4.2880 C.ar   29  PHE29      -0.0003
     42  CE2       -4.0750    5.5890    2.4010 C.ar   29  PHE29      -0.0003
     43  CZ        -3.9810    5.3870    3.7680 C.ar   29  PHE29      -0.0000
     44  N        -10.6820    7.4350   -7.8300 N.3    51  LEU51      -0.1245
     45  CA       -11.3750    7.8500   -6.6090 C.3    51  LEU51       0.1561
     46  C        -11.7750    9.3430   -6.6430 C.2    51  LEU51       0.2260
     47  O        -12.6680    9.7470   -5.8970 O.2    51  LEU51      -0.2867
     48  CB       -10.5330    7.5270   -5.3670 C.3    51  LEU51       0.0270
     49  CG       -10.9950    6.4190   -4.4260 C.3    51  LEU51       0.0019
     50  CD1      -11.2640    5.1410   -5.1710 C.3    51  LEU51       0.0001
     51  CD2       -9.9130    6.1820   -3.4090 C.3    51  LEU51       0.0001
     52  N        -13.7250    3.5590   -0.9040 N.3    66  LEU66      -0.1231
     53  CA       -12.2720    3.5200   -0.9240 C.3    66  LEU66       0.1693
     54  C        -11.7620    2.2250   -1.5220 C.2    66  LEU66       0.2591
     55  O        -12.4530    1.2060   -1.5010 O.2    66  LEU66      -0.2718
     56  CB       -11.7000    3.6580    0.5020 C.3    66  LEU66       0.0284
     57  CG       -12.0000    4.9120    1.3240 C.3    66  LEU66       0.0019
     58  CD1      -11.3210    4.8260    2.6750 C.3    66  LEU66       0.0001
     59  CD2      -11.5480    6.1660    0.6090 C.3    66  LEU66       0.0001
     60  N        -10.5230    2.2610   -2.0110 N.am   67  VAL67      -0.1980
     61  CA        -9.8370    1.0870   -2.5360 C.3    67  VAL67       0.1595
     62  C         -8.7360    0.7860   -1.5100 C.2    67  VAL67       0.2287
     63  O         -8.3580    1.7110   -0.7820 O.2    67  VAL67      -0.2864
     64  CB        -9.3490    1.1940   -4.0160 C.3    67  VAL67       0.0276
     65  CG1      -10.5250    1.3830   -4.9750 C.3    67  VAL67       0.0022
     66  CG2       -8.2730    2.2710   -4.2090 C.3    67  VAL67       0.0022
     67  N          0.7660    7.3500    7.5660 N.3   119  PRO119     -0.2116
     68  CA        -0.0710    7.6570    6.3990 C.3   119  PRO119      0.1372
     69  C         -0.7340    9.0390    6.4480 C.2   119  PRO119      0.2244
     70  O         -0.7110    9.7380    5.4320 O.2   119  PRO119     -0.2868
     71  CB        -1.0960    6.5210    6.3920 C.3   119  PRO119      0.0268
     72  CG        -0.3540    5.3870    6.9560 C.3   119  PRO119      0.0207
     73  CD         0.4270    6.0130    8.0910 C.3   119  PRO119      0.0892
     74  N          1.9010   11.7760    5.7950 N.3   122  VAL122     -0.1231
     75  CA         2.2100   11.7420    4.3680 C.3   122  VAL122      0.1692
     76  C          1.1430   12.5840    3.6290 C.2   122  VAL122      0.2592
     77  O          1.5170   13.4940    2.8810 O.2   122  VAL122     -0.2718
     78  CB         2.3270   10.2870    3.8410 C.3   122  VAL122      0.0266
     79  CG1        2.1510   10.2290    2.3380 C.3   122  VAL122      0.0020
     80  CG2        3.6620    9.6560    4.2470 C.3   122  VAL122      0.0020
     81  N         -0.1360   12.3470    3.9410 N.am  123  GLY123     -0.1957
     82  CA        -1.2660   13.0570    3.3590 C.3   123  GLY123      0.1869
     83  C         -1.1950   14.5570    3.5410 C.2   123  GLY123      0.2309
     84  O         -1.4020   15.3090    2.5810 O.2   123  GLY123     -0.2863
     85  N          1.5140   16.1640    1.2790 N.3   126  ILE126     -0.1245
     86  CA         1.0820   16.2560   -0.1220 C.3   126  ILE126      0.1561
     87  C          0.1390   17.4750   -0.3210 C.2   126  ILE126      0.2260
     88  O          0.2650   18.1790   -1.3250 O.2   126  ILE126     -0.2867
     89  CB         0.3960   14.9210   -0.5580 C.3   126  ILE126      0.0252
     90  CG1        1.3390   13.6930   -0.4770 C.3   126  ILE126      0.0019
     91  CG2       -0.2410   15.0290   -1.9290 C.3   126  ILE126      0.0019
     92  CD1        2.7270   13.8220   -1.0770 C.3   126  ILE126      0.0001
     93  N          4.5870    3.4120    2.1250 N.3   172  TRP172     -0.1241
     94  CA         4.8830    4.7790    2.5330 C.3   172  TRP172      0.1605
     95  C          6.3850    5.0730    2.4720 C.2   172  TRP172      0.2264
     96  O          6.7500    6.1500    1.9910 O.2   172  TRP172     -0.2867
     97  CB         4.2890    5.0730    3.9090 C.3   172  TRP172      0.0550
     98  CG         2.8040    5.2110    3.8060 C.ar  172  TRP172      0.0003
     99  CD1        2.1030    6.3610    3.5770 C.ar  172  TRP172      0.0946
    100  CD2        1.8570    4.1320    3.7030 C.ar  172  TRP172      0.0152
    101  NE1        0.7690    6.0730    3.4070 N.ar  172  TRP172     -0.2442
    102  CE2        0.5860    4.7140    3.4910 C.ar  172  TRP172      0.0810
    103  CE3        1.9580    2.7230    3.7900 C.ar  172  TRP172      0.0012
    104  CZ2       -0.5840    3.9420    3.3990 C.ar  172  TRP172      0.0191
    105  CZ3        0.8020    1.9610    3.6950 C.ar  172  TRP172      0.0001
    106  CH2       -0.4530    2.5690    3.5170 C.ar  172  TRP172      0.0015
    107  N          7.7630    5.6950   -1.0590 N.3   175  ARG175     -0.1245
    108  CA         7.4510    7.0330   -1.5770 C.3   175  ARG175      0.1563
    109  C          8.2930    8.1730   -0.9520 C.2   175  ARG175      0.2260
    110  O          8.2040    9.3090   -1.4330 O.2   175  ARG175     -0.2867
    111  CB         5.9510    7.3140   -1.3640 C.3   175  ARG175      0.0307
    112  CG         5.0500    6.5580   -2.3450 C.3   175  ARG175      0.0489
    113  CD         3.6400    6.3480   -1.7820 C.3   175  ARG175      0.2205
    114  NE         2.7280    5.6390   -2.6920 N.pl3 175  ARG175     -0.0865
    115  CZ         2.7510    4.3300   -2.9280 C.cat 175  ARG175      0.5346
    116  NH1        3.6930    3.5690   -2.3940 N.pl3 175  ARG175      0.1354
    117  NH2        1.8840    3.7870   -3.7640 N.pl3 175  ARG175      0.1354
    118  N         10.6430    9.9570   -3.4990 N.3   178  ALA178     -0.1231
    119  CA         9.8260   10.7870   -4.3960 C.3   178  ALA178      0.1694
    120  C          9.2820   12.0440   -3.7020 C.2   178  ALA178      0.2591
    121  O          9.1580   13.0830   -4.3320 O.2   178  ALA178     -0.2718
    122  CB         8.6750    9.9750   -4.9380 C.3   178  ALA178      0.0304
    123  N          8.9630   11.9460   -2.4040 N.am  179  MET179     -0.1979
    124  CA         8.4670   13.0670   -1.6020 C.3   179  MET179      0.1605
    125  C          9.6210   13.9920   -1.1440 C.2   179  MET179      0.2287
    126  O          9.3490   15.0350   -0.5370 O.2   179  MET179     -0.2864
    127  CB         7.6900   12.5430   -0.3870 C.3   179  MET179      0.0413
    128  CG         6.3520   11.9770   -0.7440 C.3   179  MET179      0.0598
    129  SD         5.5400   11.1370    0.6330 S.3   179  MET179     -0.1393
    130  CE         5.0200   12.5420    1.5900 C.3   179  MET179      0.0692
    131  N          6.3680    8.6240  -10.2640 N.3   214  TRP214     -0.1241
    132  CA         6.0990    9.1450   -8.9280 C.3   214  TRP214      0.1605
    133  C          5.9240   10.6660   -8.9560 C.2   214  TRP214      0.2264
    134  O          4.9530   11.1860   -8.4030 O.2   214  TRP214     -0.2867
    135  CB         7.2340    8.7740   -7.9470 C.3   214  TRP214      0.0550
    136  CG         7.1910    7.3870   -7.3580 C.ar  214  TRP214      0.0003
    137  CD1        8.2560    6.5590   -7.1630 C.ar  214  TRP214      0.0946
    138  CD2        6.0500    6.7080   -6.7970 C.ar  214  TRP214      0.0152
    139  NE1        7.8470    5.3930   -6.5570 N.ar  214  TRP214     -0.2442
    140  CE2        6.5010    5.4660   -6.3070 C.ar  214  TRP214      0.0810
    141  CE3        4.6840    7.0190   -6.6820 C.ar  214  TRP214      0.0012
    142  CZ2        5.6340    4.5280   -5.7330 C.ar  214  TRP214      0.0191
    143  CZ3        3.8280    6.0790   -6.1280 C.ar  214  TRP214      0.0001
    144  CH2        4.3030    4.8390   -5.6910 C.ar  214  TRP214      0.0015
    145  N          2.7090   11.7850  -11.0250 N.3   217  PHE217     -0.1227
    146  CA         1.5050   11.6200  -10.2310 C.3   217  PHE217      0.1736
    147  C          1.4140   12.7160   -9.1390 C.2   217  PHE217      0.2595
    148  O          0.3420   13.2760   -8.9270 O.2   217  PHE217     -0.2718
    149  CB         1.4750   10.2030   -9.6160 C.3   217  PHE217      0.0547
    150  CG         0.4670   10.0620   -8.5160 C.ar  217  PHE217     -0.0202
    151  CD1       -0.8840    9.9680   -8.8000 C.ar  217  PHE217     -0.0042
    152  CD2        0.8560   10.1010   -7.1940 C.ar  217  PHE217     -0.0042
    153  CE1       -1.8230    9.8860   -7.7790 C.ar  217  PHE217     -0.0003
    154  CE2       -0.0860   10.0240   -6.1790 C.ar  217  PHE217     -0.0003
    155  CZ        -1.4140    9.8900   -6.4800 C.ar  217  PHE217     -0.0000
    156  N          2.5420   13.0160   -8.4630 N.am  218  LEU218     -0.1980
    157  CA         2.5880   14.0180   -7.4030 C.3   218  LEU218      0.1596
    158  C          2.2150   15.4100   -7.9030 C.2   218  LEU218      0.2287
    159  O          1.4100   16.0860   -7.2550 O.2   218  LEU218     -0.2864
    160  CB         3.9570   14.0570   -6.7350 C.3   218  LEU218      0.0297
    161  CG         4.1920   13.0240   -5.6220 C.3   218  LEU218      0.0022
    162  CD1        5.5730   13.1880   -5.0260 C.3   218  LEU218      0.0001
    163  CD2        3.1430   13.1200   -4.5300 C.3   218  LEU218      0.0001
    164  N         -1.3660   15.4190   -8.2700 N.3   221  TYR221     -0.1241
    165  CA        -1.9890   15.3200   -6.9330 C.3   221  TYR221      0.1605
    166  C         -2.0380   16.7050   -6.2940 C.2   221  TYR221      0.2264
    167  O         -3.0770   17.0970   -5.7500 O.2   221  TYR221     -0.2867
    168  CB        -1.2230   14.3470   -6.0010 C.3   221  TYR221      0.0534
    169  CG        -2.0570   13.6960   -4.9110 C.ar  221  TYR221     -0.0201
    170  CD1       -2.1880   12.3170   -4.8430 C.ar  221  TYR221     -0.0009
    171  CD2       -2.7150   14.4600   -3.9480 C.ar  221  TYR221     -0.0009
    172  CE1       -2.9560   11.7040   -3.8500 C.ar  221  TYR221      0.0417
    173  CE2       -3.4980   13.8600   -2.9530 C.ar  221  TYR221      0.0417
    174  CZ        -3.6130   12.4770   -2.9100 C.ar  221  TYR221      0.1957
    175  OH        -4.3560   11.8430   -1.9380 O.3   221  TYR221     -0.2866
@<TRIPOS>BOND
     1    19    18   ar
     2    19    17   ar
     3    18    16   ar
     4   145   146    1
     5    17    15   ar
     6   131   132    1
     7   146   149    1
     8   146   147    1
     9    16    14   ar
    10   149   150    1
    11    15    14   ar
    12   147   148    2
    13   147   156   am
    14   133   132    1
    15   133   134    2
    16   132   135    1
    17    14    13    1
    18   151   150   ar
    19   151   153   ar
    20   150   152   ar
    21   156   157    1
    22   164   165    1
    23     9    10    1
    24   135   136    1
    25     3     2    1
    26     3     4    2
    27   158   157    1
    28   158   159    2
    29    44    45    1
    30     2     1    1
    31     2     5    1
    32   153   155   ar
    33    13    10    1
    34     6     5    1
    35     6     7    1
    36   157   160    1
    37   136   137   ar
    38   136   138   ar
    39   152   154   ar
    40   137   139   ar
    41    10    11    1
    42     8     7    1
    43   165   166    1
    44   165   168    1
    45   138   141   ar
    46   138   140   ar
    47   160   161    1
    48   141   143   ar
    49    46    45    1
    50    46    47    2
    51    45    48    1
    52   139   140   ar
    53   155   154   ar
    54   140   142   ar
    55   166   167    2
    56   143   144   ar
    57   168   169    1
    58   142   144   ar
    59   161   162    1
    60   161   163    1
    61    11    20   am
    62    11    12    2
    63    48    49    1
    64    20    21    1
    65    50    49    1
    66    65    64    1
    67   122   119    1
    68   169   170   ar
    69   169   171   ar
    70   170   172   ar
    71    49    51    1
    72   119   120    1
    73   119   118    1
    74   121   120    2
    75    66    64    1
    76    64    61    1
    77   171   173   ar
    78    21    24    1
    79    21    22    1
    80    24    25    1
    81   172   174   ar
    82   117   115    1
    83   120   123   am
    84    23    22    2
    85    22    26   am
    86   173   174   ar
    87   115   114    2
    88   115   116    1
    89   174   175    1
    90   114   113    1
    91    61    60    1
    92    61    62    1
    93   123   124    1
    94   112   113    1
    95   112   111    1
    96    60    54   am
    97    91    89    1
    98    26    32    1
    99    26    27    1
   100   124   125    1
   101   124   127    1
   102   108   111    1
   103   108   107    1
   104   108   109    1
   105    54    55    2
   106    54    53    1
   107    62    63    2
   108    32    31    1
   109   110   109    2
   110    88    87    2
   111   125   126    2
   112    92    90    1
   113    27    28    1
   114    27    30    1
   115    53    52    1
   116    53    56    1
   117   128   127    1
   118   128   129    1
   119    89    90    1
   120    89    86    1
   121    87    86    1
   122    28    29    2
   123    28    33   am
   124    35    36    2
   125    35    34    1
   126    86    85    1
   127    31    30    1
   128    33    34    1
   129    56    57    1
   130    59    57    1
   131   129   130    1
   132    34    37    1
   133    37    38    1
   134    57    58    1
   135    40    38   ar
   136    40    42   ar
   137    96    95    2
   138    38    39   ar
   139    93    94    1
   140    79    78    1
   141    42    43   ar
   142    95    94    1
   143    94    97    1
   144    84    83    2
   145    77    76    2
   146    82    83    1
   147    82    81    1
   148   104   102   ar
   149   104   106   ar
   150   101   102   ar
   151   101    99   ar
   152    39    41   ar
   153   102   100   ar
   154   106   105   ar
   155    99    98   ar
   156    76    81   am
   157    76    75    1
   158   105   103   ar
   159   100   103   ar
   160   100    98   ar
   161    43    41   ar
   162    98    97    1
   163    78    80    1
   164    78    75    1
   165    75    74    1
   166    70    69    2
   167    71    68    1
   168    71    72    1
   169    68    69    1
   170    68    67    1
   171    72    73    1
   172    67    73    1
