@<TRIPOS>MOLECULE
tmp/6mhcB00.pdb
 142 140 0 0 0
SMALL
GASTEIGER

@<TRIPOS>ATOM
      1  N         -2.7590   -1.3390  -11.3130 N.3    32  MET32      -0.1245
      2  CA        -2.9860   -0.1610  -12.1410 C.3    32  MET32       0.1570
      3  C         -2.2160   -0.4640  -13.4120 C.2    32  MET32       0.2261
      4  O         -1.0330   -0.8340  -13.3760 O.2    32  MET32      -0.2867
      5  CB        -2.5580    1.1510  -11.4930 C.3    32  MET32       0.0387
      6  CG        -3.2540    2.3760  -12.1120 C.3    32  MET32       0.0595
      7  SD        -2.3980    3.0800  -13.5590 S.3    32  MET32      -0.1393
      8  CE        -1.0710    3.9850  -12.7580 C.3    32  MET32       0.0692
      9  N         -0.6800    0.9750  -15.7670 N.3    34  PHE34      -0.1227
     10  CA         0.6070    1.5930  -16.1330 C.3    34  PHE34       0.1736
     11  C          1.5710    1.7300  -14.9800 C.2    34  PHE34       0.2596
     12  O          2.5960    2.4040  -15.1250 O.2    34  PHE34      -0.2718
     13  CB         0.4030    2.9510  -16.8500 C.3    34  PHE34       0.0547
     14  CG        -0.4730    2.8460  -18.0750 C.ar   34  PHE34      -0.0202
     15  CD1       -0.0120    2.2270  -19.2290 C.ar   34  PHE34      -0.0042
     16  CD2       -1.7830    3.3110  -18.0550 C.ar   34  PHE34      -0.0042
     17  CE1       -0.8460    2.0790  -20.3460 C.ar   34  PHE34      -0.0003
     18  CE2       -2.6000    3.1890  -19.1800 C.ar   34  PHE34      -0.0003
     19  CZ        -2.1280    2.5670  -20.3100 C.ar   34  PHE34      -0.0000
     20  N          1.2810    1.0540  -13.8510 N.am   35  CYS35      -0.1957
     21  CA         2.1700    1.0720  -12.6960 C.3    35  CYS35       0.1828
     22  C          3.2780    0.0400  -12.8780 C.2    35  CYS35       0.2467
     23  O          2.9810   -1.1610  -12.9080 O.2    35  CYS35      -0.2730
     24  CB         1.4350    0.8590  -11.3820 C.3    35  CYS35       0.0996
     25  SG         2.5490    0.8220   -9.9530 S.3    35  CYS35      -0.0797
     26  N          4.5610    0.4970  -12.9840 N.am   36  PRO36      -0.2715
     27  CA         5.6730   -0.4530  -13.1580 C.3    36  PRO36       0.1536
     28  C          5.8860   -1.3790  -11.9700 C.2    36  PRO36       0.2598
     29  O          6.2780   -2.5250  -12.1530 O.2    36  PRO36      -0.2715
     30  CB         6.8790    0.4650  -13.4240 C.3    36  PRO36       0.0310
     31  CG         6.5420    1.7490  -12.7170 C.3    36  PRO36       0.0237
     32  CD         5.0540    1.8920  -12.8980 C.3    36  PRO36       0.0939
     33  N          5.6110   -0.9190  -10.7590 N.am   37  PHE37      -0.1974
     34  CA         5.7620   -1.7880   -9.5780 C.3    37  PHE37       0.1639
     35  C          4.7390   -2.9400   -9.5860 C.2    37  PHE37       0.2290
     36  O          5.1200   -4.0680   -9.2680 O.2    37  PHE37      -0.2864
     37  CB         5.6560   -0.9650   -8.2850 C.3    37  PHE37       0.0560
     38  CG         6.7390    0.0790   -8.0900 C.ar   37  PHE37      -0.0200
     39  CD1        7.9990   -0.2820   -7.6200 C.ar   37  PHE37      -0.0042
     40  CD2        6.4650    1.4320   -8.2770 C.ar   37  PHE37      -0.0042
     41  CE1        8.9800    0.6820   -7.3850 C.ar   37  PHE37      -0.0003
     42  CE2        7.4440    2.4010   -8.0360 C.ar   37  PHE37      -0.0003
     43  CZ         8.6910    2.0170   -7.5760 C.ar   37  PHE37      -0.0000
     44  N         -5.5440    5.4430   -8.8820 N.3    59  LEU59      -0.1245
     45  CA        -4.5380    6.0360   -7.9980 C.3    59  LEU59       0.1561
     46  C         -4.7000    7.5330   -7.8020 C.2    59  LEU59       0.2260
     47  O         -4.2160    8.0640   -6.8020 O.2    59  LEU59      -0.2867
     48  CB        -3.1020    5.6800   -8.4750 C.3    59  LEU59       0.0270
     49  CG        -2.7640    4.1840   -8.5140 C.3    59  LEU59       0.0019
     50  CD1       -1.3560    3.9690   -8.9840 C.3    59  LEU59       0.0001
     51  CD2       -2.9540    3.5070   -7.1190 C.3    59  LEU59       0.0001
     52  N         -0.8720    1.6910   -1.5960 N.3    74  LEU74      -0.1231
     53  CA        -0.2000    1.4920   -2.8800 C.3    74  LEU74       0.1693
     54  C         -0.5030    0.1710   -3.5170 C.2    74  LEU74       0.2591
     55  O         -0.7220   -0.8060   -2.8180 O.2    74  LEU74      -0.2718
     56  CB         1.3150    1.5770   -2.6780 C.3    74  LEU74       0.0284
     57  CG         1.8750    2.8690   -2.0010 C.3    74  LEU74       0.0019
     58  CD1        3.3510    2.6920   -1.6710 C.3    74  LEU74       0.0001
     59  CD2        1.7380    4.0940   -2.9050 C.3    74  LEU74       0.0001
     60  N         -0.3960    0.1100   -4.8520 N.am   75  VAL75      -0.1980
     61  CA        -0.4760   -1.1500   -5.5870 C.3    75  VAL75       0.1595
     62  C          0.9640   -1.5700   -5.8600 C.2    75  VAL75       0.2287
     63  O          1.8520   -0.7030   -5.8840 O.2    75  VAL75      -0.2864
     64  CB        -1.3550   -1.0940   -6.8650 C.3    75  VAL75       0.0276
     65  CG1       -2.8080   -0.7760   -6.5080 C.3    75  VAL75       0.0022
     66  CG2       -0.8090   -0.1140   -7.8940 C.3    75  VAL75       0.0022
     67  N         11.2290    9.3080  -12.3650 N.3   131  GLY131     -0.1225
     68  CA        10.3030   10.2770  -11.7750 C.3   131  GLY131      0.1811
     69  C         10.7270   11.7070  -12.0740 C.2   131  GLY131      0.2280
     70  O          9.9490   12.4870  -12.6400 O.2   131  GLY131     -0.2866
     71  N         10.6780   12.6480  -16.0580 N.3   134  ILE134     -0.1231
     72  CA         9.3300   12.9130  -16.5640 C.3   134  ILE134      0.1692
     73  C          8.8230   14.3000  -16.0770 C.2   134  ILE134      0.2591
     74  O          7.9730   14.9120  -16.7260 O.2   134  ILE134     -0.2718
     75  CB         8.3870   11.7370  -16.1680 C.3   134  ILE134      0.0266
     76  CG1        8.7820   10.4280  -16.8800 C.3   134  ILE134      0.0019
     77  CG2        6.9360   12.0710  -16.4650 C.3   134  ILE134      0.0020
     78  CD1        8.1490    9.1210  -16.2750 C.3   134  ILE134      0.0001
     79  N          9.3590   14.7870  -14.9510 N.am  135  ARG135     -0.1980
     80  CA         9.0000   16.0930  -14.3910 C.3   135  ARG135      0.1597
     81  C          9.9200   17.2300  -14.8420 C.2   135  ARG135      0.2287
     82  O          9.6220   18.3850  -14.5400 O.2   135  ARG135     -0.2864
     83  CB         8.9600   16.0260  -12.8620 C.3   135  ARG135      0.0334
     84  CG         7.7470   15.3050  -12.3280 C.3   135  ARG135      0.0492
     85  CD         7.4600   15.7210  -10.9040 C.3   135  ARG135      0.2205
     86  NE         6.4040   14.9020  -10.3140 N.pl3 135  ARG135     -0.0865
     87  CZ         6.6270   13.8110   -9.5910 C.cat 135  ARG135      0.5346
     88  NH1        5.6100   13.1150   -9.0980 N.pl3 135  ARG135      0.1354
     89  NH2        7.8690   13.4020   -9.3610 N.pl3 135  ARG135      0.1354
     90  N          0.6530    4.7400  -22.9400 N.3   225  TRP225     -0.1241
     91  CA         1.5810    5.0690  -21.8610 C.3   225  TRP225      0.1605
     92  C          1.8600    6.5590  -21.7910 C.2   225  TRP225      0.2264
     93  O          1.7490    7.1410  -20.7210 O.2   225  TRP225     -0.2867
     94  CB         2.9030    4.2690  -21.9790 C.3   225  TRP225      0.0550
     95  CG         3.6790    4.2960  -20.6870 C.ar  225  TRP225      0.0003
     96  CD1        3.3770    3.6210  -19.5380 C.ar  225  TRP225      0.0946
     97  CD2        4.7370    5.1950  -20.3550 C.ar  225  TRP225      0.0152
     98  NE1        4.2150    4.0090  -18.5270 N.ar  225  TRP225     -0.2442
     99  CE2        5.0790    4.9580  -19.0040 C.ar  225  TRP225      0.0810
    100  CE3        5.4420    6.1780  -21.0750 C.ar  225  TRP225      0.0012
    101  CZ2        6.1170    5.6410  -18.3640 C.ar  225  TRP225      0.0191
    102  CZ3        6.4710    6.8540  -20.4420 C.ar  225  TRP225      0.0001
    103  CH2        6.8010    6.5860  -19.1040 C.ar  225  TRP225      0.0015
    104  N         -1.3340    8.4690  -20.7860 N.3   228  PHE228     -0.1227
    105  CA        -1.5590    8.2400  -19.3630 C.3   228  PHE228      0.1736
    106  C         -0.6200    9.1620  -18.5610 C.2   228  PHE228      0.2595
    107  O         -1.0600    9.8020  -17.6220 O.2   228  PHE228     -0.2718
    108  CB        -1.2740    6.7640  -18.9980 C.3   228  PHE228      0.0547
    109  CG        -0.7260    6.6150  -17.5960 C.ar  228  PHE228     -0.0202
    110  CD1       -1.5750    6.6490  -16.4930 C.ar  228  PHE228     -0.0042
    111  CD2        0.6510    6.4890  -17.3760 C.ar  228  PHE228     -0.0042
    112  CE1       -1.0610    6.5900  -15.1910 C.ar  228  PHE228     -0.0003
    113  CE2        1.1660    6.4340  -16.0740 C.ar  228  PHE228     -0.0003
    114  CZ         0.3070    6.4700  -14.9910 C.ar  228  PHE228     -0.0000
    115  N          0.6620    9.2150  -18.9470 N.am  229  LEU229     -0.1980
    116  CA         1.6860    9.9640  -18.2250 C.3   229  LEU229      0.1596
    117  C          1.3840   11.4740  -18.1290 C.2   229  LEU229      0.2287
    118  O          1.4630   12.0260  -17.0170 O.2   229  LEU229     -0.2864
    119  CB         3.0440    9.6670  -18.8280 C.3   229  LEU229      0.0297
    120  CG         4.2580   10.0990  -18.0350 C.3   229  LEU229      0.0022
    121  CD1        4.4260    9.2510  -16.7770 C.3   229  LEU229      0.0001
    122  CD2        5.4900   10.0330  -18.9010 C.3   229  LEU229      0.0001
    123  N         -1.4270   11.7620  -15.6770 N.3   232  TYR232     -0.1227
    124  CA        -0.9840   11.4070  -14.3140 C.3   232  TYR232      0.1736
    125  C         -0.2370   12.5750  -13.6840 C.2   232  TYR232      0.2595
    126  O         -0.4600   12.9030  -12.5100 O.2   232  TYR232     -0.2718
    127  CB        -0.0730   10.1610  -14.3330 C.3   232  TYR232      0.0548
    128  CG         0.1660    9.5580  -12.9630 C.ar  232  TYR232     -0.0200
    129  CD1       -0.7240    8.6330  -12.4210 C.ar  232  TYR232     -0.0009
    130  CD2        1.3050    9.8740  -12.2290 C.ar  232  TYR232     -0.0009
    131  CE1       -0.4820    8.0300  -11.1870 C.ar  232  TYR232      0.0417
    132  CE2        1.5290    9.3210  -10.9690 C.ar  232  TYR232      0.0417
    133  CZ         0.6490    8.3760  -10.4660 C.ar  232  TYR232      0.1957
    134  OH         0.8770    7.8170   -9.2300 O.3   232  TYR232     -0.2866
    135  N          0.6190   13.2300  -14.4830 N.am  233  LEU233     -0.1980
    136  CA         1.3780   14.3970  -14.0260 C.3   233  LEU233      0.1596
    137  C          0.4410   15.5470  -13.6840 C.2   233  LEU233      0.2287
    138  O          0.8010   16.3760  -12.8700 O.2   233  LEU233     -0.2864
    139  CB         2.3900   14.8460  -15.0930 C.3   233  LEU233      0.0297
    140  CG         3.6000   13.9440  -15.3150 C.3   233  LEU233      0.0022
    141  CD1        4.2520   14.2630  -16.6500 C.3   233  LEU233      0.0001
    142  CD2        4.5760   14.0590  -14.1870 C.3   233  LEU233      0.0001
@<TRIPOS>BOND
     1    90    91    1
     2    94    91    1
     3    94    95    1
     4    91    92    1
     5    92    93    2
     6   100   102   ar
     7   100    97   ar
     8   104   105    1
     9    95    97   ar
    10    95    96   ar
    11   102   103   ar
    12    97    99   ar
    13    17    19   ar
    14    17    15   ar
    15    19    18   ar
    16    96    98   ar
    17   105   108    1
    18   105   106    1
    19    15    14   ar
    20    18    16   ar
    21   103   101   ar
    22    99    98   ar
    23    99   101   ar
    24   108   109    1
    25   115   106   am
    26   115   116    1
    27   122   120    1
    28   119   116    1
    29   119   120    1
    30   106   107    2
    31   116   117    1
    32   117   118    2
    33    14    16   ar
    34    14    13    1
    35   120   121    1
    36   109   111   ar
    37   109   110   ar
    38   111   113   ar
    39    76    78    1
    40    76    75    1
    41    13    10    1
    42    74    73    2
    43   141   140    1
    44    72    75    1
    45    72    73    1
    46    72    71    1
    47   110   112   ar
    48    77    75    1
    49    10     9    1
    50    10    11    1
    51    73    79   am
    52   113   114   ar
    53   123   124    1
    54   140   139    1
    55   140   142    1
    56   112   114   ar
    57    12    11    2
    58   139   136    1
    59    11    20   am
    60    79    80    1
    61    81    82    2
    62    81    80    1
    63   135   136    1
    64   135   125   am
    65    80    83    1
    66   127   124    1
    67   127   128    1
    68   124   125    1
    69   136   137    1
    70    20    21    1
    71   125   126    2
    72   137   138    2
    73     7     8    1
    74     7     6    1
    75    30    27    1
    76    30    31    1
    77     3     4    2
    78     3     2    1
    79    27    26    1
    80    27    28    1
    81    26    32    1
    82    26    22   am
    83   128   129   ar
    84   128   130   ar
    85    23    22    2
    86    32    31    1
    87    22    21    1
    88    83    84    1
    89    21    24    1
    90    70    69    2
    91   129   131   ar
    92    67    68    1
    93    84    85    1
    94   130   132   ar
    95    29    28    2
    96     2     5    1
    97     2     1    1
    98     6     5    1
    99    69    68    1
   100    28    33   am
   101    24    25    1
   102   131   133   ar
   103   132   133   ar
   104    85    86    1
   105    33    34    1
   106   133   134    1
   107    86    87    2
   108    87    89    1
   109    87    88    1
   110    35    34    1
   111    35    36    2
   112    34    37    1
   113    50    49    1
   114    44    45    1
   115    49    48    1
   116    49    51    1
   117    48    45    1
   118    37    38    1
   119    40    38   ar
   120    40    42   ar
   121    38    39   ar
   122    42    43   ar
   123    45    46    1
   124    66    64    1
   125    46    47    2
   126    39    41   ar
   127    43    41   ar
   128    64    65    1
   129    64    61    1
   130    63    62    2
   131    62    61    1
   132    61    60    1
   133    60    54   am
   134    54    53    1
   135    54    55    2
   136    59    57    1
   137    53    56    1
   138    53    52    1
   139    56    57    1
   140    57    58    1
