@<TRIPOS>MOLECULE
tmp/6mhdB00.pdb
 176 175 0 0 0
SMALL
GASTEIGER

@<TRIPOS>ATOM
      1  N         -0.8310   -2.3020  -11.9630 N.3    32  MET32      -0.1245
      2  CA        -1.2290   -1.0900  -12.7010 C.3    32  MET32       0.1570
      3  C         -0.4900   -1.2620  -13.9980 C.2    32  MET32       0.2261
      4  O          0.7010   -1.5870  -13.9970 O.2    32  MET32      -0.2867
      5  CB        -0.8400    0.2150  -11.9940 C.3    32  MET32       0.0387
      6  CG        -1.6360    1.4140  -12.4800 C.3    32  MET32       0.0595
      7  SD        -1.0020    2.2050  -13.9890 S.3    32  MET32      -0.1393
      8  CE         0.3660    3.0510  -13.2870 C.3    32  MET32       0.0692
      9  N          0.9210    0.5220  -16.3050 N.3    34  PHE34      -0.1227
     10  CA         2.1550    1.2240  -16.7040 C.3    34  PHE34       0.1736
     11  C          3.2320    1.2920  -15.6250 C.2    34  PHE34       0.2596
     12  O          4.2810    1.9100  -15.8390 O.2    34  PHE34      -0.2718
     13  CB         1.8350    2.6290  -17.2420 C.3    34  PHE34       0.0547
     14  CG         0.7960    2.6230  -18.3480 C.ar   34  PHE34      -0.0202
     15  CD1        1.1570    2.3710  -19.6610 C.ar   34  PHE34      -0.0042
     16  CD2       -0.5450    2.8490  -18.0650 C.ar   34  PHE34      -0.0042
     17  CE1        0.2000    2.3600  -20.6740 C.ar   34  PHE34      -0.0003
     18  CE2       -1.4970    2.8400  -19.0800 C.ar   34  PHE34      -0.0003
     19  CZ        -1.1150    2.6020  -20.3810 C.ar   34  PHE34      -0.0000
     20  N          2.9870    0.6640  -14.4800 N.am   35  CYS35      -0.1957
     21  CA         3.9290    0.6550  -13.3700 C.3    35  CYS35       0.1828
     22  C          5.1360   -0.2320  -13.6530 C.2    35  CYS35       0.2467
     23  O          4.9800   -1.4430  -13.7850 O.2    35  CYS35      -0.2730
     24  CB         3.2470    0.2490  -12.0740 C.3    35  CYS35       0.0996
     25  SG         4.3860    0.1300  -10.6850 S.3    35  CYS35      -0.0797
     26  N          6.3720    0.3140  -13.6670 N.am   36  PRO36      -0.2715
     27  CA         7.5450   -0.5610  -13.8560 C.3    36  PRO36       0.1536
     28  C          7.7920   -1.5680  -12.7160 C.2    36  PRO36       0.2598
     29  O          8.2940   -2.6600  -13.0000 O.2    36  PRO36      -0.2715
     30  CB         8.6930    0.4300  -14.0410 C.3    36  PRO36       0.0310
     31  CG         8.2700    1.6400  -13.3480 C.3    36  PRO36       0.0237
     32  CD         6.7770    1.7330  -13.5430 C.3    36  PRO36       0.0939
     33  N          7.4710   -1.2240  -11.4460 N.am   37  PHE37      -0.1974
     34  CA         7.7050   -2.1080  -10.2780 C.3    37  PHE37       0.1639
     35  C          6.7760   -3.3310  -10.3560 C.2    37  PHE37       0.2290
     36  O          7.2490   -4.4630  -10.2350 O.2    37  PHE37      -0.2864
     37  CB         7.5150   -1.3500   -8.9340 C.3    37  PHE37       0.0560
     38  CG         8.5680   -0.2940   -8.6440 C.ar   37  PHE37      -0.0200
     39  CD1        9.8660   -0.6570   -8.3000 C.ar   37  PHE37      -0.0042
     40  CD2        8.2680    1.0580   -8.7590 C.ar   37  PHE37      -0.0042
     41  CE1       10.8460    0.3120   -8.0550 C.ar   37  PHE37      -0.0003
     42  CE2        9.2530    2.0330   -8.5290 C.ar   37  PHE37      -0.0003
     43  CZ        10.5410    1.6490   -8.1880 C.ar   37  PHE37      -0.0000
     44  N         -4.1560    4.1270   -9.1220 N.3    59  LEU59      -0.1245
     45  CA        -3.1900    4.7590   -8.2340 C.3    59  LEU59       0.1561
     46  C         -3.4330    6.2550   -7.9580 C.2    59  LEU59       0.2260
     47  O         -2.8340    6.7740   -7.0210 O.2    59  LEU59      -0.2867
     48  CB        -1.7730    4.5160   -8.7700 C.3    59  LEU59       0.0270
     49  CG        -1.3760    3.0360   -8.9510 C.3    59  LEU59       0.0019
     50  CD1        0.0220    2.9380   -9.4030 C.3    59  LEU59       0.0001
     51  CD2       -1.5650    2.2190   -7.6530 C.3    59  LEU59       0.0001
     52  N          0.7610    0.4340   -2.3270 N.3    74  LEU74      -0.1231
     53  CA         1.5130    0.4490   -3.5800 C.3    74  LEU74       0.1693
     54  C          1.3650   -0.8920   -4.2330 C.2    74  LEU74       0.2591
     55  O          1.1430   -1.8920   -3.5410 O.2    74  LEU74      -0.2718
     56  CB         3.0340    0.6900   -3.3020 C.3    74  LEU74       0.0284
     57  CG         3.4400    1.9820   -2.5510 C.3    74  LEU74       0.0019
     58  CD1        4.9200    1.9530   -2.1410 C.3    74  LEU74       0.0001
     59  CD2        3.1510    3.2130   -3.3590 C.3    74  LEU74       0.0001
     60  N          1.4800   -0.9100   -5.5750 N.am   75  VAL75      -0.1980
     61  CA         1.4980   -2.1340   -6.3720 C.3    75  VAL75       0.1595
     62  C          2.9860   -2.4940   -6.6360 C.2    75  VAL75       0.2287
     63  O          3.8110   -1.5910   -6.6790 O.2    75  VAL75      -0.2864
     64  CB         0.6630   -2.0720   -7.6910 C.3    75  VAL75       0.0276
     65  CG1       -0.8280   -1.9530   -7.4230 C.3    75  VAL75       0.0022
     66  CG2        1.1620   -0.9940   -8.6480 C.3    75  VAL75       0.0022
     67  N         15.5720    4.2600  -11.1820 N.3   127  PRO127     -0.2102
     68  CA        14.1600    4.6800  -11.0080 C.3   127  PRO127      0.1504
     69  C         13.9930    6.0960  -10.4410 C.2   127  PRO127      0.2576
     70  O         13.0870    6.8150  -10.8680 O.2   127  PRO127     -0.2718
     71  CB        13.5850    3.6070  -10.0650 C.3   127  PRO127      0.0282
     72  CG        14.4390    2.4170  -10.2940 C.3   127  PRO127      0.0208
     73  CD        15.8190    2.9910  -10.4590 C.3   127  PRO127      0.0893
     74  N         14.8610    6.5200   -9.4990 N.am  128  SER128     -0.1953
     75  CA        14.7530    7.9110   -8.9830 C.3   128  SER128      0.1924
     76  C         15.1310    8.9200  -10.1050 C.2   128  SER128      0.2314
     77  O         14.4530    9.9240  -10.2960 O.2   128  SER128     -0.2863
     78  CB        15.6460    8.1110   -7.7680 C.3   128  SER128      0.2116
     79  OG        17.0030    7.9830   -8.1590 O.3   128  SER128     -0.2180
     80  N         14.7010    8.4950  -13.2830 N.3   130  VAL130     -0.1231
     81  CA        13.5580    8.4900  -14.2140 C.3   130  VAL130      0.1692
     82  C         12.4740    9.4380  -13.6470 C.2   130  VAL130      0.2592
     83  O         11.8980   10.2120  -14.4000 O.2   130  VAL130     -0.2718
     84  CB        13.0140    7.0480  -14.4920 C.3   130  VAL130      0.0266
     85  CG1       11.6600    7.0840  -15.2070 C.3   130  VAL130      0.0020
     86  CG2       14.0070    6.2260  -15.3030 C.3   130  VAL130      0.0020
     87  N         12.2260    9.3540  -12.3320 N.am  131  GLY131     -0.1957
     88  CA        11.2520   10.1790  -11.6190 C.3   131  GLY131      0.1869
     89  C         11.5450   11.6590  -11.7510 C.2   131  GLY131      0.2309
     90  O         10.6540   12.4490  -12.0660 O.2   131  GLY131     -0.2863
     91  N         11.1250   12.9630  -15.7940 N.3   134  ILE134     -0.1231
     92  CA         9.7580   13.1110  -16.2770 C.3   134  ILE134      0.1692
     93  C          9.1090   14.4090  -15.7440 C.2   134  ILE134      0.2591
     94  O          8.3360   15.0620  -16.4570 O.2   134  ILE134     -0.2718
     95  CB         9.0360   11.7940  -15.8710 C.3   134  ILE134      0.0266
     96  CG1        9.2950   10.7070  -16.9450 C.3   134  ILE134      0.0019
     97  CG2        7.5670   11.9860  -15.5630 C.3   134  ILE134      0.0020
     98  CD1        9.0840    9.2500  -16.5470 C.3   134  ILE134      0.0001
     99  N          9.5050   14.7990  -14.5190 N.am  135  ARG135     -0.1980
    100  CA         9.0380   15.9650  -13.7830 C.3   135  ARG135      0.1597
    101  C          9.8110   17.2410  -14.1040 C.2   135  ARG135      0.2287
    102  O          9.3600   18.3090  -13.6840 O.2   135  ARG135     -0.2864
    103  CB         9.1450   15.6940  -12.2800 C.3   135  ARG135      0.0334
    104  CG         7.9580   14.9890  -11.6710 C.3   135  ARG135      0.0492
    105  CD         7.8380   15.3510  -10.2000 C.3   135  ARG135      0.2205
    106  NE         7.3840   14.2430   -9.3560 N.pl3 135  ARG135     -0.0865
    107  CZ         6.1100   13.9610   -9.0940 C.cat 135  ARG135      0.5346
    108  NH1        5.1360   14.6760   -9.6460 N.pl3 135  ARG135      0.1354
    109  NH2        5.7990   12.9530   -8.2880 N.pl3 135  ARG135      0.1354
    110  N         12.5590   -0.3440  -16.7710 N.3   183  TRP183     -0.1241
    111  CA        12.9780    1.0350  -16.9860 C.3   183  TRP183      0.1605
    112  C         13.6500    1.2260  -18.3220 C.2   183  TRP183      0.2264
    113  O         13.4610    2.2540  -18.9480 O.2   183  TRP183     -0.2867
    114  CB        13.8440    1.5270  -15.8260 C.3   183  TRP183      0.0550
    115  CG        13.0390    1.6870  -14.5680 C.ar  183  TRP183      0.0003
    116  CD1       12.4920    2.8380  -14.0950 C.ar  183  TRP183      0.0946
    117  CD2       12.6310    0.6500  -13.6640 C.ar  183  TRP183      0.0152
    118  NE1       11.8200    2.5940  -12.9180 N.ar  183  TRP183     -0.2442
    119  CE2       11.8930    1.2680  -12.6250 C.ar  183  TRP183      0.0810
    120  CE3       12.8490   -0.7400  -13.6030 C.ar  183  TRP183      0.0012
    121  CZ2       11.3680    0.5540  -11.5480 C.ar  183  TRP183      0.0191
    122  CZ3       12.3000   -1.4560  -12.5470 C.ar  183  TRP183      0.0001
    123  CH2       11.5590   -0.8150  -11.5430 C.ar  183  TRP183      0.0015
    124  N          1.7470    4.7070  -23.0690 N.3   225  TRP225     -0.1241
    125  CA         2.6520    5.0650  -21.9540 C.3   225  TRP225      0.1605
    126  C          2.8300    6.5900  -21.7930 C.2   225  TRP225      0.2264
    127  O          2.7080    7.0970  -20.6700 O.2   225  TRP225     -0.2867
    128  CB         4.0290    4.3880  -22.0910 C.3   225  TRP225      0.0550
    129  CG         4.8800    4.5320  -20.8570 C.ar  225  TRP225      0.0003
    130  CD1        4.7760    3.8030  -19.7080 C.ar  225  TRP225      0.0946
    131  CD2        5.9130    5.5070  -20.6200 C.ar  225  TRP225      0.0152
    132  NE1        5.7230    4.2050  -18.8030 N.ar  225  TRP225     -0.2442
    133  CE2        6.4300    5.2580  -19.3290 C.ar  225  TRP225      0.0810
    134  CE3        6.5000    6.5210  -21.4010 C.ar  225  TRP225      0.0012
    135  CZ2        7.4720    6.0190  -18.7760 C.ar  225  TRP225      0.0191
    136  CZ3        7.5430    7.2610  -20.8670 C.ar  225  TRP225      0.0001
    137  CH2        8.0230    7.0090  -19.5700 C.ar  225  TRP225      0.0015
    138  N         -0.4350    8.2250  -20.7440 N.3   228  PHE228     -0.1227
    139  CA        -0.6010    7.8840  -19.3270 C.3   228  PHE228      0.1736
    140  C          0.2570    8.8420  -18.4790 C.2   228  PHE228      0.2595
    141  O         -0.2290    9.3580  -17.4750 O.2   228  PHE228     -0.2718
    142  CB        -0.1780    6.4190  -19.0540 C.3   228  PHE228      0.0547
    143  CG         0.3370    6.2120  -17.6460 C.ar  228  PHE228     -0.0202
    144  CD1       -0.5440    6.1260  -16.5740 C.ar  228  PHE228     -0.0042
    145  CD2        1.7070    6.1930  -17.3830 C.ar  228  PHE228     -0.0042
    146  CE1       -0.0660    6.0830  -15.2640 C.ar  228  PHE228     -0.0003
    147  CE2        2.1830    6.1180  -16.0700 C.ar  228  PHE228     -0.0003
    148  CZ         1.2960    6.0370  -15.0260 C.ar  228  PHE228     -0.0000
    149  N          1.5320    9.0570  -18.8800 N.am  229  LEU229     -0.1980
    150  CA         2.4650    9.8980  -18.1370 C.3   229  LEU229      0.1596
    151  C          1.9680   11.3280  -18.0060 C.2   229  LEU229      0.2287
    152  O          1.9730   11.8720  -16.8980 O.2   229  LEU229     -0.2864
    153  CB         3.8500    9.8410  -18.7880 C.3   229  LEU229      0.0297
    154  CG         5.0140   10.3650  -17.9700 C.3   229  LEU229      0.0022
    155  CD1        5.2420    9.4960  -16.7360 C.3   229  LEU229      0.0001
    156  CD2        6.2660   10.4170  -18.8440 C.3   229  LEU229      0.0001
    157  N         -0.8670   11.2180  -15.5390 N.3   232  TYR232     -0.1227
    158  CA        -0.3250   10.9010  -14.2280 C.3   232  TYR232      0.1736
    159  C          0.2520   12.1770  -13.5800 C.2   232  TYR232      0.2595
    160  O         -0.0980   12.4650  -12.4330 O.2   232  TYR232     -0.2718
    161  CB         0.7090    9.7580  -14.3110 C.3   232  TYR232      0.0548
    162  CG         1.1600    9.2690  -12.9550 C.ar  232  TYR232     -0.0200
    163  CD1        0.4330    8.3040  -12.2620 C.ar  232  TYR232     -0.0009
    164  CD2        2.2660    9.8330  -12.3220 C.ar  232  TYR232     -0.0009
    165  CE1        0.8190    7.8840  -10.9860 C.ar  232  TYR232      0.0417
    166  CE2        2.6490    9.4350  -11.0420 C.ar  232  TYR232      0.0417
    167  CZ         1.9280    8.4570  -10.3810 C.ar  232  TYR232      0.1957
    168  OH         2.3000    8.0940   -9.1100 O.3   232  TYR232     -0.2866
    169  N          1.0760   12.9610  -14.3360 N.am  233  LEU233     -0.1980
    170  CA         1.6780   14.2180  -13.8570 C.3   233  LEU233      0.1596
    171  C          0.6050   15.2290  -13.4330 C.2   233  LEU233      0.2287
    172  O          0.7740   15.9100  -12.4330 O.2   233  LEU233     -0.2864
    173  CB         2.6030   14.8240  -14.9260 C.3   233  LEU233      0.0297
    174  CG         3.9190   14.0660  -15.1980 C.3   233  LEU233      0.0022
    175  CD1        4.4100   14.3080  -16.6030 C.3   233  LEU233      0.0001
    176  CD2        4.9830   14.4300  -14.1990 C.3   233  LEU233      0.0001
@<TRIPOS>BOND
     1   124   125    1
     2   128   125    1
     3   128   129    1
     4   125   126    1
     5   126   127    2
     6   134   136   ar
     7   134   131   ar
     8   136   137   ar
     9   129   131   ar
    10   129   130   ar
    11   138   139    1
    12    17    19   ar
    13    17    15   ar
    14   131   133   ar
    15    19    18   ar
    16   130   132   ar
    17    15    14   ar
    18   137   135   ar
    19   133   132   ar
    20   133   135   ar
    21   139   142    1
    22   139   140    1
    23    18    16   ar
    24   142   143    1
    25   113   112    2
    26   149   140   am
    27   149   150    1
    28   156   154    1
    29   153   150    1
    30   153   154    1
    31   140   141    2
    32    14    16   ar
    33    14    13    1
    34   112   111    1
    35   150   151    1
    36   151   152    2
    37   154   155    1
    38   143   145   ar
    39   143   144   ar
    40   145   147   ar
    41    13    10    1
    42   111   110    1
    43   111   114    1
    44    96    98    1
    45    96    95    1
    46    10     9    1
    47    10    11    1
    48   175   174    1
    49   144   146   ar
    50    94    93    2
    51    92    95    1
    52    92    91    1
    53    92    93    1
    54   147   148   ar
    55    95    97    1
    56    12    11    2
    57   114   115    1
    58    93    99   am
    59    11    20   am
    60   157   158    1
    61    86    84    1
    62   146   148   ar
    63    85    84    1
    64   174   173    1
    65   174   176    1
    66   173   170    1
    67   115   116   ar
    68   115   117   ar
    69    99   100    1
    70    84    81    1
    71    20    21    1
    72    83    82    2
    73   169   170    1
    74   169   159   am
    75   161   158    1
    76   161   162    1
    77   158   159    1
    78    81    82    1
    79    81    80    1
    80   101   100    1
    81   101   102    2
    82   116   118   ar
    83    30    27    1
    84    30    31    1
    85     3     4    2
    86     3     2    1
    87     7     8    1
    88     7     6    1
    89   170   171    1
    90    27    26    1
    91    27    28    1
    92    23    22    2
    93   100   103    1
    94    26    22   am
    95    26    32    1
    96   117   120   ar
    97   117   119   ar
    98    22    21    1
    99    82    87   am
   100   120   122   ar
   101   159   160    2
   102    32    31    1
   103   171   172    2
   104    21    24    1
   105    29    28    2
   106   162   164   ar
   107   162   163   ar
   108   118   119   ar
   109    28    33   am
   110     2     5    1
   111     2     1    1
   112   119   121   ar
   113   122   123   ar
   114     6     5    1
   115    87    88    1
   116   164   166   ar
   117   103   104    1
   118   163   165   ar
   119    24    25    1
   120    90    89    2
   121    89    88    1
   122   104   105    1
   123   121   123   ar
   124    33    34    1
   125    67    68    1
   126    67    73    1
   127   166   167   ar
   128    68    69    1
   129    68    71    1
   130   165   167   ar
   131    70    69    2
   132    73    72    1
   133    69    74   am
   134   167   168    1
   135    35    34    1
   136    35    36    2
   137    77    76    2
   138    72    71    1
   139    34    37    1
   140   105   106    1
   141    76    75    1
   142   108   107    1
   143    74    75    1
   144    50    49    1
   145   106   107    2
   146    44    45    1
   147   107   109    1
   148    75    78    1
   149    49    48    1
   150    49    51    1
   151    37    38    1
   152    48    45    1
   153    40    38   ar
   154    40    42   ar
   155    66    64    1
   156    38    39   ar
   157    42    43   ar
   158    39    41   ar
   159    45    46    1
   160    43    41   ar
   161    79    78    1
   162    46    47    2
   163    64    65    1
   164    64    61    1
   165    63    62    2
   166    62    61    1
   167    61    60    1
   168    60    54   am
   169    54    53    1
   170    54    55    2
   171    53    56    1
   172    53    52    1
   173    59    57    1
   174    56    57    1
   175    57    58    1
