@<TRIPOS>MOLECULE
tmp/6mhmB04.pdb
 97 93 0 0 0
SMALL
GASTEIGER

@<TRIPOS>ATOM
      1  N         -5.8380    7.7890   29.2100 N.3     1  CYS1       -0.1191
      2  CA        -5.4010    7.5120   27.8440 C.3     1  CYS1        0.1849
      3  C         -5.4290    8.7130   26.9610 C.2     1  CYS1        0.2311
      4  O         -6.2220    9.6180   27.1820 O.2     1  CYS1       -0.2863
      5  CB        -6.3090    6.5460   27.1570 C.2     1  CYS1        0.0425
      6  SG        -6.1330    4.9510   27.5230 S.2     1  CYS1       -0.0532
      7  N         -1.4150    4.5270   26.8020 N.3    19  MET19      -0.1230
      8  CA        -2.3010    3.6910   27.6120 C.3    19  MET19       0.1702
      9  C         -2.0470    4.0190   29.0790 C.2    19  MET19       0.2592
     10  O         -1.0890    3.5230   29.6820 O.2    19  MET19      -0.2718
     11  CB        -2.0750    2.2090   27.3190 C.3    19  MET19       0.0401
     12  CG        -2.6610    1.2550   28.3550 C.3    19  MET19       0.0596
     13  SD        -4.4530    1.3590   28.4920 S.3    19  MET19      -0.1393
     14  CE        -4.9330    1.0670   26.7930 C.3    19  MET19       0.0692
     15  N         -2.8990    4.8690   29.6450 N.am   20  ASP20      -0.1960
     16  CA        -2.8680    5.1630   31.0700 C.3    20  ASP20       0.1840
     17  C         -3.8430    4.2430   31.7910 C.2    20  ASP20       0.2622
     18  O         -5.0240    4.1800   31.4330 O.2    20  ASP20      -0.2715
     19  CB        -3.2400    6.6220   31.3440 C.3    20  ASP20       0.1450
     20  CG        -2.4690    7.5990   30.4790 C.2    20  ASP20       0.3671
     21  OD1       -1.3390    7.2730   30.0590 O.co2  20  ASP20      -0.2456
     22  OD2       -3.0000    8.7010   30.2240 O.co2  20  ASP20      -0.2456
     23  N         -3.3480    3.5290   32.7990 N.am   21  PHE21      -0.1974
     24  CA        -4.2130    2.7280   33.6510 C.3    21  PHE21       0.1639
     25  C         -3.4650    2.3720   34.9250 C.2    21  PHE21       0.2290
     26  O         -2.2440    2.1970   34.9130 O.2    21  PHE21      -0.2864
     27  CB        -4.6880    1.4470   32.9550 C.3    21  PHE21       0.0560
     28  CG        -5.8740    0.8090   33.6190 C.ar   21  PHE21      -0.0200
     29  CD1       -7.0970    1.4570   33.6450 C.ar   21  PHE21      -0.0042
     30  CD2       -5.7640   -0.4310   34.2290 C.ar   21  PHE21      -0.0042
     31  CE1       -8.1920    0.8800   34.2570 C.ar   21  PHE21      -0.0003
     32  CE2       -6.8580   -1.0140   34.8440 C.ar   21  PHE21      -0.0003
     33  CZ        -8.0730   -0.3570   34.8580 C.ar   21  PHE21      -0.0000
     34  N         -2.6070   -6.7640   27.4480 N.3    62  PHE62      -0.1241
     35  CA        -2.0780   -7.2850   28.6970 C.3    62  PHE62       0.1605
     36  C         -2.3500   -8.7830   28.7510 C.2    62  PHE62       0.2264
     37  O         -3.4730   -9.2250   28.4870 O.2    62  PHE62      -0.2867
     38  CB        -2.7080   -6.5640   29.8880 C.3    62  PHE62       0.0534
     39  CG        -2.5370   -5.0680   29.8460 C.ar   62  PHE62      -0.0203
     40  CD1       -1.2870   -4.5100   29.6310 C.ar   62  PHE62      -0.0042
     41  CD2       -3.6220   -4.2230   30.0120 C.ar   62  PHE62      -0.0042
     42  CE1       -1.1210   -3.1400   29.5860 C.ar   62  PHE62      -0.0003
     43  CE2       -3.4600   -2.8510   29.9670 C.ar   62  PHE62      -0.0003
     44  CZ        -2.2070   -2.3090   29.7540 C.ar   62  PHE62      -0.0000
     45  N         -5.7720  -11.0810   29.1210 N.3    65  TYR65      -0.1241
     46  CA        -6.9550  -10.2800   28.8180 C.3    65  TYR65       0.1605
     47  C         -7.2280  -10.4270   27.3260 C.2    65  TYR65       0.2264
     48  O         -6.4260   -9.9850   26.4970 O.2    65  TYR65      -0.2867
     49  CB        -6.7240   -8.8260   29.2240 C.3    65  TYR65       0.0534
     50  CG        -7.7500   -7.8410   28.7140 C.ar   65  TYR65      -0.0201
     51  CD1       -8.9440   -7.6330   29.3930 C.ar   65  TYR65      -0.0009
     52  CD2       -7.5120   -7.0970   27.5670 C.ar   65  TYR65      -0.0009
     53  CE1       -9.8770   -6.7250   28.9360 C.ar   65  TYR65       0.0417
     54  CE2       -8.4390   -6.1880   27.1030 C.ar   65  TYR65       0.0417
     55  CZ        -9.6200   -6.0060   27.7910 C.ar   65  TYR65       0.1957
     56  OH       -10.5490   -5.1020   27.3330 O.3    65  TYR65      -0.2866
     57  N         -7.5350   -3.5390   23.2300 N.3    69  LEU69      -0.1245
     58  CA        -7.5810   -2.1110   23.5010 C.3    69  LEU69       0.1561
     59  C         -6.7560   -1.2890   22.5220 C.2    69  LEU69       0.2260
     60  O         -7.0310   -0.0980   22.3550 O.2    69  LEU69      -0.2867
     61  CB        -7.0950   -1.8260   24.9300 C.3    69  LEU69       0.0270
     62  CG        -7.8000   -2.6360   26.0200 C.3    69  LEU69       0.0019
     63  CD1       -7.4280   -2.1380   27.4070 C.3    69  LEU69       0.0001
     64  CD2       -9.3070   -2.5990   25.8200 C.3    69  LEU69       0.0001
     65  N         -9.0030    2.2920   22.0320 N.3    81  LEU81      -0.1231
     66  CA       -10.1640    2.5550   22.8680 C.3    81  LEU81       0.1693
     67  C         -9.7570    3.3840   24.0740 C.2    81  LEU81       0.2592
     68  O         -8.7480    3.0870   24.7250 O.2    81  LEU81      -0.2718
     69  CB       -10.8050    1.2460   23.3300 C.3    81  LEU81       0.0284
     70  CG       -11.9370    1.3980   24.3420 C.3    81  LEU81       0.0019
     71  CD1      -13.0750    0.5250   23.9170 C.3    81  LEU81       0.0001
     72  CD2      -11.4870    1.0380   25.7530 C.3    81  LEU81       0.0001
     73  N        -10.5470    4.4070   24.3780 N.am   82  ASN82      -0.1960
     74  CA       -10.3290    5.2420   25.5510 C.3    82  ASN82       0.1819
     75  C        -11.5030    5.0910   26.5070 C.2    82  ASN82       0.2621
     76  O        -12.6510    4.9320   26.0770 O.2    82  ASN82      -0.2715
     77  CB       -10.1480    6.7100   25.1570 C.3    82  ASN82       0.1195
     78  CG        -8.7750    6.9860   24.5780 C.2    82  ASN82       0.2630
     79  OD1       -8.1770    6.1240   23.9360 O.2    82  ASN82      -0.2716
     80  ND2       -8.2680    8.1920   24.8020 N.am   82  ASN82      -0.0877
     81  N        -11.2080    5.1370   27.8030 N.am   83  GLU83      -0.1977
     82  CA       -12.2440    4.9780   28.8130 C.3    83  GLU83       0.1602
     83  C        -13.1120    6.2270   28.9000 C.2    83  GLU83       0.2287
     84  O        -12.6120    7.3550   28.9040 O.2    83  GLU83      -0.2864
     85  CB       -11.6160    4.6830   30.1760 C.3    83  GLU83       0.0415
     86  CG       -12.6170    4.3100   31.2590 C.3    83  GLU83       0.1163
     87  CD       -11.9550    4.0250   32.5970 C.2    83  GLU83       0.3649
     88  OE1      -12.6590    4.0480   33.6290 O.co2  83  GLU83      -0.2457
     89  OE2      -10.7300    3.7780   32.6180 O.co2  83  GLU83      -0.2457
     90  N        -10.2050   11.5390   27.9770 N.3   178  ASN178     -0.1240
     91  CA       -11.2450   10.8490   28.7300 C.3   178  ASN178      0.1653
     92  C        -12.4400   11.7510   29.0280 C.2   178  ASN178      0.2266
     93  O        -13.1710   11.4980   29.9910 O.2   178  ASN178     -0.2867
     94  CB       -10.6780   10.2800   30.0310 C.3   178  ASN178      0.1155
     95  CG        -9.5780    9.2650   29.7910 C.2   178  ASN178      0.2627
     96  OD1       -8.4140    9.5030   30.1120 O.2   178  ASN178     -0.2716
     97  ND2       -9.9410    8.1220   29.2220 N.am  178  ASN178     -0.0877
@<TRIPOS>BOND
     1    65    66    1
     2    60    59    2
     3    59    58    1
     4    66    69    1
     5    66    67    1
     6    57    58    1
     7    69    70    1
     8    58    61    1
     9    71    70    1
    10    79    78    2
    11    67    73   am
    12    67    68    2
    13    70    72    1
    14    73    74    1
    15    78    80   am
    16    78    77    1
    17    61    62    1
    18    77    74    1
    19    74    75    1
    20    64    62    1
    21    62    63    1
    22    76    75    2
    23    48    47    2
    24    75    81   am
    25    14    13    1
    26     7     8    1
    27     3     4    2
    28     3     2    1
    29    54    52   ar
    30    54    55   ar
    31     5     6    2
    32     5     2    1
    33    11     8    1
    34    11    12    1
    35    47    46    1
    36    56    55    1
    37    34    35    1
    38    52    50   ar
    39     8     9    1
    40    55    53   ar
    41    81    82    1
    42     2     1    1
    43    90    91    1
    44    12    13    1
    45    37    36    2
    46    35    36    1
    47    35    38    1
    48    50    49    1
    49    50    51   ar
    50    91    92    1
    51    91    94    1
    52    82    83    1
    53    82    85    1
    54    46    45    1
    55    46    49    1
    56    83    84    2
    57    53    51   ar
    58    92    93    2
    59     9    15   am
    60     9    10    2
    61    97    95   am
    62    42    40   ar
    63    42    44   ar
    64    40    39   ar
    65    15    16    1
    66    44    43   ar
    67    95    94    1
    68    95    96    2
    69    39    38    1
    70    39    41   ar
    71    43    41   ar
    72    21    20   ar
    73    85    86    1
    74    22    20   ar
    75    20    19    1
    76    16    19    1
    77    16    17    1
    78    86    87    1
    79    18    17    2
    80    17    23   am
    81    87    89   ar
    82    87    88   ar
    83    23    24    1
    84    27    28    1
    85    27    24    1
    86    28    29   ar
    87    28    30   ar
    88    29    31   ar
    89    24    25    1
    90    30    32   ar
    91    31    33   ar
    92    32    33   ar
    93    26    25    2
