@<TRIPOS>MOLECULE
tmp/6mi6A00.pdb
 160 150 0 0 0
SMALL
GASTEIGER

@<TRIPOS>ATOM
      1  N         12.3230    6.5040   61.5400 N.3    53  HIS53      -0.1226
      2  CA        12.5220    7.9350   61.6590 C.3    53  HIS53       0.1752
      3  C         11.6810    8.6490   60.6260 C.2    53  HIS53       0.2595
      4  O         10.7310    9.3460   60.9760 O.2    53  HIS53      -0.2718
      5  CB        14.0040    8.2950   61.4900 C.3    53  HIS53       0.0759
      6  CG        14.3590    9.6630   61.9940 C.ar   53  HIS53       0.0818
      7  ND1       15.2240   10.5050   61.3330 N.ar   53  HIS53      -0.2268
      8  CD2       13.9900   10.3170   63.1200 C.ar   53  HIS53       0.1154
      9  CE1       15.3560   11.6260   62.0190 C.ar   53  HIS53       0.1986
     10  NE2       14.6190   11.5370   63.1090 N.ar   53  HIS53      -0.2212
     11  N         11.8630    8.2720   59.3640 N.am   54  LEU54      -0.1980
     12  CA        11.1860    8.9280   58.2550 C.3    54  LEU54       0.1596
     13  C          9.6750    8.9760   58.4420 C.2    54  LEU54       0.2287
     14  O          9.0300    9.9590   58.0660 O.2    54  LEU54      -0.2864
     15  CB        11.5620    8.2180   56.9680 C.3    54  LEU54       0.0297
     16  CG        13.0440    8.3390   56.6890 C.3    54  LEU54       0.0022
     17  CD1       13.3360    7.5520   55.4590 C.3    54  LEU54       0.0001
     18  CD2       13.4180    9.7820   56.5340 C.3    54  LEU54       0.0001
     19  N          8.0790    9.0820   61.3460 N.3    56  ARG56      -0.1231
     20  CA         7.7170    9.9410   62.4500 C.3    56  ARG56       0.1694
     21  C          7.5960   11.3750   61.9930 C.2    56  ARG56       0.2592
     22  O          6.5440   11.9940   62.1690 O.2    56  ARG56      -0.2718
     23  CB         8.7630    9.7970   63.5500 C.3    56  ARG56       0.0321
     24  CG         8.5460   10.6570   64.7720 C.3    56  ARG56       0.0489
     25  CD         9.7120   10.5550   65.7490 C.3    56  ARG56       0.2205
     26  NE        10.0500   11.8650   66.2870 N.pl3  56  ARG56      -0.0865
     27  CZ         9.7120   12.2840   67.5010 C.cat  56  ARG56       0.5346
     28  NH1        9.0360   11.4860   68.3200 N.pl3  56  ARG56       0.1354
     29  NH2       10.0560   13.5020   67.8960 N.pl3  56  ARG56       0.1354
     30  N          8.5990   11.8740   61.2730 N.am   57  ASN57      -0.1960
     31  CA         8.5550   13.2790   60.8890 C.3    57  ASN57       0.1819
     32  C          7.2620   13.5820   60.1430 C.2    57  ASN57       0.2621
     33  O          6.5860   14.5730   60.4370 O.2    57  ASN57      -0.2715
     34  CB         9.7920   13.6730   60.0610 C.3    57  ASN57       0.1195
     35  CG        10.8040   12.5660   59.9680 C.2    57  ASN57       0.2630
     36  OD1       10.4320   11.4230   60.0300 O.2    57  ASN57      -0.2716
     37  ND2       12.0730   12.8970   59.7690 N.am   57  ASN57      -0.0877
     38  N          6.8640   12.7060   59.2260 N.am   58  ALA58      -0.1977
     39  CA         5.6420   12.9600   58.4830 C.3    58  ALA58       0.1597
     40  C          4.4750   13.1500   59.4250 C.2    58  ALA58       0.2287
     41  O          3.7740   14.1590   59.3650 O.2    58  ALA58      -0.2864
     42  CB         5.3690   11.8190   57.5180 C.3    58  ALA58       0.0319
     43  N          4.7960   13.6700   62.6570 N.3    60  ASP60      -0.1225
     44  CA         5.1570   14.7070   63.6040 C.3    60  ASP60       0.1805
     45  C          5.1350   16.0520   62.9100 C.2    60  ASP60       0.2598
     46  O          4.3650   16.9410   63.2780 O.2    60  ASP60      -0.2718
     47  CB         6.5370   14.3900   64.2040 C.3    60  ASP60       0.1424
     48  CG         6.9060   15.2630   65.4030 C.2    60  ASP60       0.3668
     49  OD1        7.9860   15.0220   66.0000 O.co2  60  ASP60      -0.2456
     50  OD2        6.1280   16.1590   65.7680 O.co2  60  ASP60      -0.2456
     51  N          5.8990   16.1780   61.8400 N.am   61  HIS61      -0.1961
     52  CA         6.0520   17.4350   61.1350 C.3    61  HIS61       0.1787
     53  C          5.4100   17.4710   59.7690 C.2    61  HIS61       0.2620
     54  O          5.0530   18.5530   59.3160 O.2    61  HIS61      -0.2715
     55  CB         7.5360   17.7880   61.0110 C.3    61  HIS61       0.0785
     56  CG         8.0430   18.5930   62.1630 C.ar   61  HIS61       0.0821
     57  ND1        7.2190   19.4160   62.9000 N.ar   61  HIS61      -0.2267
     58  CD2        9.2640   18.6720   62.7380 C.ar   61  HIS61       0.1154
     59  CE1        7.9190   19.9980   63.8550 C.ar   61  HIS61       0.1986
     60  NE2        9.1620   19.5580   63.7830 N.ar   61  HIS61      -0.2212
     61  N          5.2850   16.3390   59.0780 N.am   62  GLY62      -0.1954
     62  CA         4.7470   16.3870   57.7280 C.3    62  GLY62       0.1869
     63  C          3.2640   16.7100   57.6570 C.2    62  GLY62       0.2309
     64  O          2.8660   17.6440   56.9640 O.2    62  GLY62      -0.2863
     65  N          4.0840   11.3350   52.1920 N.3    97  ASP97      -0.1239
     66  CA         3.0260   11.9520   52.9850 C.3    97  ASP97       0.1674
     67  C          2.4700   13.1210   52.1940 C.2    97  ASP97       0.2266
     68  O          3.1800   13.7080   51.3820 O.2    97  ASP97      -0.2867
     69  CB         3.5420   12.4620   54.3180 C.3    97  ASP97       0.1410
     70  CG         4.5610   13.5400   54.1490 C.2    97  ASP97       0.3668
     71  OD1        4.1590   14.7100   54.0010 O.co2  97  ASP97      -0.2456
     72  OD2        5.7590   13.2130   54.1460 O.co2  97  ASP97      -0.2456
     73  N          2.9190   19.3720   54.8600 N.3   100  ARG100     -0.1231
     74  CA         3.2550   20.7760   54.6750 C.3   100  ARG100      0.1694
     75  C          4.3130   20.9250   53.6100 C.2   100  ARG100      0.2593
     76  O          4.2800   21.8540   52.8010 O.2   100  ARG100     -0.2718
     77  CB         3.7810   21.3840   55.9750 C.3   100  ARG100      0.0321
     78  CG         2.7660   22.0730   56.8640 C.3   100  ARG100      0.0489
     79  CD         2.5980   23.5690   56.6220 C.3   100  ARG100      0.2205
     80  NE         1.5460   24.0860   57.4870 N.pl3 100  ARG100     -0.0865
     81  CZ         0.2560   24.0370   57.1900 C.cat 100  ARG100      0.5346
     82  NH1       -0.1310   23.5130   56.0310 N.pl3 100  ARG100      0.1354
     83  NH2       -0.6360   24.5130   58.0480 N.pl3 100  ARG100      0.1354
     84  N          5.3070   20.0570   53.6520 N.am  101  GLY101     -0.1942
     85  CA         6.3890   20.0700   52.7000 C.3   101  GLY101      0.2014
     86  C          7.5420   20.8570   53.2620 C.2   101  GLY101      0.2638
     87  O          7.3410   21.9140   53.8630 O.2   101  GLY101     -0.2714
     88  N          8.7570   20.3980   52.9990 N.am  102  ILE102     -0.1977
     89  CA         9.9210   21.0900   53.5100 C.3   102  ILE102      0.1596
     90  C         10.1100   22.3390   52.6720 C.2   102  ILE102      0.2287
     91  O         10.0490   22.2750   51.4450 O.2   102  ILE102     -0.2864
     92  CB        11.1490   20.1760   53.4310 C.3   102  ILE102      0.0276
     93  CG1       11.0050   18.9740   54.3470 C.3   102  ILE102      0.0022
     94  CG2       12.3460   20.8960   53.9350 C.3   102  ILE102      0.0022
     95  CD1       12.0700   17.9240   54.1120 C.3   102  ILE102      0.0001
     96  N         16.2320   25.7570   54.0910 N.3   107  ILE107     -0.1245
     97  CA        17.5030   25.0340   54.0900 C.3   107  ILE107      0.1561
     98  C         18.5970   25.8660   53.4340 C.2   107  ILE107      0.2260
     99  O         19.7580   25.8300   53.8530 O.2   107  ILE107     -0.2867
    100  CB        17.3520   23.6610   53.4150 C.3   107  ILE107      0.0252
    101  CG1       16.7820   22.6200   54.3720 C.3   107  ILE107      0.0019
    102  CG2       18.6730   23.1720   52.9780 C.3   107  ILE107      0.0019
    103  CD1       15.4310   22.9320   54.9360 C.3   107  ILE107      0.0001
    104  N         19.8890   28.3400   55.8040 N.3   110  LYS110     -0.1245
    105  CA        20.6610   27.7860   56.9010 C.3   110  LYS110      0.1561
    106  C         22.0640   27.4670   56.4340 C.2   110  LYS110      0.2260
    107  O         23.0210   27.6550   57.1790 O.2   110  LYS110     -0.2867
    108  CB        19.9760   26.5370   57.4630 C.3   110  LYS110      0.0271
    109  CG        18.9930   26.7800   58.6370 C.3   110  LYS110      0.0035
    110  CD        18.0100   25.5970   58.8150 C.3   110  LYS110      0.0206
    111  CE        17.0210   25.7530   59.9710 C.3   110  LYS110      0.1093
    112  NZ        15.8730   24.7950   59.8770 N.3   110  LYS110     -0.1314
    113  N         19.7610   18.3400   54.6400 N.3   134  LEU134     -0.1245
    114  CA        19.2130   17.7140   55.8130 C.3   134  LEU134      0.1561
    115  C         20.1530   16.6700   56.3500 C.2   134  LEU134      0.2260
    116  O         19.9210   16.1440   57.4400 O.2   134  LEU134     -0.2867
    117  CB        17.8180   17.1490   55.5260 C.3   134  LEU134      0.0270
    118  CG        16.7800   18.2600   55.3700 C.3   134  LEU134      0.0019
    119  CD1       17.0850   19.2310   54.2440 C.3   134  LEU134      0.0001
    120  CD2       15.4660   17.5970   55.1600 C.3   134  LEU134      0.0001
    121  N         19.6960   20.5770   62.3910 N.3   140  SER140     -0.1217
    122  CA        18.6000   20.8970   63.3040 C.3   140  SER140      0.1889
    123  C         18.9500   22.0540   64.2610 C.2   140  SER140      0.2288
    124  O         20.1160   22.2960   64.5860 O.2   140  SER140     -0.2866
    125  CB        18.2280   19.6320   64.0970 C.3   140  SER140      0.2089
    126  OG        18.8760   19.6120   65.3520 O.3   140  SER140     -0.2183
    127  N         17.2290   11.4660   67.8070 N.3   149  VAL149     -0.1231
    128  CA        17.1150   10.8040   66.5090 C.3   149  VAL149      0.1692
    129  C         17.4980   11.7900   65.3970 C.2   149  VAL149      0.2593
    130  O         16.7860   12.7650   65.1360 O.2   149  VAL149     -0.2718
    131  CB        15.7030   10.2410   66.3090 C.3   149  VAL149      0.0266
    132  CG1       15.4860    9.0560   67.2480 C.3   149  VAL149      0.0020
    133  CG2       14.6480   11.3060   66.5730 C.3   149  VAL149      0.0020
    134  N         18.6370   11.5600   64.7490 N.am  150  GLY150     -0.1942
    135  CA        19.1350   12.4500   63.7080 C.3   150  GLY150      0.2014
    136  C         18.7610   11.9070   62.3420 C.2   150  GLY150      0.2638
    137  O         18.6440   10.6990   62.1670 O.2   150  GLY150     -0.2714
    138  N         18.6580   12.7870   61.3510 N.am  151  MET151     -0.1976
    139  CA        18.4560   12.3180   59.9850 C.3   151  MET151      0.1605
    140  C         19.6420   11.5530   59.4540 C.2   151  MET151      0.2287
    141  O         19.5330   10.8240   58.4550 O.2   151  MET151     -0.2864
    142  CB        18.1270   13.4640   59.0380 C.3   151  MET151      0.0413
    143  CG        16.6350   13.7940   58.9790 C.3   151  MET151      0.0598
    144  SD        15.6300   12.6960   57.9400 S.3   151  MET151     -0.1393
    145  CE        16.8350   12.1890   56.7200 C.3   151  MET151      0.0692
    146  N         15.4640   12.7110   49.1000 N.3   167  ILE167     -0.1245
    147  CA        14.2840   13.4350   49.5440 C.3   167  ILE167      0.1561
    148  C         13.7950   14.3040   48.4000 C.2   167  ILE167      0.2260
    149  O         14.5690   15.0610   47.8110 O.2   167  ILE167     -0.2867
    150  CB        14.5590   14.2930   50.7900 C.3   167  ILE167      0.0252
    151  CG1       15.2430   13.4600   51.8530 C.3   167  ILE167      0.0019
    152  CG2       13.2800   14.8110   51.3800 C.3   167  ILE167      0.0019
    153  CD1       15.2150   14.1010   53.1910 C.3   167  ILE167      0.0001
    154  N          5.9960   15.5310   50.8330 N.3   175  THR175     -0.1218
    155  CA         7.3860   15.1160   50.6900 C.3   175  THR175      0.1862
    156  C          7.4720   13.5950   50.6160 C.2   175  THR175      0.2287
    157  O          6.6960   12.8880   51.2560 O.2   175  THR175     -0.2866
    158  CB         8.2350   15.5960   51.8610 C.3   175  THR175      0.1770
    159  OG1        8.1660   14.6170   52.9040 O.3   175  THR175     -0.2211
    160  CG2        7.7320   16.9290   52.3940 C.3   175  THR175      0.0375
@<TRIPOS>BOND
     1   149   148    2
     2   148   147    1
     3   146   147    1
     4   147   150    1
     5   156   155    1
     6   156   157    2
     7   155   154    1
     8   155   158    1
     9   150   152    1
    10   150   151    1
    11    68    67    2
    12    91    90    2
    13   151   153    1
    14   158   160    1
    15   158   159    1
    16    65    66    1
    17    67    66    1
    18    90    89    1
    19    85    86    1
    20    85    84    1
    21    76    75    2
    22   102   100    1
    23    66    69    1
    24    88    86   am
    25    88    89    1
    26    86    87    2
    27   100    97    1
    28   100   101    1
    29    92    89    1
    30    92    94    1
    31    92    93    1
    32    98    99    2
    33    98    97    1
    34    75    84   am
    35    75    74    1
    36    71    70   ar
    37    97    96    1
    38    95    93    1
    39    72    70   ar
    40    70    69    1
    41   119   118    1
    42   101   103    1
    43   113   114    1
    44    74    73    1
    45    74    77    1
    46   120   118    1
    47   118   117    1
    48    17    16    1
    49   117   114    1
    50   104   105    1
    51   114   115    1
    52    77    78    1
    53    82    81    1
    54   115   116    2
    55   106   105    1
    56   106   107    2
    57    18    16    1
    58    79    78    1
    59    79    80    1
    60    16    15    1
    61   145   144    1
    62   105   108    1
    63    64    63    2
    64    15    12    1
    65    81    80    2
    66    81    83    1
    67   108   109    1
    68    42    39    1
    69    63    62    1
    70    62    61    1
    71   144   143    1
    72    14    13    2
    73    12    13    1
    74    12    11    1
    75   141   140    2
    76    39    38    1
    77    39    40    1
    78   109   110    1
    79   110   111    1
    80   143   142    1
    81   142   139    1
    82    61    53   am
    83    38    32   am
    84    54    53    2
    85    11     3   am
    86    41    40    2
    87   140   139    1
    88    53    52    1
    89    37    35   am
    90   112   111    1
    91    35    36    2
    92    35    34    1
    93   139   138    1
    94    34    31    1
    95    32    33    2
    96    32    31    1
    97     3     4    2
    98     3     2    1
    99    31    30    1
   100    55    52    1
   101    55    56    1
   102    52    51    1
   103    30    21   am
   104     7     6   ar
   105     7     9   ar
   106    19    20    1
   107   138   136   am
   108     5     2    1
   109     5     6    1
   110     1     2    1
   111    51    45   am
   112    21    22    2
   113    21    20    1
   114     6     8   ar
   115     9    10   ar
   116    56    58   ar
   117    56    57   ar
   118   137   136    2
   119   136   135    1
   120   121   122    1
   121    20    23    1
   122    43    44    1
   123    58    60   ar
   124    57    59   ar
   125    45    46    2
   126    45    44    1
   127    10     8   ar
   128   122   125    1
   129   122   123    1
   130    23    24    1
   131    44    47    1
   132   135   134    1
   133    60    59   ar
   134   125   126    1
   135    47    48    1
   136   123   124    2
   137   134   129   am
   138    24    25    1
   139   130   129    2
   140   129   128    1
   141    48    50   ar
   142    48    49   ar
   143    25    26    1
   144    26    27    2
   145   131   128    1
   146   131   133    1
   147   131   132    1
   148   128   127    1
   149    27    29    1
   150    27    28    1
