@<TRIPOS>MOLECULE
tmp/6mivC02.pdb
 86 86 0 0 0
SMALL
GASTEIGER

@<TRIPOS>ATOM
      1  N         89.4190    2.3640  166.4380 N.3   106  SER106     -0.1202
      2  CA        88.5000    3.4990  166.4220 C.3   106  SER106      0.2020
      3  C         88.8240    4.4280  165.2470 C.2   106  SER106      0.2619
      4  O         89.8850    4.3450  164.6500 O.2   106  SER106     -0.2717
      5  CB        88.5360    4.2490  167.7380 C.3   106  SER106      0.2103
      6  OG        89.7900    4.8900  167.9270 O.3   106  SER106     -0.2182
      7  N         87.8770    5.3110  164.9290 N.am  107  GLU107     -0.1965
      8  CA        88.0600    6.3810  163.9580 C.3   107  GLU107      0.1733
      9  C         87.5260    7.6690  164.5910 C.2   107  GLU107      0.2617
     10  O         86.4370    7.6730  165.1540 O.2   107  GLU107     -0.2715
     11  CB        87.3220    6.0510  162.6560 C.3   107  GLU107      0.0429
     12  CG        87.3470    7.2210  161.6710 C.3   107  GLU107      0.1163
     13  CD        86.3760    7.0720  160.5240 C.2   107  GLU107      0.3649
     14  OE1       85.8540    5.9590  160.3100 O.co2 107  GLU107     -0.2457
     15  OE2       86.1200    8.0930  159.8450 O.co2 107  GLU107     -0.2457
     16  N         88.3100    8.7410  164.5170 N.am  108  SER108     -0.1936
     17  CA        87.9470   10.0320  165.0650 C.3   108  SER108      0.2055
     18  C         87.5320   10.9670  163.9270 C.2   108  SER108      0.2643
     19  O         87.9360   10.7700  162.7870 O.2   108  SER108     -0.2714
     20  CB        89.0790   10.6070  165.8590 C.3   108  SER108      0.2130
     21  OG        89.2600    9.8950  167.0700 O.3   108  SER108     -0.2179
     22  N         86.7500   11.9960  164.2680 N.am  109  PHE109     -0.1973
     23  CA        86.2320   12.9700  163.3160 C.3   109  PHE109      0.1639
     24  C         86.0380   14.3160  164.0200 C.2   109  PHE109      0.2290
     25  O         85.8230   14.3970  165.2520 O.2   109  PHE109     -0.2864
     26  CB        84.9040   12.5050  162.7030 C.3   109  PHE109      0.0560
     27  CG        83.8260   12.2230  163.7180 C.ar  109  PHE109     -0.0200
     28  CD1       82.9470   13.2220  164.1260 C.ar  109  PHE109     -0.0042
     29  CD2       83.7250   10.9720  164.3060 C.ar  109  PHE109     -0.0042
     30  CE1       81.9850   12.9640  165.0960 C.ar  109  PHE109     -0.0003
     31  CE2       82.7690   10.7190  165.2790 C.ar  109  PHE109     -0.0003
     32  CZ        81.8970   11.7130  165.6700 C.ar  109  PHE109     -0.0000
     33  N         88.7800   18.6400  160.3300 N.3   122  PHE122     -0.1227
     34  CA        90.1490   18.3490  160.6590 C.3   122  PHE122      0.1736
     35  C         90.4500   16.9310  160.1630 C.2   122  PHE122      0.2595
     36  O         89.6930   16.0050  160.4110 O.2   122  PHE122     -0.2718
     37  CB        90.4240   18.4950  162.1610 C.3   122  PHE122      0.0547
     38  CG        91.8920   18.5840  162.4950 C.ar  122  PHE122     -0.0202
     39  CD1       92.6510   17.4390  162.6810 C.ar  122  PHE122     -0.0042
     40  CD2       92.5300   19.8150  162.5670 C.ar  122  PHE122     -0.0042
     41  CE1       94.0070   17.5300  162.9580 C.ar  122  PHE122     -0.0003
     42  CE2       93.8910   19.9030  162.8250 C.ar  122  PHE122     -0.0003
     43  CZ        94.6280   18.7590  163.0240 C.ar  122  PHE122     -0.0000
     44  N         91.5720   16.7870  159.4670 N.am  123  TRP123     -0.1962
     45  CA        91.9680   15.5360  158.8610 C.3   123  TRP123      0.1771
     46  C         93.4920   15.4240  158.8780 C.2   123  TRP123      0.2620
     47  O         94.1920   16.2720  158.3490 O.2   123  TRP123     -0.2715
     48  CB        91.4270   15.4360  157.4300 C.3   123  TRP123      0.0590
     49  CG        91.5470   14.0630  156.8480 C.ar  123  TRP123      0.0006
     50  CD1       92.3140   13.6720  155.7880 C.ar  123  TRP123      0.0946
     51  CD2       90.8640   12.8850  157.3090 C.ar  123  TRP123      0.0152
     52  NE1       92.1530   12.3310  155.5590 N.ar  123  TRP123     -0.2442
     53  CE2       91.2690   11.8220  156.4740 C.ar  123  TRP123      0.0810
     54  CE3       89.9450   12.6320  158.3350 C.ar  123  TRP123      0.0012
     55  CZ2       90.7810   10.5250  156.6370 C.ar  123  TRP123      0.0191
     56  CZ3       89.4680   11.3480  158.5010 C.ar  123  TRP123      0.0001
     57  CH2       89.8820   10.3110  157.6600 C.ar  123  TRP123      0.0015
     58  N         93.9960   14.3630  159.5000 N.am  124  GLY124     -0.1954
     59  CA        95.4170   14.1440  159.5670 C.3   124  GLY124      0.1869
     60  C         96.0820   15.1030  160.5350 C.2   124  GLY124      0.2309
     61  O         96.0660   14.8680  161.7500 O.2   124  GLY124     -0.2863
     62  N         95.3070   17.0510  167.2130 N.3   155  GLN155     -0.1245
     63  CA        95.7840   15.7320  166.8340 C.3   155  GLN155      0.1566
     64  C         95.7190   14.7900  168.0460 C.2   155  GLN155      0.2260
     65  O         95.2430   13.6590  167.9200 O.2   155  GLN155     -0.2867
     66  CB        97.1970   15.8050  166.2590 C.3   155  GLN155      0.0367
     67  CG        97.2460   16.3090  164.8250 C.3   155  GLN155      0.0905
     68  CD        98.6730   16.3660  164.3430 C.2   155  GLN155      0.2608
     69  OE1       99.3750   15.3610  164.3560 O.2   155  GLN155     -0.2717
     70  NE2       99.1250   17.5520  163.9680 N.am  155  GLN155     -0.0878
     71  N         91.9480   14.0050  169.1300 N.3   158  LEU158     -0.1231
     72  CA        91.2640   13.0540  168.2610 C.3   158  LEU158      0.1693
     73  C         91.9480   11.6800  168.3050 C.2   158  LEU158      0.2592
     74  O         91.2630   10.6580  168.3680 O.2   158  LEU158     -0.2718
     75  CB        91.2400   13.5840  166.8250 C.3   158  LEU158      0.0284
     76  CG        90.4960   14.9030  166.6070 C.3   158  LEU158      0.0019
     77  CD1       90.5800   15.3300  165.1460 C.3   158  LEU158      0.0001
     78  CD2       89.0490   14.7880  167.0460 C.3   158  LEU158      0.0001
     79  N         93.2810   11.6550  168.2200 N.am  159  ASN159     -0.1974
     80  CA        94.0050   10.3920  168.0350 C.3   159  ASN159      0.1688
     81  C         94.0590    9.5950  169.3420 C.2   159  ASN159      0.2292
     82  O         93.9130    8.3940  169.3050 O.2   159  ASN159     -0.2864
     83  CB        95.4380   10.5750  167.5280 C.3   159  ASN159      0.1181
     84  CG        95.5250   11.0900  166.1100 C.2   159  ASN159      0.2629
     85  OD1       94.5440   11.5850  165.5530 O.2   159  ASN159     -0.2716
     86  ND2       96.7080   10.9780  165.5280 N.am  159  ASN159     -0.0877
@<TRIPOS>BOND
     1    52    50   ar
     2    52    53   ar
     3    50    49   ar
     4    53    55   ar
     5    53    51   ar
     6    55    57   ar
     7    49    51   ar
     8    49    48    1
     9    51    54   ar
    10    48    45    1
    11    57    56   ar
    12    54    56   ar
    13    47    46    2
    14    45    46    1
    15    45    44    1
    16    46    58   am
    17    44    35   am
    18    58    59    1
    19    59    60    1
    20    15    13   ar
    21    35    36    2
    22    35    34    1
    23    14    13   ar
    24    33    34    1
    25    13    12    1
    26    60    61    2
    27    34    37    1
    28    12    11    1
    29    37    38    1
    30    38    40   ar
    31    38    39   ar
    32    40    42   ar
    33    11     8    1
    34    39    41   ar
    35    26    23    1
    36    26    27    1
    37    19    18    2
    38    42    43   ar
    39    41    43   ar
    40    23    24    1
    41    23    22    1
    42    27    28   ar
    43    27    29   ar
    44    18    22   am
    45    18    17    1
    46     8     9    1
    47     8     7    1
    48    70    68   am
    49    24    25    2
    50    28    30   ar
    51    29    31   ar
    52    68    69    2
    53    68    67    1
    54    16     9   am
    55    16    17    1
    56     9    10    2
    57     4     3    2
    58    67    66    1
    59     7     3   am
    60    17    20    1
    61    30    32   ar
    62    77    76    1
    63     3     2    1
    64    31    32   ar
    65    86    84   am
    66    85    84    2
    67    20    21    1
    68    84    83    1
    69    66    63    1
    70     2     1    1
    71     2     5    1
    72    76    75    1
    73    76    78    1
    74    75    72    1
    75    63    62    1
    76    63    64    1
    77    83    80    1
    78     5     6    1
    79    65    64    2
    80    80    79    1
    81    80    81    1
    82    79    73   am
    83    72    73    1
    84    72    71    1
    85    73    74    2
    86    82    81    2
