@<TRIPOS>MOLECULE
tmp/6miwA00.pdb
 105 101 0 0 0
SMALL
GASTEIGER

@<TRIPOS>ATOM
      1  N        -30.8570    2.5460    1.7240 N.3     6  TRP6       -0.1241
      2  CA       -32.0670    2.8590    2.4890 C.3     6  TRP6        0.1605
      3  C        -32.9310    1.5970    2.5750 C.2     6  TRP6        0.2264
      4  O        -32.8770    0.7090    1.6710 O.2     6  TRP6       -0.2867
      5  CB       -32.7890    4.0560    1.8710 C.3     6  TRP6        0.0550
      6  CG       -33.2280    3.7800    0.4680 C.ar    6  TRP6        0.0003
      7  CD1      -32.4550    3.8680   -0.6520 C.ar    6  TRP6        0.0946
      8  CD2      -34.5220    3.3350    0.0320 C.ar    6  TRP6        0.0152
      9  NE1      -33.1880    3.5610   -1.7570 N.ar    6  TRP6       -0.2442
     10  CE2      -34.4520    3.1980   -1.3770 C.ar    6  TRP6        0.0810
     11  CE3      -35.7200    3.0210    0.6870 C.ar    6  TRP6        0.0012
     12  CZ2      -35.5390    2.7770   -2.1530 C.ar    6  TRP6        0.0191
     13  CZ3      -36.7960    2.6160   -0.0780 C.ar    6  TRP6        0.0001
     14  CH2      -36.7060    2.4960   -1.4710 C.ar    6  TRP6        0.0015
     15  N        -30.0670    0.2230   -2.8010 N.3    16  SER16      -0.1202
     16  CA       -28.9920    1.1730   -3.1690 C.3    16  SER16       0.2020
     17  C        -29.6240    2.4980   -3.5710 C.2    16  SER16       0.2619
     18  O        -30.6910    2.5180   -4.1960 O.2    16  SER16      -0.2717
     19  CB       -28.1200    0.5710   -4.2490 C.3    16  SER16       0.2103
     20  OG       -27.1550   -0.2400   -3.6030 O.3    16  SER16      -0.2182
     21  N        -29.0450    3.5990   -3.1170 N.am   17  TYR17      -0.1961
     22  CA       -29.3680    4.9200   -3.7260 C.3    17  TYR17       0.1771
     23  C        -28.8730    4.8900   -5.1660 C.2    17  TYR17       0.2620
     24  O        -27.9190    4.1420   -5.4390 O.2    17  TYR17      -0.2715
     25  CB       -28.7100    6.0380   -2.8980 C.3    17  TYR17       0.0574
     26  CG       -29.4480    6.3700   -1.6320 C.ar   17  TYR17      -0.0198
     27  CD1      -30.5660    7.1710   -1.6420 C.ar   17  TYR17      -0.0009
     28  CD2      -29.0330    5.8700   -0.4230 C.ar   17  TYR17      -0.0009
     29  CE1      -31.2420    7.4900   -0.4690 C.ar   17  TYR17       0.0417
     30  CE2      -29.6620    6.1950    0.7640 C.ar   17  TYR17       0.0417
     31  CZ       -30.7940    6.9830    0.7360 C.ar   17  TYR17       0.1957
     32  OH       -31.3900    7.2980    1.9060 O.3    17  TYR17      -0.2866
     33  N        -29.4320    5.7000   -6.0400 N.am   18  SER18      -0.1950
     34  CA       -28.8470    5.9520   -7.3880 C.3    18  SER18       0.1924
     35  C        -27.3880    6.3930   -7.2370 C.2    18  SER18       0.2314
     36  O        -26.9930    6.8940   -6.1280 O.2    18  SER18      -0.2863
     37  CB       -29.6420    6.9950   -8.1040 C.3    18  SER18       0.2116
     38  OG       -29.5390    8.2760   -7.4580 O.3    18  SER18      -0.2180
     39  N        -27.4750   10.1100   -6.2400 N.3    21  ASN21      -0.1240
     40  CA       -27.8270   10.4080   -4.8260 C.3    21  ASN21       0.1653
     41  C        -26.7640    9.8360   -3.8900 C.2    21  ASN21       0.2266
     42  O        -26.4780   10.5030   -2.8750 O.2    21  ASN21      -0.2867
     43  CB       -29.2330    9.9750   -4.4790 C.3    21  ASN21       0.1155
     44  CG       -30.2690   10.8600   -5.1190 C.2    21  ASN21       0.2627
     45  OD1      -29.9870   12.0360   -5.3560 O.2    21  ASN21      -0.2716
     46  ND2      -31.4580   10.3120   -5.3620 N.am   21  ASN21      -0.0877
     47  N        -31.1130   16.0900   -0.2740 N.3    38  PHE38      -0.1241
     48  CA       -31.1160   15.6330   -1.6790 C.3    38  PHE38       0.1605
     49  C        -32.5790   15.6270   -2.0880 C.2    38  PHE38       0.2264
     50  O        -33.4760   15.6600   -1.1970 O.2    38  PHE38      -0.2867
     51  CB       -30.3630   14.2970   -1.8330 C.3    38  PHE38       0.0534
     52  CG       -31.1240   13.0680   -1.3880 C.ar   38  PHE38      -0.0203
     53  CD1      -31.9970   12.4270   -2.2510 C.ar   38  PHE38      -0.0042
     54  CD2      -31.0150   12.5900   -0.0990 C.ar   38  PHE38      -0.0042
     55  CE1      -32.7400   11.3430   -1.8290 C.ar   38  PHE38      -0.0003
     56  CE2      -31.7480   11.4890    0.3180 C.ar   38  PHE38      -0.0003
     57  CZ       -32.6090   10.8700   -0.5490 C.ar   38  PHE38      -0.0000
     58  N        -35.3980   13.6400   -4.9000 N.3    40  ALA40      -0.1245
     59  CA       -35.6610   12.4570   -5.7410 C.3    40  ALA40       0.1562
     60  C        -37.1110   12.6030   -6.1450 C.2    40  ALA40       0.2260
     61  O        -37.9540   12.7760   -5.2230 O.2    40  ALA40      -0.2867
     62  CB       -35.4180   11.1630   -4.9890 C.3    40  ALA40       0.0290
     63  N        -39.1400   15.5440   -4.7050 N.3    43  ARG43      -0.1245
     64  CA       -39.3690   15.5260   -3.2210 C.3    43  ARG43       0.1563
     65  C        -38.0170   15.7150   -2.5000 C.2    43  ARG43       0.2260
     66  O        -36.9270   15.3450   -3.0600 O.2    43  ARG43      -0.2867
     67  CB       -40.1540   14.2760   -2.7920 C.3    43  ARG43       0.0307
     68  CG       -41.5050   14.2190   -3.4040 C.3    43  ARG43       0.0489
     69  CD       -42.3100   13.0170   -2.9300 C.3    43  ARG43       0.2205
     70  NE       -41.7340   11.8170   -3.6470 N.pl3  43  ARG43      -0.0865
     71  CZ       -42.1600   10.5960   -3.4560 C.cat  43  ARG43       0.5346
     72  NH1      -43.1810   10.3210   -2.6090 N.pl3  43  ARG43       0.1354
     73  NH2      -41.5940    9.6160   -4.1550 N.pl3  43  ARG43       0.1354
     74  N        -35.4300   15.3740    0.8390 N.3    45  TYR45      -0.1241
     75  CA       -35.0650   14.4240    1.9200 C.3    45  TYR45       0.1605
     76  C        -33.7980   14.9460    2.5810 C.2    45  TYR45       0.2264
     77  O        -32.9510   15.5560    1.9050 O.2    45  TYR45      -0.2867
     78  CB       -34.8690   12.9880    1.4150 C.3    45  TYR45       0.0534
     79  CG       -36.0500   12.4190    0.6860 C.ar   45  TYR45      -0.0201
     80  CD1      -36.1830   12.5780   -0.6890 C.ar   45  TYR45      -0.0009
     81  CD2      -37.0300   11.7210    1.3700 C.ar   45  TYR45      -0.0009
     82  CE1      -37.2860   12.0840   -1.3510 C.ar   45  TYR45       0.0417
     83  CE2      -38.1280   11.2150    0.7260 C.ar   45  TYR45       0.0417
     84  CZ       -38.2560   11.4100   -0.6390 C.ar   45  TYR45       0.1957
     85  OH       -39.3610   10.9060   -1.2300 O.3    45  TYR45      -0.2866
     86  N        -33.0670    8.6610    7.0080 N.3    54  GLN54      -0.1245
     87  CA       -33.5350    9.5740    5.9540 C.3    54  GLN54       0.1566
     88  C        -34.8850   10.1270    6.3830 C.2    54  GLN54       0.2260
     89  O        -35.8160    9.3520    6.7280 O.2    54  GLN54      -0.2867
     90  CB       -33.6770    8.8520    4.6260 C.3    54  GLN54       0.0367
     91  CG       -34.2990    9.7140    3.5380 C.3    54  GLN54       0.0905
     92  CD       -34.6410    8.8730    2.3320 C.2    54  GLN54       0.2608
     93  OE1      -33.7440    8.5060    1.5570 O.2    54  GLN54      -0.2717
     94  NE2      -35.9080    8.4950    2.2220 N.am   54  GLN54      -0.0878
     95  N        -36.9630    6.7080    7.2540 N.3    63  ARG63      -0.1245
     96  CA       -36.4840    5.4090    6.7700 C.3    63  ARG63       0.1563
     97  C        -35.0480    5.2490    7.1960 C.2    63  ARG63       0.2260
     98  O        -34.2520    6.1780    7.0790 O.2    63  ARG63      -0.2867
     99  CB       -36.5660    5.3460    5.2610 C.3    63  ARG63       0.0307
    100  CG       -37.8990    5.8120    4.7220 C.3    63  ARG63       0.0489
    101  CD       -37.9310    5.1800    3.3730 C.3    63  ARG63       0.2205
    102  NE       -38.7080    5.8970    2.4390 N.pl3  63  ARG63      -0.0865
    103  CZ       -39.8380    5.4720    1.9430 C.cat  63  ARG63       0.5346
    104  NH1      -40.3850    4.3540    2.3860 N.pl3  63  ARG63       0.1354
    105  NH2      -40.4360    6.1980    1.0230 N.pl3  63  ARG63       0.1354
@<TRIPOS>BOND
     1    37    38    1
     2    37    34    1
     3    34    35    1
     4    34    33    1
     5    35    36    2
     6    39    40    1
     7    60    59    1
     8    60    61    2
     9    33    23   am
    10    59    62    1
    11    59    58    1
    12    24    23    2
    13    46    44   am
    14    45    44    2
    15    23    22    1
    16    44    43    1
    17    40    43    1
    18    40    41    1
    19    63    64    1
    20    19    20    1
    21    19    16    1
    22    18    17    2
    23    73    71    1
    24    41    42    2
    25    22    21    1
    26    22    25    1
    27    70    71    2
    28    70    69    1
    29    17    16    1
    30    17    21   am
    31    71    72    1
    32    68    69    1
    33    68    67    1
    34    64    67    1
    35    64    65    1
    36    16    15    1
    37    66    65    2
    38    25    26    1
    39    53    55   ar
    40    53    52   ar
    41    12    14   ar
    42    12    10   ar
    43    49    48    1
    44    49    50    2
    45    51    48    1
    46    51    52    1
    47    55    57   ar
    48     9    10   ar
    49     9     7   ar
    50    48    47    1
    51    27    26   ar
    52    27    29   ar
    53    26    28   ar
    54    14    13   ar
    55    52    54   ar
    56    10     8   ar
    57    82    80   ar
    58    82    84   ar
    59    85    84    1
    60    80    79   ar
    61     7     6   ar
    62    84    83   ar
    63    57    56   ar
    64    29    31   ar
    65    28    30   ar
    66    54    56   ar
    67    13    11   ar
    68     8     6   ar
    69     8    11   ar
    70     6     5    1
    71    79    81   ar
    72    79    78    1
    73    83    81   ar
    74    31    30   ar
    75    31    32    1
    76    74    75    1
    77   105   103    1
    78    78    75    1
    79    93    92    2
    80     4     3    2
    81     1     2    1
    82     5     2    1
    83    77    76    2
    84    75    76    1
    85   103   104    1
    86   103   102    2
    87    94    92   am
    88    92    91    1
    89   102   101    1
    90     2     3    1
    91   101   100    1
    92    91    90    1
    93    90    87    1
    94   100    99    1
    95    99    96    1
    96    87    88    1
    97    87    86    1
    98    88    89    2
    99    96    97    1
   100    96    95    1
   101    98    97    2
