@<TRIPOS>MOLECULE
tmp/6miyA00.pdb
 87 83 0 0 0
SMALL
GASTEIGER

@<TRIPOS>ATOM
      1  N        170.7020   34.2030  213.0060 N.3    28  PRO28      -0.2102
      2  CA       171.8080   33.2630  213.1240 C.3    28  PRO28       0.1504
      3  C        173.1500   33.9410  212.8060 C.2    28  PRO28       0.2576
      4  O        173.1710   35.1030  212.4040 O.2    28  PRO28      -0.2718
      5  CB       171.5010   32.1480  212.1140 C.3    28  PRO28       0.0282
      6  CG       170.6220   32.8150  211.0880 C.3    28  PRO28       0.0208
      7  CD       169.8500   33.8640  211.8600 C.3    28  PRO28       0.0893
      8  N        174.2450   33.1930  212.9960 N.am   29  ASP29      -0.1960
      9  CA       175.6220   33.6790  212.8290 C.3    29  ASP29       0.1840
     10  C        176.3370   32.8040  211.7930 C.2    29  ASP29       0.2622
     11  O        176.9280   31.7780  212.1400 O.2    29  ASP29      -0.2715
     12  CB       176.3720   33.6900  214.1670 C.3    29  ASP29       0.1450
     13  CG       176.3410   32.3740  214.9330 C.2    29  ASP29       0.3671
     14  OD1      175.4760   31.5360  214.6250 O.co2  29  ASP29      -0.2456
     15  OD2      177.1860   32.1970  215.8370 O.co2  29  ASP29      -0.2456
     16  N        176.2680   33.2180  210.5210 N.am   30  ASN30      -0.1972
     17  CA       176.8380   32.4610  209.4030 C.3    30  ASN30       0.1688
     18  C        178.3650   32.5840  209.4100 C.2    30  ASN30       0.2292
     19  O        179.0720   31.5810  209.4450 O.2    30  ASN30      -0.2864
     20  CB       176.3050   32.9270  208.0480 C.3    30  ASN30       0.1181
     21  CG       177.0120   32.2560  206.8890 C.2    30  ASN30       0.2629
     22  OD1      177.9560   32.8090  206.3330 O.2    30  ASN30      -0.2716
     23  ND2      176.5800   31.0580  206.5340 N.am   30  ASN30      -0.0877
     24  N        184.0950   30.9300  209.4570 N.3    50  VAL50      -0.1231
     25  CA       182.8130   30.3670  209.0080 C.3    50  VAL50       0.1692
     26  C        182.3820   29.1760  209.8790 C.2    50  VAL50       0.2592
     27  O        181.1900   29.0150  210.1260 O.2    50  VAL50      -0.2718
     28  CB       182.8660   29.9890  207.5140 C.3    50  VAL50       0.0266
     29  CG1      183.1960   31.1940  206.6450 C.3    50  VAL50       0.0020
     30  CG2      183.8340   28.8500  207.2340 C.3    50  VAL50       0.0020
     31  N        183.3310   28.3420  210.3220 N.am   51  ASP51      -0.1960
     32  CA       183.0260   27.0820  211.0240 C.3    51  ASP51       0.1840
     33  C        182.6060   27.3510  212.4750 C.2    51  ASP51       0.2621
     34  O        182.7340   28.4600  212.9880 O.2    51  ASP51      -0.2715
     35  CB       184.2150   26.1170  210.9920 C.3    51  ASP51       0.1450
     36  CG       184.6400   25.7070  209.5930 C.2    51  ASP51       0.3671
     37  OD1      183.7640   25.6480  208.7050 O.co2  51  ASP51      -0.2456
     38  OD2      185.8470   25.4540  209.4040 O.co2  51  ASP51      -0.2456
     39  N        182.1090   26.2920  213.1210 N.am   52  GLN52      -0.1977
     40  CA       181.6150   26.3090  214.4970 C.3    52  GLN52       0.1601
     41  C        182.7660   26.6390  215.4610 C.2    52  GLN52       0.2287
     42  O        182.5800   27.4020  216.4120 O.2    52  GLN52      -0.2864
     43  CB       180.9700   24.9560  214.8140 C.3    52  GLN52       0.0394
     44  CG       180.0640   24.9600  216.0390 C.3    52  GLN52       0.0908
     45  CD       178.7690   25.7090  215.8320 C.2    52  GLN52       0.2608
     46  OE1      178.3550   25.9930  214.7080 O.2    52  GLN52      -0.2717
     47  NE2      178.1120   26.0370  216.9340 N.am   52  GLN52      -0.0878
     48  N        181.1920   29.6680  217.9690 N.3    67  LYS67      -0.1245
     49  CA       179.8150   30.0770  217.6860 C.3    67  LYS67       0.1561
     50  C        178.8940   29.7320  218.8630 C.2    67  LYS67       0.2260
     51  O        177.8890   30.4070  219.0660 O.2    67  LYS67      -0.2867
     52  CB       179.3210   29.4340  216.3880 C.3    67  LYS67       0.0271
     53  CG       179.7820   30.1320  215.1160 C.3    67  LYS67       0.0035
     54  CD       179.1090   29.6120  213.8690 C.3    67  LYS67       0.0206
     55  CE       179.6400   30.2510  212.6060 C.3    67  LYS67       0.1093
     56  NZ       178.9350   29.7440  211.4070 N.3    67  LYS67      -0.1314
     57  N        174.5380   37.2910  208.9340 N.3    93  ASP93      -0.1225
     58  CA       173.4830   36.4120  209.4400 C.3    93  ASP93       0.1805
     59  C        172.9960   35.4620  208.3370 C.2    93  ASP93       0.2598
     60  O        172.0900   34.6720  208.5700 O.2    93  ASP93      -0.2718
     61  CB       172.3290   37.2110  210.0560 C.3    93  ASP93       0.1424
     62  CG       171.7410   38.3000  209.1700 C.2    93  ASP93       0.3668
     63  OD1      171.9420   38.2390  207.9390 O.co2  93  ASP93      -0.2456
     64  OD2      171.0840   39.2060  209.7210 O.co2  93  ASP93      -0.2456
     65  N        173.5930   35.5480  207.1440 N.am   94  ARG94      -0.1966
     66  CA       173.3220   34.6100  206.0620 C.3    94  ARG94       0.1729
     67  C        174.6230   34.2850  205.3220 C.2    94  ARG94       0.2616
     68  O        175.5790   35.0630  205.3540 O.2    94  ARG94      -0.2715
     69  CB       172.3190   35.1850  205.0590 C.3    94  ARG94       0.0348
     70  CG       170.9430   35.4850  205.6340 C.3    94  ARG94       0.0492
     71  CD       170.1330   34.2350  205.9260 C.3    94  ARG94       0.2205
     72  NE       168.7520   34.5830  206.2220 N.pl3  94  ARG94      -0.0865
     73  CZ       168.3480   35.1730  207.3410 C.cat  94  ARG94       0.5346
     74  NH1      167.1020   35.5990  207.4500 N.pl3  94  ARG94       0.1354
     75  NH2      169.1900   35.3470  208.3430 N.pl3  94  ARG94       0.1354
     76  N        174.6160   33.1400  204.6290 N.am   95  GLY95      -0.1955
     77  CA       175.6670   32.7570  203.6990 C.3    95  GLY95       0.1869
     78  C        175.3490   33.1880  202.2760 C.2    95  GLY95       0.2309
     79  O        175.7790   32.5400  201.3250 O.2    95  GLY95      -0.2863
     80  N        171.1390   37.7170  200.8360 N.3    98  LEU98      -0.1245
     81  CA       169.9410   37.9140  201.6630 C.3    98  LEU98       0.1561
     82  C        170.3300   38.3040  203.0970 C.2    98  LEU98       0.2260
     83  O        169.4620   38.6340  203.9040 O.2    98  LEU98      -0.2867
     84  CB       169.1110   36.6280  201.6660 C.3    98  LEU98       0.0270
     85  CG       168.4920   36.2410  200.3260 C.3    98  LEU98       0.0019
     86  CD1      167.7080   34.9450  200.4520 C.3    98  LEU98       0.0001
     87  CD2      167.5990   37.3530  199.7980 C.3    98  LEU98       0.0001
@<TRIPOS>BOND
     1    87    85    1
     2    85    86    1
     3    85    84    1
     4    80    81    1
     5    79    78    2
     6    81    84    1
     7    81    82    1
     8    78    77    1
     9    82    83    2
    10    77    76    1
    11    76    67   am
    12    69    70    1
    13    69    66    1
    14    67    68    2
    15    67    66    1
    16    70    71    1
    17    71    72    1
    18    66    65    1
    19    72    73    2
    20    22    21    2
    21    23    21   am
    22    29    28    1
    23    21    20    1
    24    65    59   am
    25    30    28    1
    26    73    74    1
    27    73    75    1
    28    28    25    1
    29    63    62   ar
    30    20    17    1
    31    59    60    2
    32    59    58    1
    33    37    36   ar
    34    57    58    1
    35    25    24    1
    36    25    26    1
    37    62    64   ar
    38    62    61    1
    39    17    18    1
    40    17    16    1
    41    38    36   ar
    42    18    19    2
    43    58    61    1
    44    36    35    1
    45    26    27    2
    46    26    31   am
    47    31    32    1
    48    16    10   am
    49    35    32    1
    50    32    33    1
    51     6     7    1
    52     6     5    1
    53    56    55    1
    54    10    11    2
    55    10     9    1
    56     7     1    1
    57     5     2    1
    58     4     3    2
    59    33    34    2
    60    33    39   am
    61    55    54    1
    62     3     8   am
    63     3     2    1
    64     9     8    1
    65     9    12    1
    66     1     2    1
    67    39    40    1
    68    54    53    1
    69    12    13    1
    70    40    43    1
    71    40    41    1
    72    14    13   ar
    73    46    45    2
    74    43    44    1
    75    13    15   ar
    76    53    52    1
    77    41    42    2
    78    45    44    1
    79    45    47   am
    80    52    49    1
    81    49    48    1
    82    49    50    1
    83    50    51    2
