@<TRIPOS>MOLECULE
tmp/6mjjA00.pdb
 78 74 0 0 0
SMALL
GASTEIGER

@<TRIPOS>ATOM
      1  N         95.2830  223.3970  327.5330 N.3    29  PRO29      -0.2102
      2  CA        96.4280  222.4950  327.6250 C.3    29  PRO29       0.1504
      3  C         97.7420  223.2080  327.2790 C.2    29  PRO29       0.2576
      4  O         97.7370  224.3360  326.7900 O.2    29  PRO29      -0.2718
      5  CB        96.1180  221.4190  326.5790 C.3    29  PRO29       0.0282
      6  CG        95.3170  222.1560  325.5280 C.3    29  PRO29       0.0208
      7  CD        94.5270  223.2040  326.2840 C.3    29  PRO29       0.0893
      8  N         98.8490  222.5120  327.5440 N.am   30  ASP30      -0.1960
      9  CA       100.1960  222.9980  327.3230 C.3    30  ASP30       0.1840
     10  C        100.8240  222.1610  326.2010 C.2    30  ASP30       0.2622
     11  O        101.3600  221.0990  326.4560 O.2    30  ASP30      -0.2715
     12  CB       100.9910  222.9590  328.6360 C.3    30  ASP30       0.1450
     13  CG       100.8300  221.6980  329.4820 C.2    30  ASP30       0.3671
     14  OD1       99.8920  220.9020  329.2090 O.co2  30  ASP30      -0.2456
     15  OD2      101.6300  221.5230  330.4380 O.co2  30  ASP30      -0.2456
     16  N        100.7260  222.6310  324.9510 N.am   31  ASN31      -0.1972
     17  CA       101.2600  221.8770  323.8150 C.3    31  ASN31       0.1688
     18  C        102.7900  221.9640  323.8020 C.2    31  ASN31       0.2292
     19  O        103.4710  220.9580  323.6310 O.2    31  ASN31      -0.2864
     20  CB       100.7190  222.3430  322.4640 C.3    31  ASN31       0.1181
     21  CG       101.3990  221.6350  321.3100 C.2    31  ASN31       0.2629
     22  OD1      102.2970  222.1900  320.6810 O.2    31  ASN31      -0.2716
     23  ND2      101.0070  220.4000  321.0500 N.am   31  ASN31      -0.0877
     24  N        108.5910  220.2490  324.0960 N.3    51  VAL51      -0.1231
     25  CA       107.3210  219.6560  323.6230 C.3    51  VAL51       0.1692
     26  C        106.9000  218.4460  324.4770 C.2    51  VAL51       0.2592
     27  O        105.7080  218.1830  324.5860 O.2    51  VAL51      -0.2718
     28  CB       107.4010  219.2870  322.1270 C.3    51  VAL51       0.0266
     29  CG1      107.6700  220.5080  321.2640 C.3    51  VAL51       0.0020
     30  CG2      108.4330  218.2060  321.8460 C.3    51  VAL51       0.0020
     31  N        107.8560  217.7080  325.0580 N.am   52  ASP52      -0.1974
     32  CA       107.5740  216.4330  325.7520 C.3    52  ASP52       0.1709
     33  C        107.1230  216.6780  327.1980 C.2    52  ASP52       0.2293
     34  O        107.4540  217.6920  327.8120 O.2    52  ASP52      -0.2864
     35  CB       108.7900  215.5020  325.7610 C.3    52  ASP52       0.1436
     36  CG       109.1990  214.9820  324.3950 C.2    52  ASP52       0.3671
     37  OD1      108.3770  215.0590  323.4580 O.co2  52  ASP52      -0.2456
     38  OD2      110.3400  214.4980  324.2810 O.co2  52  ASP52      -0.2456
     39  N        105.6520  219.0530  332.4840 N.3    68  LYS68      -0.1245
     40  CA       104.2750  219.4540  332.1740 C.3    68  LYS68       0.1561
     41  C        103.3320  219.1190  333.3400 C.2    68  LYS68       0.2260
     42  O        102.2730  219.7280  333.4670 O.2    68  LYS68      -0.2867
     43  CB       103.8000  218.8030  330.8690 C.3    68  LYS68       0.0271
     44  CG       104.3990  219.3910  329.5950 C.3    68  LYS68       0.0035
     45  CD       103.6110  219.0420  328.3480 C.3    68  LYS68       0.0206
     46  CE       104.2030  219.6150  327.0770 C.3    68  LYS68       0.1093
     47  NZ       103.4800  219.1340  325.8730 N.3    68  LYS68      -0.1314
     48  N         99.0610  226.7530  323.3740 N.3    94  ASP94      -0.1225
     49  CA        98.0350  225.8600  323.9070 C.3    94  ASP94       0.1805
     50  C         97.5270  224.8870  322.8290 C.2    94  ASP94       0.2598
     51  O         96.6180  224.1060  323.0970 O.2    94  ASP94      -0.2718
     52  CB        96.9140  226.6440  324.6010 C.3    94  ASP94       0.1424
     53  CG        96.1050  227.5960  323.7360 C.2    94  ASP94       0.3668
     54  OD1       96.1690  227.4870  322.4930 O.co2  94  ASP94      -0.2456
     55  OD2       95.4060  228.4460  324.3200 O.co2  94  ASP94      -0.2456
     56  N         98.1170  224.9130  321.6290 N.am   95  ARG95      -0.1966
     57  CA        97.7610  223.9610  320.5680 C.3    95  ARG95       0.1729
     58  C         98.9870  223.6140  319.7290 C.2    95  ARG95       0.2616
     59  O         99.8860  224.4230  319.5670 O.2    95  ARG95      -0.2715
     60  CB        96.7170  224.5240  319.6030 C.3    95  ARG95       0.0348
     61  CG        95.3660  224.8240  320.2270 C.3    95  ARG95       0.0492
     62  CD        94.5710  223.5630  320.5200 C.3    95  ARG95       0.2205
     63  NE        93.2130  223.9290  320.8920 N.pl3  95  ARG95      -0.0865
     64  CZ        92.8660  224.4720  322.0490 C.cat  95  ARG95       0.5346
     65  NH1       91.6260  224.8900  322.2290 N.pl3  95  ARG95       0.1354
     66  NH2       93.7580  224.6080  323.0170 N.pl3  95  ARG95       0.1354
     67  N         98.9620  222.4140  319.1460 N.am   96  GLY96      -0.1955
     68  CA        99.9670  221.9760  318.2050 C.3    96  GLY96       0.1869
     69  C         99.6750  222.4000  316.7690 C.2    96  GLY96       0.2309
     70  O        100.1690  221.7660  315.8510 O.2    96  GLY96      -0.2863
     71  N         95.4900  226.9190  315.3370 N.3    99  LEU99      -0.1245
     72  CA        94.3300  227.1650  316.1960 C.3    99  LEU99       0.1561
     73  C         94.7740  227.5780  317.6070 C.2    99  LEU99       0.2260
     74  O         93.9370  227.9530  318.4190 O.2    99  LEU99      -0.2867
     75  CB        93.4660  225.9040  316.2550 C.3    99  LEU99       0.0270
     76  CG        92.8800  225.4540  314.9190 C.3    99  LEU99       0.0019
     77  CD1       91.9660  224.2600  315.1040 C.3    99  LEU99       0.0001
     78  CD2       92.1430  226.5940  314.2350 C.3    99  LEU99       0.0001
@<TRIPOS>BOND
     1    78    76    1
     2    76    77    1
     3    76    75    1
     4    71    72    1
     5    70    69    2
     6    72    75    1
     7    72    73    1
     8    69    68    1
     9    73    74    2
    10    68    67    1
    11    67    58   am
    12    59    58    2
    13    60    61    1
    14    60    57    1
    15    58    57    1
    16    61    62    1
    17    62    63    1
    18    57    56    1
    19    22    21    2
    20    63    64    2
    21    23    21   am
    22    29    28    1
    23    21    20    1
    24    56    50   am
    25    30    28    1
    26    64    65    1
    27    64    66    1
    28    28    25    1
    29    20    17    1
    30    54    53   ar
    31    50    51    2
    32    50    49    1
    33    48    49    1
    34    37    36   ar
    35    25    24    1
    36    25    26    1
    37    19    18    2
    38    53    55   ar
    39    53    52    1
    40    18    17    1
    41    17    16    1
    42    49    52    1
    43    38    36   ar
    44    36    35    1
    45    26    27    2
    46    26    31   am
    47    16    10   am
    48    31    32    1
    49     6     7    1
    50     6     5    1
    51    32    35    1
    52    32    33    1
    53    47    46    1
    54    10    11    2
    55    10     9    1
    56     7     1    1
    57     5     2    1
    58     4     3    2
    59    46    45    1
    60    33    34    2
    61     3     8   am
    62     3     2    1
    63     9     8    1
    64     9    12    1
    65     1     2    1
    66    45    44    1
    67    12    13    1
    68    14    13   ar
    69    13    15   ar
    70    44    43    1
    71    43    40    1
    72    40    39    1
    73    40    41    1
    74    41    42    2
