@<TRIPOS>MOLECULE
tmp/6mjkA00.pdb
 90 85 0 0 0
SMALL
GASTEIGER

@<TRIPOS>ATOM
      1  N         -2.7470    7.4270  -14.4660 N.3    48  LEU48      -0.1245
      2  CA        -3.4370    8.0240  -13.3300 C.3    48  LEU48       0.1561
      3  C         -2.4380    8.8210  -12.4980 C.2    48  LEU48       0.2260
      4  O         -1.4750    8.2590  -11.9640 O.2    48  LEU48      -0.2867
      5  CB        -4.1020    6.9450  -12.4790 C.3    48  LEU48       0.0270
      6  CG        -4.9620    7.4380  -11.3090 C.3    48  LEU48       0.0019
      7  CD1       -6.0510    8.4020  -11.7800 C.3    48  LEU48       0.0001
      8  CD2       -5.5790    6.2610  -10.5610 C.3    48  LEU48       0.0001
      9  N        -12.7820   17.1230  -13.0390 N.3    65  VAL65      -0.1245
     10  CA       -11.4160   17.2310  -13.5440 C.3    65  VAL65       0.1561
     11  C        -11.5160   17.4760  -15.0440 C.2    65  VAL65       0.2260
     12  O        -12.1510   16.6970  -15.7640 O.2    65  VAL65      -0.2867
     13  CB       -10.6040   15.9620  -13.2430 C.3    65  VAL65       0.0252
     14  CG1       -9.1570   16.1940  -13.6110 C.3    65  VAL65       0.0019
     15  CG2      -10.7190   15.5760  -11.7720 C.3    65  VAL65       0.0019
     16  N         -9.5590   11.7410  -18.9000 N.3    80  GLY80      -0.1210
     17  CA       -10.5850   10.7290  -18.7750 C.3    80  GLY80       0.1956
     18  C        -11.2330   10.7790  -17.4030 C.2    80  GLY80       0.2612
     19  O        -10.8520   11.5650  -16.5380 O.2    80  GLY80      -0.2717
     20  N        -12.2240    9.9060  -17.2050 N.am   81  ALA81      -0.1965
     21  CA       -12.9350    9.8480  -15.9310 C.3    81  ALA81       0.1728
     22  C        -13.4300   11.2570  -15.5950 C.2    81  ALA81       0.2617
     23  O        -14.1110   11.8710  -16.4280 O.2    81  ALA81      -0.2715
     24  CB       -12.0540    9.2350  -14.8330 C.3    81  ALA81       0.0334
     25  N        -13.0830   11.7940  -14.4180 N.am   82  GLY82      -0.1940
     26  CA       -13.2330   13.2130  -14.1540 C.3    82  GLY82       0.2014
     27  C        -14.3650   13.6150  -13.2270 C.2    82  GLY82       0.2639
     28  O        -14.4220   14.7820  -12.8300 O.2    82  GLY82      -0.2714
     29  N        -15.2660   12.7110  -12.8620 N.am   83  VAL83      -0.1963
     30  CA       -16.3860   13.0520  -11.9870 C.3    83  VAL83       0.1727
     31  C        -15.9530   12.7980  -10.5440 C.2    83  VAL83       0.2616
     32  O        -15.8110   11.6470  -10.1260 O.2    83  VAL83      -0.2715
     33  CB       -17.6400   12.2390  -12.3390 C.3    83  VAL83       0.0290
     34  CG1      -18.7860   12.5620  -11.3770 C.3    83  VAL83       0.0023
     35  CG2      -18.0630   12.4940  -13.7750 C.3    83  VAL83       0.0023
     36  N        -15.7810   13.8660   -9.7640 N.am   84  VAL84      -0.1963
     37  CA       -15.4140   13.7550   -8.3520 C.3    84  VAL84       0.1727
     38  C        -16.6270   14.1070   -7.4990 C.2    84  VAL84       0.2616
     39  O        -17.0790   15.2600   -7.4700 O.2    84  VAL84      -0.2715
     40  CB       -14.1980   14.6220   -8.0040 C.3    84  VAL84       0.0290
     41  CG1      -13.8520   14.4800   -6.5250 C.3    84  VAL84       0.0023
     42  CG2      -13.0060   14.2200   -8.8680 C.3    84  VAL84       0.0023
     43  N        -17.1600   13.1070   -6.8060 N.am   85  ASP85      -0.1971
     44  CA       -18.3720   13.2900   -6.0240 C.3    85  ASP85       0.1709
     45  C        -18.1000   14.1210   -4.7750 C.2    85  ASP85       0.2293
     46  O        -17.0010   14.0950   -4.2050 O.2    85  ASP85      -0.2864
     47  CB       -18.9060   11.9190   -5.6320 C.3    85  ASP85       0.1436
     48  CG       -19.1520   11.0440   -6.8400 C.2    85  ASP85       0.3671
     49  OD1      -20.1210   11.3260   -7.5640 O.co2  85  ASP85      -0.2456
     50  OD2      -18.3640   10.1110   -7.1050 O.co2  85  ASP85      -0.2456
     51  N        -16.6660   12.2790   -1.8370 N.3    88  TYR88      -0.1241
     52  CA       -15.3900   11.5840   -1.9560 C.3    88  TYR88       0.1605
     53  C        -14.3520   12.2080   -1.0350 C.2    88  TYR88       0.2264
     54  O        -14.1180   13.4230   -1.0710 O.2    88  TYR88      -0.2867
     55  CB       -14.8790   11.6460   -3.3880 C.3    88  TYR88       0.0534
     56  CG       -13.5470   10.9610   -3.6250 C.ar   88  TYR88      -0.0201
     57  CD1      -13.4290    9.5710   -3.5500 C.ar   88  TYR88      -0.0009
     58  CD2      -12.4150   11.6970   -3.9770 C.ar   88  TYR88      -0.0009
     59  CE1      -12.2260    8.9370   -3.8020 C.ar   88  TYR88       0.0417
     60  CE2      -11.2070   11.0690   -4.2500 C.ar   88  TYR88       0.0417
     61  CZ       -11.1170    9.6890   -4.1580 C.ar   88  TYR88       0.1957
     62  OH        -9.9180    9.0610   -4.4210 O.3    88  TYR88      -0.2866
     63  N         -7.8320   10.3790   -2.2630 N.3    91  ASN91      -0.1225
     64  CA        -6.8220   11.1200   -3.0070 C.3    91  ASN91       0.1785
     65  C         -7.3940   11.5030   -4.3700 C.2    91  ASN91       0.2597
     66  O         -7.8570   10.6380   -5.1210 O.2    91  ASN91      -0.2718
     67  CB        -5.5920   10.2200   -3.1710 C.3    91  ASN91       0.1169
     68  CG        -4.3260   10.9790   -3.5690 C.2    91  ASN91       0.2627
     69  OD1       -4.3650   11.9450   -4.3290 O.2    91  ASN91      -0.2716
     70  ND2       -3.1830   10.5170   -3.0600 N.am   91  ASN91      -0.0877
     71  N         -7.3840   12.7970   -4.6810 N.am   92  LEU92      -0.1966
     72  CA        -7.9050   13.2890   -5.9540 C.3    92  LEU92       0.1728
     73  C         -6.9550   12.8870   -7.0820 C.2    92  LEU92       0.2616
     74  O         -5.8100   13.3500   -7.1440 O.2    92  LEU92      -0.2715
     75  CB        -8.0570   14.8040   -5.8640 C.3    92  LEU92       0.0311
     76  CG        -8.4390   15.5660   -7.1240 C.3    92  LEU92       0.0022
     77  CD1       -9.7390   15.0480   -7.7020 C.3    92  LEU92       0.0001
     78  CD2       -8.5560   17.0490   -6.8150 C.3    92  LEU92       0.0001
     79  N         -7.4290   12.0340   -7.9870 N.am   93  GLY93      -0.1955
     80  CA        -6.6210   11.5300   -9.0820 C.3    93  GLY93       0.1869
     81  C         -7.0370   12.1580  -10.3990 C.2    93  GLY93       0.2309
     82  O         -8.2170   12.4450  -10.6180 O.2    93  GLY93      -0.2863
     83  N         -6.8800   11.3270  -14.3900 N.3    95  LEU95      -0.1245
     84  CA        -6.6210   10.3070  -15.4040 C.3    95  LEU95       0.1561
     85  C         -6.3360   10.9980  -16.7330 C.2    95  LEU95       0.2260
     86  O         -7.2220   11.6270  -17.3230 O.2    95  LEU95      -0.2867
     87  CB        -7.8010    9.3470  -15.5240 C.3    95  LEU95       0.0270
     88  CG        -7.5980    8.2130  -16.5380 C.3    95  LEU95       0.0019
     89  CD1       -6.3960    7.3260  -16.1690 C.3    95  LEU95       0.0001
     90  CD2       -8.8680    7.3860  -16.6710 C.3    95  LEU95       0.0001
@<TRIPOS>BOND
     1    16    17    1
     2    17    18    1
     3    18    20   am
     4    18    19    2
     5    86    85    2
     6    20    21    1
     7    85    84    1
     8    90    88    1
     9    88    89    1
    10    88    87    1
    11    23    22    2
    12    21    22    1
    13    21    24    1
    14    12    11    2
    15    22    25   am
    16    87    84    1
    17    84    83    1
    18    11    10    1
    19     1     2    1
    20    25    26    1
    21    26    27    1
    22    35    33    1
    23    14    13    1
    24    10    13    1
    25    10     9    1
    26     2     3    1
    27     2     5    1
    28    13    15    1
    29    27    29   am
    30    27    28    2
    31    29    30    1
    32     3     4    2
    33     5     6    1
    34    33    30    1
    35    33    34    1
    36    30    31    1
    37     7     6    1
    38     6     8    1
    39    82    81    2
    40    31    32    2
    41    31    36   am
    42    81    80    1
    43    36    37    1
    44    80    79    1
    45    42    40    1
    46    37    40    1
    47    37    38    1
    48    40    41    1
    49    79    73   am
    50    77    76    1
    51    49    48   ar
    52    38    39    2
    53    38    43   am
    54    74    73    2
    55    76    78    1
    56    76    75    1
    57    50    48   ar
    58    73    72    1
    59    48    47    1
    60    43    44    1
    61    44    47    1
    62    44    45    1
    63    72    75    1
    64    72    71    1
    65    66    65    2
    66    45    46    2
    67    71    65   am
    68    62    61    1
    69    65    64    1
    70    69    68    2
    71    60    61   ar
    72    60    58   ar
    73    61    59   ar
    74    58    56   ar
    75    59    57   ar
    76    56    57   ar
    77    56    55    1
    78    68    67    1
    79    68    70   am
    80    55    52    1
    81    67    64    1
    82    64    63    1
    83    52    51    1
    84    52    53    1
    85    54    53    2
