@<TRIPOS>MOLECULE
tmp/6mkeA00.pdb
 151 147 0 0 0
SMALL
GASTEIGER

@<TRIPOS>ATOM
      1  N         -0.0900    6.9530    4.8280 N.3    36  TYR36      -0.1241
      2  CA         0.9920    5.9850    4.9040 C.3    36  TYR36       0.1605
      3  C          2.2080    6.4710    4.1340 C.2    36  TYR36       0.2264
      4  O          2.1190    7.3210    3.2440 O.2    36  TYR36      -0.2867
      5  CB         0.5530    4.5950    4.4110 C.3    36  TYR36       0.0534
      6  CG         0.4680    4.4190    2.9110 C.ar   36  TYR36      -0.0201
      7  CD1        1.5990    4.1090    2.1580 C.ar   36  TYR36      -0.0009
      8  CD2       -0.7520    4.5200    2.2520 C.ar   36  TYR36      -0.0009
      9  CE1        1.5190    3.9400    0.7890 C.ar   36  TYR36       0.0417
     10  CE2       -0.8430    4.3440    0.8870 C.ar   36  TYR36       0.0417
     11  CZ         0.2930    4.0530    0.1600 C.ar   36  TYR36       0.1957
     12  OH         0.2000    3.8780   -1.2010 O.3    36  TYR36      -0.2866
     13  N          9.5370    4.3850   -1.2450 N.3    46  PHE46      -0.1227
     14  CA         9.0140    3.9520   -2.5320 C.3    46  PHE46       0.1736
     15  C          7.5910    4.4200   -2.8110 C.2    46  PHE46       0.2595
     16  O          7.1590    4.3540   -3.9680 O.2    46  PHE46      -0.2718
     17  CB         9.0960    2.4180   -2.6790 C.3    46  PHE46       0.0547
     18  CG         8.3260    1.6360   -1.6400 C.ar   46  PHE46      -0.0202
     19  CD1        6.9580    1.4430   -1.7610 C.ar   46  PHE46      -0.0042
     20  CD2        8.9860    1.0420   -0.5740 C.ar   46  PHE46      -0.0042
     21  CE1        6.2550    0.7090   -0.8170 C.ar   46  PHE46      -0.0003
     22  CE2        8.2950    0.3060    0.3720 C.ar   46  PHE46      -0.0003
     23  CZ         6.9260    0.1370    0.2510 C.ar   46  PHE46      -0.0000
     24  N          6.8630    4.9080   -1.8080 N.am   47  ASP47      -0.1974
     25  CA         5.5210    5.4380   -2.0180 C.3    47  ASP47       0.1709
     26  C          5.0480    6.1000   -0.7330 C.2    47  ASP47       0.2293
     27  O          5.5260    5.7870    0.3610 O.2    47  ASP47      -0.2864
     28  CB         4.5290    4.3460   -2.4390 C.3    47  ASP47       0.1436
     29  CG         3.2110    4.9160   -2.9310 C.2    47  ASP47       0.3671
     30  OD1        3.1710    6.1180   -3.2620 O.co2  47  ASP47      -0.2456
     31  OD2        2.2150    4.1670   -2.9780 O.co2  47  ASP47      -0.2456
     32  N         -0.1330   11.9010   -3.0650 N.3    52  ARG52      -0.1245
     33  CA        -1.3840   12.1470   -3.7660 C.3    52  ARG52       0.1563
     34  C         -2.3060   13.0800   -2.9910 C.2    52  ARG52       0.2260
     35  O         -3.4520   13.2890   -3.4030 O.2    52  ARG52      -0.2867
     36  CB        -2.0780   10.8190   -4.0760 C.3    52  ARG52       0.0307
     37  CG        -1.2900    9.9720   -5.0750 C.3    52  ARG52       0.0489
     38  CD        -1.8040    8.5470   -5.1790 C.3    52  ARG52       0.2205
     39  NE        -1.4550    7.7480   -4.0090 N.pl3  52  ARG52      -0.0865
     40  CZ        -0.2540    7.2160   -3.7960 C.cat  52  ARG52       0.5346
     41  NH1        0.7280    7.4010   -4.6690 N.pl3  52  ARG52       0.1354
     42  NH2       -0.0330    6.4990   -2.7060 N.pl3  52  ARG52       0.1354
     43  N         -5.4610    7.3700    2.0190 N.3    56  PHE56      -0.1241
     44  CA        -5.6640    6.1140    1.3110 C.3    56  PHE56       0.1605
     45  C         -6.8080    5.3460    1.9580 C.2    56  PHE56       0.2264
     46  O         -6.9110    5.2840    3.1860 O.2    56  PHE56      -0.2867
     47  CB        -4.3870    5.2740    1.3220 C.3    56  PHE56       0.0534
     48  CG        -4.5650    3.8930    0.7600 C.ar   56  PHE56      -0.0203
     49  CD1       -4.7050    3.6980   -0.6040 C.ar   56  PHE56      -0.0042
     50  CD2       -4.5820    2.7880    1.5940 C.ar   56  PHE56      -0.0042
     51  CE1       -4.8640    2.4250   -1.1240 C.ar   56  PHE56      -0.0003
     52  CE2       -4.7460    1.5120    1.0810 C.ar   56  PHE56      -0.0003
     53  CZ        -4.8840    1.3310   -0.2800 C.ar   56  PHE56      -0.0000
     54  N         -7.7930   -7.2610   -0.2410 N.3    64  GLU64      -0.1231
     55  CA        -7.3900   -6.4500   -1.3810 C.3    64  GLU64       0.1699
     56  C         -6.0500   -5.7590   -1.1660 C.2    64  GLU64       0.2592
     57  O         -5.5230   -5.1580   -2.1070 O.2    64  GLU64      -0.2718
     58  CB        -8.4700   -5.4100   -1.6930 C.3    64  GLU64       0.0402
     59  CG        -8.7420   -4.4270   -0.5610 C.3    64  GLU64       0.1161
     60  CD        -9.9390   -3.5310   -0.8360 C.2    64  GLU64       0.3649
     61  OE1      -10.8790   -3.9810   -1.5290 O.co2  64  GLU64      -0.2457
     62  OE2       -9.9360   -2.3740   -0.3630 O.co2  64  GLU64      -0.2457
     63  N         -5.4930   -5.8240    0.0410 N.am   65  VAL65      -0.1966
     64  CA        -4.1640   -5.3070    0.3260 C.3    65  VAL65       0.1727
     65  C         -3.2990   -6.4610    0.8210 C.2    65  VAL65       0.2616
     66  O         -3.7870   -7.5580    1.0940 O.2    65  VAL65      -0.2715
     67  CB        -4.1810   -4.1540    1.3500 C.3    65  VAL65       0.0290
     68  CG1       -4.8880   -2.9380    0.7770 C.3    65  VAL65       0.0023
     69  CG2       -4.8400   -4.6000    2.6420 C.3    65  VAL65       0.0023
     70  N         -1.9960   -6.1930    0.9420 N.am   66  ILE66      -0.1977
     71  CA        -1.0720   -7.2330    1.3710 C.3    66  ILE66       0.1596
     72  C         -1.4230   -7.6920    2.7810 C.2    66  ILE66       0.2287
     73  O         -1.9660   -6.9350    3.5960 O.2    66  ILE66      -0.2864
     74  CB         0.3890   -6.7560    1.2930 C.3    66  ILE66       0.0276
     75  CG1        0.6140   -5.5270    2.1760 C.3    66  ILE66       0.0022
     76  CG2        0.7750   -6.4630   -0.1550 C.3    66  ILE66       0.0022
     77  CD1        2.0390   -5.0080    2.1300 C.3    66  ILE66       0.0001
     78  N         -0.8050   -5.6570    5.8830 N.3    69  TRP69      -0.1241
     79  CA        -1.6570   -4.4930    6.1120 C.3    69  TRP69       0.1605
     80  C         -2.9840   -4.8780    6.7540 C.2    69  TRP69       0.2264
     81  O         -3.4460   -4.1980    7.6770 O.2    69  TRP69      -0.2867
     82  CB        -1.9020   -3.7490    4.7970 C.3    69  TRP69       0.0550
     83  CG        -1.0180   -2.5510    4.6070 C.ar   69  TRP69       0.0003
     84  CD1        0.3450   -2.5400    4.5200 C.ar   69  TRP69       0.0946
     85  CD2       -1.4400   -1.1880    4.4670 C.ar   69  TRP69       0.0152
     86  NE1        0.7960   -1.2540    4.3380 N.ar   69  TRP69      -0.2442
     87  CE2       -0.2810   -0.4070    4.2990 C.ar   69  TRP69       0.0810
     88  CE3       -2.6870   -0.5540    4.4610 C.ar   69  TRP69       0.0012
     89  CZ2       -0.3310    0.9750    4.1330 C.ar   69  TRP69       0.0191
     90  CZ3       -2.7340    0.8180    4.3010 C.ar   69  TRP69       0.0001
     91  CH2       -1.5640    1.5670    4.1370 C.ar   69  TRP69       0.0015
     92  N          3.9450   -9.6120    2.4910 N.3    91  ALA91      -0.1231
     93  CA         3.8120   -8.5510    1.5050 C.3    91  ALA91       0.1694
     94  C          3.7140   -9.1360    0.1010 C.2    91  ALA91       0.2592
     95  O          2.7560   -9.8500   -0.2140 O.2    91  ALA91      -0.2718
     96  CB         4.9910   -7.5810    1.6100 C.3    91  ALA91       0.0304
     97  N          4.6990   -8.8500   -0.7470 N.am   92  TYR92      -0.1976
     98  CA         4.6880   -9.3140   -2.1280 C.3    92  TYR92       0.1639
     99  C          5.5340  -10.5590   -2.3520 C.2    92  TYR92       0.2290
    100  O          5.6430  -11.0160   -3.4940 O.2    92  TYR92      -0.2864
    101  CB         5.1460   -8.1890   -3.0590 C.3    92  TYR92       0.0560
    102  CG         4.2680   -6.9640   -2.9510 C.ar   92  TYR92      -0.0198
    103  CD1        4.6550   -5.8730   -2.1860 C.ar   92  TYR92      -0.0009
    104  CD2        3.0370   -6.9120   -3.5900 C.ar   92  TYR92      -0.0009
    105  CE1        3.8500   -4.7550   -2.0740 C.ar   92  TYR92       0.0417
    106  CE2        2.2210   -5.7990   -3.4830 C.ar   92  TYR92       0.0417
    107  CZ         2.6330   -4.7220   -2.7220 C.ar   92  TYR92       0.1957
    108  OH         1.8270   -3.6110   -2.6080 O.3    92  TYR92      -0.2866
    109  N          7.5910  -11.9570   -5.5090 N.3    95  ASN95      -0.1240
    110  CA         7.2700  -11.0630   -6.6100 C.3    95  ASN95       0.1653
    111  C          7.9550   -9.7180   -6.4140 C.2    95  ASN95       0.2266
    112  O          8.2090   -9.2860   -5.2870 O.2    95  ASN95      -0.2867
    113  CB         5.7600  -10.8510   -6.7250 C.3    95  ASN95       0.1155
    114  CG         5.0020  -12.1470   -6.9080 C.2    95  ASN95       0.2627
    115  OD1        4.9870  -12.7190   -7.9960 O.2    95  ASN95      -0.2716
    116  ND2        4.3580  -12.6140   -5.8440 N.am   95  ASN95      -0.0877
    117  N          7.8800   -5.5010   -7.6170 N.3    97  ILE97      -0.1245
    118  CA         7.1630   -4.3780   -8.2120 C.3    97  ILE97       0.1561
    119  C          8.1540   -3.6340   -9.1020 C.2    97  ILE97       0.2260
    120  O          9.1780   -3.1530   -8.5930 O.2    97  ILE97      -0.2867
    121  CB         6.5690   -3.4490   -7.1440 C.3    97  ILE97       0.0252
    122  CG1        5.7350   -4.2550   -6.1450 C.3    97  ILE97       0.0019
    123  CG2        5.7160   -2.3690   -7.7930 C.3    97  ILE97       0.0019
    124  CD1        4.6100   -5.0410   -6.7830 C.3    97  ILE97       0.0001
    125  N         10.5100   -0.4210   -8.2300 N.3   100  LEU100     -0.1231
    126  CA        10.2730    0.0710   -6.8780 C.3   100  LEU100      0.1693
    127  C         10.7160   -0.9190   -5.8100 C.2   100  LEU100      0.2591
    128  O         11.4910   -0.5650   -4.9160 O.2   100  LEU100     -0.2718
    129  CB         8.7930    0.4030   -6.6790 C.3   100  LEU100      0.0284
    130  CG         8.2940    1.7120   -7.2890 C.3   100  LEU100      0.0019
    131  CD1        6.8780    2.0040   -6.8180 C.3   100  LEU100      0.0001
    132  CD2        9.2300    2.8590   -6.9380 C.3   100  LEU100      0.0001
    133  N         10.2210   -2.1490   -5.8800 N.am  101  ILE101     -0.1980
    134  CA        10.4210   -3.1150   -4.8050 C.3   101  ILE101      0.1595
    135  C         11.0290   -4.3950   -5.3620 C.2   101  ILE101      0.2287
    136  O         10.3720   -5.1090   -6.1310 O.2   101  ILE101     -0.2864
    137  CB         9.1020   -3.4130   -4.0770 C.3   101  ILE101      0.0276
    138  CG1        8.5350   -2.1340   -3.4530 C.3   101  ILE101      0.0022
    139  CG2        9.3080   -4.4800   -3.0210 C.3   101  ILE101      0.0022
    140  CD1        7.2310   -2.3360   -2.7200 C.3   101  ILE101      0.0001
    141  N          6.4060    0.3500    6.8130 N.3   109  PHE109     -0.1241
    142  CA         5.2790    1.2430    6.5830 C.3   109  PHE109      0.1605
    143  C          4.9940    2.0680    7.8270 C.2   109  PHE109      0.2264
    144  O          4.8840    1.5260    8.9300 O.2   109  PHE109     -0.2867
    145  CB         4.0090    0.4710    6.2020 C.3   109  PHE109      0.0534
    146  CG         3.9510    0.0610    4.7620 C.ar  109  PHE109     -0.0203
    147  CD1        3.5960    0.9720    3.7830 C.ar  109  PHE109     -0.0042
    148  CD2        4.2200   -1.2450    4.3910 C.ar  109  PHE109     -0.0042
    149  CE1        3.5310    0.5930    2.4590 C.ar  109  PHE109     -0.0003
    150  CE2        4.1470   -1.6330    3.0670 C.ar  109  PHE109     -0.0003
    151  CZ         3.8050   -0.7130    2.1000 C.ar  109  PHE109     -0.0000
@<TRIPOS>BOND
     1   119   120    2
     2   119   118    1
     3   125   126    1
     4   118   117    1
     5   118   121    1
     6   115   114    2
     7   123   121    1
     8   130   132    1
     9   130   131    1
    10   130   129    1
    11   121   122    1
    12   114   113    1
    13   114   116   am
    14   126   129    1
    15   126   127    1
    16   124   122    1
    17   113   110    1
    18   110   111    1
    19   110   109    1
    20   111   112    2
    21   136   135    2
    22   133   127   am
    23   133   134    1
    24   127   128    2
    25   135   134    1
    26    38    37    1
    27    38    39    1
    28    37    36    1
    29   134   137    1
    30    41    40    1
    31   137   138    1
    32   137   139    1
    33    36    33    1
    34    39    40    2
    35    16    15    2
    36    40    42    1
    37    33    32    1
    38    33    34    1
    39   104   106   ar
    40   104   102   ar
    41   100    99    2
    42   106   107   ar
    43   138   140    1
    44    35    34    2
    45    30    29   ar
    46   101   102    1
    47   101    98    1
    48    31    29   ar
    49   102   103   ar
    50    29    28    1
    51    15    14    1
    52    15    24   am
    53   107   108    1
    54   107   105   ar
    55    17    14    1
    56    17    18    1
    57    14    13    1
    58    28    25    1
    59    99    98    1
    60   103   105   ar
    61    98    97    1
    62    57    56    2
    63    25    24    1
    64    25    26    1
    65    19    18   ar
    66    19    21   ar
    67    58    55    1
    68    58    59    1
    69    18    20   ar
    70    61    60   ar
    71    55    56    1
    72    55    54    1
    73    12    11    1
    74    56    63   am
    75    51    49   ar
    76    51    53   ar
    77    60    59    1
    78    60    62   ar
    79    21    23   ar
    80    97    94   am
    81    26    27    2
    82    49    48   ar
    83    20    22   ar
    84    53    52   ar
    85    95    94    2
    86    76    74    1
    87    63    64    1
    88    94    93    1
    89    11     9   ar
    90    11    10   ar
    91    23    22   ar
    92    64    65    1
    93    64    67    1
    94    48    47    1
    95    48    50   ar
    96    68    67    1
    97     9     7   ar
    98    65    70   am
    99    65    66    2
   100    10     8   ar
   101    70    71    1
   102    52    50   ar
   103    74    71    1
   104    74    75    1
   105    44    47    1
   106    44    45    1
   107    44    43    1
   108    67    69    1
   109    71    72    1
   110    93    96    1
   111    93    92    1
   112    45    46    2
   113   151   149   ar
   114   151   150   ar
   115    77    75    1
   116     7     6   ar
   117     8     6   ar
   118   149   147   ar
   119    72    73    2
   120     6     5    1
   121   150   148   ar
   122     4     3    2
   123   147   146   ar
   124    89    91   ar
   125    89    87   ar
   126     3     2    1
   127    91    90   ar
   128    87    86   ar
   129    87    85   ar
   130    90    88   ar
   131    86    84   ar
   132   148   146   ar
   133     5     2    1
   134    88    85   ar
   135    85    83   ar
   136    84    83   ar
   137    83    82    1
   138   146   145    1
   139    82    79    1
   140     1     2    1
   141    78    79    1
   142    79    80    1
   143   145   142    1
   144   142   141    1
   145   142   143    1
   146    80    81    2
   147   143   144    2
