@<TRIPOS>MOLECULE
tmp/6mkfA00.pdb
 121 111 0 0 0
SMALL
GASTEIGER

@<TRIPOS>ATOM
      1  N         13.3140  -85.9400  -45.8130 N.3   384  SER384     -0.1217
      2  CA        12.8830  -85.4700  -47.1260 C.3   384  SER384      0.1889
      3  C         13.4570  -84.1010  -47.4620 C.2   384  SER384      0.2288
      4  O         13.5690  -83.7560  -48.6440 O.2   384  SER384     -0.2866
      5  CB        11.3610  -85.4100  -47.1830 C.3   384  SER384      0.2089
      6  OG        10.7910  -86.4740  -46.4460 O.3   384  SER384     -0.2183
      7  N         15.9900  -83.6570  -50.1710 N.3   387  LYS387     -0.1245
      8  CA        15.6380  -83.5970  -51.5850 C.3   387  LYS387      0.1561
      9  C         16.1360  -82.3180  -52.2430 C.2   387  LYS387      0.2260
     10  O         16.4110  -82.3110  -53.4470 O.2   387  LYS387     -0.2867
     11  CB        14.1240  -83.7240  -51.7520 C.3   387  LYS387      0.0271
     12  CG        13.6260  -85.1550  -51.6670 C.3   387  LYS387      0.0035
     13  CD        12.1900  -85.2400  -51.1680 C.3   387  LYS387      0.0206
     14  CE        11.3180  -84.1410  -51.7510 C.3   387  LYS387      0.1093
     15  NZ        11.2180  -84.2030  -53.2330 N.3   387  LYS387     -0.1314
     16  N          3.0980  -89.7430  -50.4220 N.3   427  VAL427     -0.1245
     17  CA         1.8560  -89.4330  -49.7180 C.3   427  VAL427      0.1561
     18  C          0.7410  -89.0480  -50.6830 C.2   427  VAL427      0.2260
     19  O         -0.3820  -89.5480  -50.5790 O.2   427  VAL427     -0.2867
     20  CB         2.1120  -88.3210  -48.6790 C.3   427  VAL427      0.0252
     21  CG1        0.8050  -87.8890  -48.0330 C.3   427  VAL427      0.0019
     22  CG2        3.0960  -88.8020  -47.6290 C.3   427  VAL427      0.0019
     23  N          4.8470  -81.0230  -52.9450 N.3   441  TYR441     -0.1227
     24  CA         4.1990  -82.1660  -52.3180 C.3   441  TYR441      0.1736
     25  C          5.1690  -83.0840  -51.5870 C.2   441  TYR441      0.2596
     26  O          4.7180  -84.0210  -50.9190 O.2   441  TYR441     -0.2718
     27  CB         3.4360  -82.9840  -53.3630 C.3   441  TYR441      0.0548
     28  CG         2.2010  -82.3100  -53.9080 C.ar  441  TYR441     -0.0200
     29  CD1        2.2850  -81.4100  -54.9620 C.ar  441  TYR441     -0.0009
     30  CD2        0.9460  -82.5890  -53.3820 C.ar  441  TYR441     -0.0009
     31  CE1        1.1540  -80.7990  -55.4700 C.ar  441  TYR441      0.0417
     32  CE2       -0.1890  -81.9840  -53.8830 C.ar  441  TYR441      0.0417
     33  CZ        -0.0800  -81.0910  -54.9260 C.ar  441  TYR441      0.1957
     34  OH        -1.2100  -80.4870  -55.4250 O.3   441  TYR441     -0.2866
     35  N          6.4760  -82.8390  -51.6970 N.am  442  SER442     -0.1952
     36  CA         7.4990  -83.7100  -51.1240 C.3   442  SER442      0.1924
     37  C          7.3290  -85.1340  -51.6470 C.2   442  SER442      0.2314
     38  O          6.8480  -86.0270  -50.9370 O.2   442  SER442     -0.2863
     39  CB         7.4620  -83.6690  -49.5940 C.3   442  SER442      0.2116
     40  OG         8.5920  -84.3270  -49.0500 O.3   442  SER442     -0.2180
     41  N          8.7920  -88.5320  -52.8380 N.3   444  ASN444     -0.1240
     42  CA         9.9680  -89.3980  -52.7960 C.3   444  ASN444      0.1653
     43  C         10.2050  -90.0770  -54.1350 C.2   444  ASN444      0.2266
     44  O         11.3540  -90.2200  -54.5690 O.2   444  ASN444     -0.2867
     45  CB         9.8090  -90.4590  -51.7100 C.3   444  ASN444      0.1155
     46  CG         9.2560  -89.8960  -50.4370 C.2   444  ASN444      0.2627
     47  OD1        9.5950  -88.7850  -50.0460 O.2   444  ASN444     -0.2716
     48  ND2        8.3840  -90.6510  -49.7850 N.am  444  ASN444     -0.0877
     49  N         16.4140  -89.1600  -51.1080 N.3   500  TYR500     -0.1241
     50  CA        15.4570  -88.3710  -50.3430 C.3   500  TYR500      0.1605
     51  C         15.7400  -88.4060  -48.8420 C.2   500  TYR500      0.2264
     52  O         14.8150  -88.2990  -48.0270 O.2   500  TYR500     -0.2867
     53  CB        14.0210  -88.8110  -50.6460 C.3   500  TYR500      0.0534
     54  CG        13.7060  -90.2810  -50.4440 C.ar  500  TYR500     -0.0201
     55  CD1       14.0400  -91.2250  -51.4070 C.ar  500  TYR500     -0.0009
     56  CD2       13.0330  -90.7150  -49.3110 C.ar  500  TYR500     -0.0009
     57  CE1       13.7390  -92.5640  -51.2310 C.ar  500  TYR500      0.0417
     58  CE2       12.7260  -92.0500  -49.1280 C.ar  500  TYR500      0.0417
     59  CZ        13.0830  -92.9720  -50.0880 C.ar  500  TYR500      0.1957
     60  OH        12.7790  -94.3020  -49.9040 O.3   500  TYR500     -0.2866
     61  N         17.2200  -90.6970  -46.5930 N.3   502  GLN502     -0.1245
     62  CA        17.1350  -91.8660  -45.7220 C.3   502  GLN502      0.1566
     63  C         18.4810  -92.5950  -45.7710 C.2   502  GLN502      0.2260
     64  O         19.5130  -91.9300  -45.6250 O.2   502  GLN502     -0.2867
     65  CB        15.9390  -92.7150  -46.1250 C.3   502  GLN502      0.0367
     66  CG        14.6680  -91.9250  -46.3460 C.3   502  GLN502      0.0905
     67  CD        13.9490  -91.5890  -45.0610 C.2   502  GLN502      0.2608
     68  OE1       13.4060  -90.4960  -44.9130 O.2   502  GLN502     -0.2717
     69  NE2       13.9300  -92.5320  -44.1260 N.am  502  GLN502     -0.0878
     70  N          3.3500  -78.5760  -48.3350 N.3   565  THR565     -0.1218
     71  CA         3.4500  -79.2740  -47.0600 C.3   565  THR565      0.1862
     72  C          3.6870  -78.3260  -45.8890 C.2   565  THR565      0.2287
     73  O          3.5000  -78.7300  -44.7360 O.2   565  THR565     -0.2866
     74  CB         4.5610  -80.3200  -47.1220 C.3   565  THR565      0.1770
     75  OG1        5.7980  -79.6850  -47.4630 O.3   565  THR565     -0.2211
     76  CG2        4.2360  -81.3790  -48.1710 C.3   565  THR565      0.0375
     77  N          9.6490  -79.2390  -45.7390 N.3   580  THR580     -0.1203
     78  CA         9.4070  -80.1720  -44.6520 C.3   580  THR580      0.1994
     79  C          9.9600  -81.5490  -45.0060 C.2   580  THR580      0.2618
     80  O         10.3690  -81.8120  -46.1380 O.2   580  THR580     -0.2717
     81  CB         7.9140  -80.2700  -44.3430 C.3   580  THR580      0.1784
     82  OG1        7.2340  -80.8150  -45.4800 O.3   580  THR580     -0.2211
     83  CG2        7.3520  -78.8970  -44.0340 C.3   580  THR580      0.0376
     84  N          9.9560  -82.4400  -44.0180 N.am  581  GLY581     -0.1942
     85  CA        10.5340  -83.7500  -44.2430 C.3   581  GLY581      0.2014
     86  C         10.1170  -84.7530  -43.1940 C.2   581  GLY581      0.2639
     87  O          9.5140  -84.4170  -42.1730 O.2   581  GLY581     -0.2714
     88  N         10.4620  -86.0090  -43.4710 N.am  582  THR582     -0.1950
     89  CA        10.1300  -87.1250  -42.6010 C.3   582  THR582      0.1897
     90  C         11.1570  -88.2270  -42.8060 C.2   582  THR582      0.2313
     91  O         11.5490  -88.5140  -43.9400 O.2   582  THR582     -0.2863
     92  CB         8.7160  -87.6490  -42.8840 C.3   582  THR582      0.1794
     93  OG1        7.7560  -86.8330  -42.2020 O.3   582  THR582     -0.2208
     94  CG2        8.5680  -89.0950  -42.4340 C.3   582  THR582      0.0378
     95  N         11.7300  -92.2270  -41.5210 N.3   584  GLU584     -0.1245
     96  CA        11.2590  -93.4180  -40.8260 C.3   584  GLU584      0.1567
     97  C         12.4680  -94.2490  -40.4110 C.2   584  GLU584      0.2260
     98  O         13.3810  -94.4600  -41.2160 O.2   584  GLU584     -0.2867
     99  CB        10.3200  -94.2260  -41.7270 C.3   584  GLU584      0.0388
    100  CG         8.9630  -94.5480  -41.1050 C.3   584  GLU584      0.1160
    101  CD         9.0290  -95.7200  -40.1460 C.2   584  GLU584      0.3649
    102  OE1        9.9410  -96.5610  -40.2990 O.co2 584  GLU584     -0.2457
    103  OE2        8.1720  -95.8040  -39.2410 O.co2 584  GLU584     -0.2457
    104  N          9.1880  -92.2050  -36.1730 N.3   595  GLU595     -0.1245
    105  CA         9.1720  -91.2180  -37.2430 C.3   595  GLU595      0.1567
    106  C          9.7510  -89.8990  -36.7480 C.2   595  GLU595      0.2260
    107  O          9.3690  -89.4100  -35.6800 O.2   595  GLU595     -0.2867
    108  CB         7.7390  -91.0200  -37.7520 C.3   595  GLU595      0.0388
    109  CG         7.6130  -90.5420  -39.1920 C.3   595  GLU595      0.1160
    110  CD         6.1700  -90.5480  -39.6800 C.2   595  GLU595      0.3649
    111  OE1        5.3490  -91.2900  -39.1020 O.co2 595  GLU595     -0.2457
    112  OE2        5.8520  -89.8080  -40.6360 O.co2 595  GLU595     -0.2457
    113  N          8.2870  -88.6360  -33.2170 N.3   618  LYS618     -0.1245
    114  CA         7.1430  -87.7450  -33.0960 C.3   618  LYS618      0.1561
    115  C          5.9000  -88.5040  -32.6510 C.2   618  LYS618      0.2260
    116  O          5.6980  -89.6730  -32.9980 O.2   618  LYS618     -0.2867
    117  CB         6.8740  -87.0490  -34.4310 C.3   618  LYS618      0.0271
    118  CG         6.4240  -88.0000  -35.5310 C.3   618  LYS618      0.0035
    119  CD         6.2000  -87.2940  -36.8570 C.3   618  LYS618      0.0206
    120  CE         4.7180  -87.2020  -37.2070 C.3   618  LYS618      0.1093
    121  NZ         3.9620  -88.4590  -36.9400 N.3   618  LYS618     -0.1314
@<TRIPOS>BOND
     1    31    29   ar
     2    31    33   ar
     3    34    33    1
     4    29    28   ar
     5    33    32   ar
     6    44    43    2
     7    43    42    1
     8    28    30   ar
     9    28    27    1
    10    32    30   ar
    11    10     9    2
    12    27    24    1
    13    15    14    1
    14    23    24    1
    15    41    42    1
    16    42    45    1
    17    24    25    1
    18     9     8    1
    19    11    12    1
    20    11     8    1
    21    14    13    1
    22    45    46    1
    23    35    25   am
    24    35    36    1
    25    12    13    1
    26    37    36    1
    27    37    38    2
    28    25    26    2
    29     8     7    1
    30    55    57   ar
    31    55    54   ar
    32    57    59   ar
    33    36    39    1
    34    49    50    1
    35    18    19    2
    36    18    17    1
    37    53    54    1
    38    53    50    1
    39    54    56   ar
    40    46    47    2
    41    46    48   am
    42    16    17    1
    43    50    51    1
    44    59    60    1
    45    59    58   ar
    46    17    20    1
    47    39    40    1
    48    56    58   ar
    49    51    52    2
    50    20    21    1
    51    20    22    1
    52     4     3    2
    53    70    71    1
    54    76    74    1
    55    75    74    1
    56     3     2    1
    57     5     2    1
    58     5     6    1
    59     2     1    1
    60    74    71    1
    61    71    72    1
    62    61    62    1
    63    66    65    1
    64    66    67    1
    65    80    79    2
    66    65    62    1
    67    72    73    2
    68    63    62    1
    69    63    64    2
    70    77    78    1
    71    82    81    1
    72    67    68    2
    73    67    69   am
    74    79    78    1
    75    79    84   am
    76    78    81    1
    77    81    83    1
    78    85    84    1
    79    85    86    1
    80    91    90    2
    81    88    86   am
    82    88    89    1
    83    86    87    2
    84    92    89    1
    85    92    94    1
    86    92    93    1
    87    90    89    1
    88    99   100    1
    89    99    96    1
    90    95    96    1
    91    98    97    2
    92   100   101    1
    93    96    97    1
    94   112   110   ar
    95   102   101   ar
    96   101   103   ar
    97   110   109    1
    98   110   111   ar
    99   109   108    1
   100   108   105    1
   101   105   106    1
   102   105   104    1
   103   120   121    1
   104   120   119    1
   105   119   118    1
   106   106   107    2
   107   118   117    1
   108   117   114    1
   109   113   114    1
   110   114   115    1
   111   116   115    2
