@<TRIPOS>MOLECULE
tmp/6mkgA00.pdb
 125 117 0 0 0
SMALL
GASTEIGER

@<TRIPOS>ATOM
      1  N         15.8200  -86.5240  -43.6380 N.3   383  GLY383     -0.1210
      2  CA        14.4540  -86.6040  -44.1230 C.3   383  GLY383      0.1956
      3  C         14.2470  -85.9230  -45.4610 C.2   383  GLY383      0.2612
      4  O         15.2060  -85.6360  -46.1760 O.2   383  GLY383     -0.2717
      5  N         12.9860  -85.6500  -45.7870 N.am  384  SER384     -0.1952
      6  CA        12.6130  -85.0810  -47.0750 C.3   384  SER384      0.1924
      7  C         13.2070  -83.6930  -47.3070 C.2   384  SER384      0.2314
      8  O         13.1960  -83.1910  -48.4610 O.2   384  SER384     -0.2863
      9  CB        11.0920  -85.0010  -47.1780 C.3   384  SER384      0.2116
     10  OG        10.6040  -86.1910  -47.7250 O.3   384  SER384     -0.2180
     11  N          7.8400  -94.6650  -51.6330 N.3   425  THR425     -0.1203
     12  CA         6.4710  -94.3060  -51.2950 C.3   425  THR425      0.1994
     13  C          6.3180  -92.7940  -51.1950 C.2   425  THR425      0.2618
     14  O          7.1700  -92.1100  -50.6200 O.2   425  THR425     -0.2717
     15  CB         6.0440  -94.9630  -49.9710 C.3   425  THR425      0.1784
     16  OG1        6.1920  -96.3840  -50.0750 O.3   425  THR425     -0.2211
     17  CG2        4.5940  -94.6370  -49.6450 C.3   425  THR425      0.0376
     18  N          5.2270  -92.2830  -51.7590 N.am  426  ARG426     -0.1965
     19  CA         4.8180  -90.8950  -51.6100 C.3   426  ARG426      0.1729
     20  C          3.4280  -90.8430  -50.9840 C.2   426  ARG426      0.2616
     21  O          2.7180  -91.8480  -50.9060 O.2   426  ARG426     -0.2715
     22  CB         4.8310  -90.1620  -52.9570 C.3   426  ARG426      0.0348
     23  CG         3.8820  -90.7380  -53.9860 C.3   426  ARG426      0.0492
     24  CD         3.9140  -89.9180  -55.2600 C.3   426  ARG426      0.2205
     25  NE         2.9030  -90.3470  -56.2220 N.pl3 426  ARG426     -0.0865
     26  CZ         2.6430  -89.7110  -57.3580 C.cat 426  ARG426      0.5346
     27  NH1        1.7070  -90.1680  -58.1790 N.pl3 426  ARG426      0.1354
     28  NH2        3.3190  -88.6140  -57.6730 N.pl3 426  ARG426      0.1354
     29  N          3.0360  -89.6490  -50.5410 N.am  427  VAL427     -0.1977
     30  CA         1.8010  -89.4880  -49.7820 C.3   427  VAL427      0.1596
     31  C          0.6800  -88.9520  -50.6650 C.2   427  VAL427      0.2287
     32  O         -0.5000  -89.2080  -50.4060 O.2   427  VAL427     -0.2864
     33  CB         2.0210  -88.5730  -48.5620 C.3   427  VAL427      0.0276
     34  CG1        2.9440  -89.2460  -47.5630 C.3   427  VAL427      0.0022
     35  CG2        2.5930  -87.2320  -48.9950 C.3   427  VAL427      0.0022
     36  N          4.6960  -80.9740  -52.8580 N.3   441  TYR441     -0.1227
     37  CA         4.0660  -82.1340  -52.2400 C.3   441  TYR441      0.1736
     38  C          5.0520  -83.0550  -51.5330 C.2   441  TYR441      0.2596
     39  O          4.6160  -84.0200  -50.8920 O.2   441  TYR441     -0.2718
     40  CB         3.2940  -82.9380  -53.2920 C.3   441  TYR441      0.0548
     41  CG         2.0540  -82.2480  -53.8150 C.ar  441  TYR441     -0.0200
     42  CD1        2.1310  -81.3280  -54.8520 C.ar  441  TYR441     -0.0009
     43  CD2        0.8030  -82.5240  -53.2750 C.ar  441  TYR441     -0.0009
     44  CE1        0.9980  -80.6970  -55.3340 C.ar  441  TYR441      0.0417
     45  CE2       -0.3350  -81.8990  -53.7510 C.ar  441  TYR441      0.0417
     46  CZ        -0.2320  -80.9870  -54.7800 C.ar  441  TYR441      0.1957
     47  OH        -1.3610  -80.3600  -55.2590 O.3   441  TYR441     -0.2866
     48  N          6.3560  -82.7830  -51.6270 N.am  442  SER442     -0.1952
     49  CA         7.4050  -83.6430  -51.0750 C.3   442  SER442      0.1924
     50  C          7.2690  -85.0700  -51.6180 C.2   442  SER442      0.2314
     51  O          6.9090  -86.0170  -50.9140 O.2   442  SER442     -0.2863
     52  CB         7.3870  -83.6180  -49.5410 C.3   442  SER442      0.2116
     53  OG         8.5900  -84.1440  -49.0150 O.3   442  SER442     -0.2180
     54  N          8.6400  -88.3710  -52.9110 N.3   444  ASN444     -0.1240
     55  CA         9.8200  -89.2300  -52.8430 C.3   444  ASN444      0.1653
     56  C         10.0710  -89.9440  -54.1660 C.2   444  ASN444      0.2266
     57  O         11.2270  -90.1490  -54.5560 O.2   444  ASN444     -0.2867
     58  CB         9.6670  -90.2540  -51.7170 C.3   444  ASN444      0.1155
     59  CG         9.7720  -89.6330  -50.3370 C.2   444  ASN444      0.2627
     60  OD1        9.7710  -88.4120  -50.1880 O.2   444  ASN444     -0.2716
     61  ND2        9.8570  -90.4780  -49.3160 N.am  444  ASN444     -0.0877
     62  N         16.3590  -89.0040  -51.2470 N.3   500  TYR500     -0.1241
     63  CA        15.3970  -88.2270  -50.4720 C.3   500  TYR500      0.1605
     64  C         15.7020  -88.2690  -48.9770 C.2   500  TYR500      0.2264
     65  O         14.7970  -88.3050  -48.1420 O.2   500  TYR500     -0.2867
     66  CB        13.9600  -88.6650  -50.7510 C.3   500  TYR500      0.0534
     67  CG        13.6680  -90.1320  -50.5690 C.ar  500  TYR500     -0.0201
     68  CD1       13.8640  -91.0250  -51.6090 C.ar  500  TYR500     -0.0009
     69  CD2       13.1650  -90.6200  -49.3700 C.ar  500  TYR500     -0.0009
     70  CE1       13.5910  -92.3650  -51.4580 C.ar  500  TYR500      0.0417
     71  CE2       12.8880  -91.9600  -49.2080 C.ar  500  TYR500      0.0417
     72  CZ        13.1020  -92.8280  -50.2560 C.ar  500  TYR500      0.1957
     73  OH        12.8280  -94.1670  -50.1060 O.3   500  TYR500     -0.2866
     74  N         17.1810  -90.4120  -46.6880 N.3   502  GLN502     -0.1245
     75  CA        16.6420  -91.5110  -45.8960 C.3   502  GLN502      0.1566
     76  C         17.5200  -92.7600  -45.9070 C.2   502  GLN502      0.2260
     77  O         17.0680  -93.8070  -45.4280 O.2   502  GLN502     -0.2867
     78  CB        15.2260  -91.8550  -46.4000 C.3   502  GLN502      0.0367
     79  CG        14.3330  -92.5730  -45.3940 C.3   502  GLN502      0.0905
     80  CD        13.8590  -91.6650  -44.2810 C.2   502  GLN502      0.2608
     81  OE1       13.1300  -90.7030  -44.5180 O.2   502  GLN502     -0.2717
     82  NE2       14.2710  -91.9680  -43.0550 N.am  502  GLN502     -0.0878
     83  N          3.2660  -78.4440  -48.1740 N.3   565  THR565     -0.1218
     84  CA         3.4050  -79.1170  -46.8890 C.3   565  THR565      0.1862
     85  C          3.6880  -78.1580  -45.7400 C.2   565  THR565      0.2287
     86  O          3.5730  -78.5620  -44.5780 O.2   565  THR565     -0.2866
     87  CB         4.5110  -80.1710  -46.9630 C.3   565  THR565      0.1770
     88  OG1        5.7090  -79.5750  -47.4750 O.3   565  THR565     -0.2211
     89  CG2        4.0970  -81.3240  -47.8670 C.3   565  THR565      0.0375
     90  N          9.6540  -79.1610  -45.5390 N.3   580  THR580     -0.1203
     91  CA         9.3560  -80.0490  -44.4270 C.3   580  THR580      0.1994
     92  C          9.8500  -81.4560  -44.7380 C.2   580  THR580      0.2618
     93  O         10.2010  -81.7830  -45.8760 O.2   580  THR580     -0.2717
     94  CB         7.8540  -80.0640  -44.1270 C.3   580  THR580      0.1784
     95  OG1        7.1420  -80.5410  -45.2730 O.3   580  THR580     -0.2211
     96  CG2        7.3650  -78.6670  -43.7880 C.3   580  THR580      0.0376
     97  N          9.8770  -82.2910  -43.7030 N.am  581  GLY581     -0.1942
     98  CA        10.3110  -83.6650  -43.8610 C.3   581  GLY581      0.2014
     99  C          9.7910  -84.5280  -42.7370 C.2   581  GLY581      0.2639
    100  O          9.5490  -84.0480  -41.6260 O.2   581  GLY581     -0.2714
    101  N          9.6140  -85.8140  -43.0310 N.am  582  THR582     -0.1950
    102  CA         9.1890  -86.7920  -42.0280 C.3   582  THR582      0.1897
    103  C          9.9610  -88.0800  -42.2970 C.2   582  THR582      0.2313
    104  O          9.6450  -88.8160  -43.2360 O.2   582  THR582     -0.2863
    105  CB         7.6830  -87.0270  -42.0660 C.3   582  THR582      0.1794
    106  OG1        6.9970  -85.7900  -41.8370 O.3   582  THR582     -0.2208
    107  CG2        7.2750  -88.0270  -40.9930 C.3   582  THR582      0.0378
    108  N         11.2970  -91.8690  -41.3300 N.3   584  GLU584     -0.1245
    109  CA        10.8310  -93.0690  -40.6470 C.3   584  GLU584      0.1567
    110  C         12.0320  -93.8200  -40.0880 C.2   584  GLU584      0.2260
    111  O         12.9800  -94.1160  -40.8230 O.2   584  GLU584     -0.2867
    112  CB        10.0400  -93.9630  -41.6040 C.3   584  GLU584      0.0388
    113  CG         9.2040  -95.0380  -40.9280 C.3   584  GLU584      0.1160
    114  CD         7.7730  -94.5970  -40.6830 C.2   584  GLU584      0.3649
    115  OE1        7.1740  -95.0480  -39.6850 O.co2 584  GLU584     -0.2457
    116  OE2        7.2470  -93.8030  -41.4910 O.co2 584  GLU584     -0.2457
    117  N          8.8170  -91.9040  -35.9700 N.3   595  GLU595     -0.1245
    118  CA         9.1130  -90.9830  -37.0540 C.3   595  GLU595      0.1567
    119  C          9.5180  -89.6300  -36.4900 C.2   595  GLU595      0.2260
    120  O          9.0620  -89.2200  -35.4190 O.2   595  GLU595     -0.2867
    121  CB         7.9190  -90.8360  -38.0070 C.3   595  GLU595      0.0388
    122  CG         6.5980  -90.5360  -37.3220 C.3   595  GLU595      0.1160
    123  CD         5.4190  -90.6630  -38.2640 C.2   595  GLU595      0.3649
    124  OE1        5.5960  -91.2330  -39.3590 O.co2 595  GLU595     -0.2457
    125  OE2        4.3160  -90.1940  -37.9140 O.co2 595  GLU595     -0.2457
@<TRIPOS>BOND
     1    27    26    1
     2    28    26    1
     3    26    25    2
     4    25    24    1
     5    44    42   ar
     6    44    46   ar
     7    24    23    1
     8    47    46    1
     9    42    41   ar
    10    46    45   ar
    11    57    56    2
    12    56    55    1
    13    23    22    1
    14    41    40    1
    15    41    43   ar
    16    45    43   ar
    17    40    37    1
    18    22    19    1
    19    54    55    1
    20    36    37    1
    21    55    58    1
    22    37    38    1
    23    18    19    1
    24    18    13   am
    25    58    59    1
    26    11    12    1
    27    48    38   am
    28    48    49    1
    29    50    49    1
    30    50    51    2
    31    19    20    1
    32    68    70   ar
    33    68    67   ar
    34    38    39    2
    35    70    72   ar
    36    12    13    1
    37    12    15    1
    38    62    63    1
    39    13    14    2
    40    49    52    1
    41    20    21    2
    42    20    29   am
    43    66    67    1
    44    66    63    1
    45    31    32    2
    46    31    30    1
    47    67    69   ar
    48    29    30    1
    49    63    64    1
    50    59    60    2
    51    59    61   am
    52    72    73    1
    53    72    71   ar
    54    16    15    1
    55    15    17    1
    56    30    33    1
    57    52    53    1
    58    69    71   ar
    59    35    33    1
    60    64    65    2
    61    33    34    1
    62     8     7    2
    63    83    84    1
    64    89    87    1
    65    10     9    1
    66    88    87    1
    67     7     6    1
    68     9     6    1
    69     6     5    1
    70    87    84    1
    71    84    85    1
    72    74    75    1
    73    78    75    1
    74    78    79    1
    75     4     3    2
    76    76    75    1
    77    76    77    2
    78    93    92    2
    79     5     3   am
    80    85    86    2
    81    90    91    1
    82     3     2    1
    83    79    80    1
    84    95    94    1
    85    92    91    1
    86    92    97   am
    87    81    80    2
    88    91    94    1
    89    80    82   am
    90    94    96    1
    91     2     1    1
    92    98    97    1
    93    98    99    1
    94   104   103    2
    95   101    99   am
    96   101   102    1
    97    99   100    2
    98   103   102    1
    99   105   102    1
   100   105   106    1
   101   105   107    1
   102   112   113    1
   103   112   109    1
   104   116   114   ar
   105   108   109    1
   106   113   114    1
   107   111   110    2
   108   114   115   ar
   109   109   110    1
   110   124   123   ar
   111   123   125   ar
   112   123   122    1
   113   121   122    1
   114   121   118    1
   115   118   119    1
   116   118   117    1
   117   119   120    2
