@<TRIPOS>MOLECULE
tmp/6mkhA00.pdb
 112 102 0 0 0
SMALL
GASTEIGER

@<TRIPOS>ATOM
      1  N         41.6890    4.1780    7.6650 N.3   195  SER195     -0.1217
      2  CA        41.3400    3.3430    6.5180 C.3   195  SER195      0.1889
      3  C         41.6130    4.0120    5.1780 C.2   195  SER195      0.2288
      4  O         41.7800    3.3070    4.1780 O.2   195  SER195     -0.2866
      5  CB        39.8600    2.9510    6.5810 C.3   195  SER195      0.2089
      6  OG        39.4780    2.5550    7.8830 O.3   195  SER195     -0.2183
      7  N         44.5840    2.8860    3.0170 N.3   198  LYS198     -0.1245
      8  CA        44.5740    1.6850    2.1940 C.3   198  LYS198      0.1561
      9  C         44.7980    1.9950    0.7230 C.2   198  LYS198      0.2260
     10  O         45.3740    1.1680    0.0100 O.2   198  LYS198     -0.2867
     11  CB        43.2590    0.9290    2.3940 C.3   198  LYS198      0.0271
     12  CG        43.1970    0.2210    3.7360 C.3   198  LYS198      0.0035
     13  CD        41.9440   -0.6220    3.9020 C.3   198  LYS198      0.0206
     14  CE        40.7610    0.2090    4.3510 C.3   198  LYS198      0.1093
     15  NZ        39.5770   -0.6450    4.6150 N.3   198  LYS198     -0.1314
     16  N         39.3810   -6.8280   11.0550 N.3   236  THR236     -0.1218
     17  CA        37.9250   -6.8680   11.0280 C.3   236  THR236      0.1862
     18  C         37.3790   -6.0300    9.8800 C.2   236  THR236      0.2287
     19  O         37.9400   -4.9840    9.5380 O.2   236  THR236     -0.2866
     20  CB        37.3310   -6.3610   12.3470 C.3   236  THR236      0.1770
     21  OG1       37.5140   -4.9440   12.4360 O.3   236  THR236     -0.2211
     22  CG2       38.0080   -7.0280   13.5400 C.3   236  THR236      0.0375
     23  N         33.3790   -4.6190    8.1930 N.3   238  VAL238     -0.1245
     24  CA        32.0290   -4.3280    8.6660 C.3   238  VAL238      0.1561
     25  C         30.9690   -5.1450    7.9280 C.2   238  VAL238      0.2260
     26  O         29.9870   -5.5710    8.5440 O.2   238  VAL238     -0.2867
     27  CB        31.7250   -2.8170    8.5920 C.3   238  VAL238      0.0252
     28  CG1       31.7570   -2.3100    7.1620 C.3   238  VAL238      0.0019
     29  CG2       30.3830   -2.5040    9.2570 C.3   238  VAL238      0.0019
     30  N         35.4610   -1.1430    2.3640 N.3   253  SER253     -0.1217
     31  CA        36.3900   -0.9980    3.4880 C.3   253  SER253      0.1889
     32  C         36.6530   -2.3490    4.1640 C.2   253  SER253      0.2288
     33  O         36.2190   -2.6210    5.2830 O.2   253  SER253     -0.2866
     34  CB        35.8660    0.0290    4.4990 C.3   253  SER253      0.2089
     35  OG        34.7610   -0.4930    5.2200 O.3   253  SER253     -0.2183
     36  N         39.2880   -4.6070    5.6690 N.3   255  ASN255     -0.1240
     37  CA        40.6340   -4.6960    6.2320 C.3   255  ASN255      0.1653
     38  C         41.2270   -6.0870    6.0660 C.2   255  ASN255      0.2266
     39  O         42.4530   -6.2310    6.0130 O.2   255  ASN255     -0.2867
     40  CB        40.6320   -4.3240    7.7140 C.3   255  ASN255      0.1155
     41  CG        40.3330   -2.8640    7.9510 C.2   255  ASN255      0.2627
     42  OD1       40.0590   -2.1120    7.0150 O.2   255  ASN255     -0.2716
     43  ND2       40.3700   -2.4540    9.2120 N.am  255  ASN255     -0.0877
     44  N         46.2770   -0.7800    6.9840 N.3   311  TYR311     -0.1241
     45  CA        45.0500    0.0040    6.8640 C.3   311  TYR311      0.1605
     46  C         45.0560    1.2120    7.7930 C.2   311  TYR311      0.2264
     47  O         44.0650    1.4840    8.4800 O.2   311  TYR311     -0.2867
     48  CB        43.7960   -0.8520    7.1080 C.3   311  TYR311      0.0534
     49  CG        43.9070   -1.9300    8.1610 C.ar  311  TYR311     -0.0201
     50  CD1       43.6770   -1.6500    9.5020 C.ar  311  TYR311     -0.0009
     51  CD2       44.2010   -3.2390    7.8080 C.ar  311  TYR311     -0.0009
     52  CE1       43.7640   -2.6440   10.4640 C.ar  311  TYR311      0.0417
     53  CE2       44.2910   -4.2320    8.7580 C.ar  311  TYR311      0.0417
     54  CZ        44.0720   -3.9300   10.0830 C.ar  311  TYR311      0.1957
     55  OH        44.1620   -4.9280   11.0260 O.3   311  TYR311     -0.2866
     56  N         46.5500    2.1500   10.5800 N.3   313  GLN313     -0.1245
     57  CA        46.5960    2.1330   12.0360 C.3   313  GLN313      0.1566
     58  C         48.0350    2.0080   12.5220 C.2   313  GLN313      0.2260
     59  O         48.9460    2.6430   11.9780 O.2   313  GLN313     -0.2867
     60  CB        45.7390    0.9890   12.5900 C.3   313  GLN313      0.0367
     61  CG        44.2450    1.0650   12.2420 C.3   313  GLN313      0.0905
     62  CD        43.4190    1.7870   13.2960 C.2   313  GLN313      0.2608
     63  OE1       43.7670    2.8830   13.7370 O.2   313  GLN313     -0.2717
     64  NE2       42.3210    1.1670   13.7100 N.am  313  GLN313     -0.0878
     65  N         29.8860    4.6030    0.5510 N.3   376  TYR376     -0.1241
     66  CA        29.7690    5.4000    1.7680 C.3   376  TYR376      0.1605
     67  C         29.7090    6.8970    1.5030 C.2   376  TYR376      0.2264
     68  O         29.3810    7.6580    2.4210 O.2   376  TYR376     -0.2867
     69  CB        30.9320    5.1060    2.7160 C.3   376  TYR376      0.0534
     70  CG        30.9860    3.6690    3.1600 C.ar  376  TYR376     -0.0201
     71  CD1       29.9660    3.1190    3.9350 C.ar  376  TYR376     -0.0009
     72  CD2       32.0510    2.8550    2.8030 C.ar  376  TYR376     -0.0009
     73  CE1       30.0140    1.8010    4.3380 C.ar  376  TYR376      0.0417
     74  CE2       32.1050    1.5380    3.2030 C.ar  376  TYR376      0.0417
     75  CZ        31.0870    1.0150    3.9690 C.ar  376  TYR376      0.1957
     76  OH        31.1450   -0.3020    4.3660 O.3   376  TYR376     -0.2866
     77  N         36.3790    7.0600    2.4500 N.3   391  THR391     -0.1203
     78  CA        36.1800    7.3300    3.8630 C.3   391  THR391      0.1994
     79  C         37.1290    6.4720    4.6920 C.2   391  THR391      0.2618
     80  O         37.8330    5.5990    4.1760 O.2   391  THR391     -0.2717
     81  CB        34.7310    7.0610    4.2560 C.3   391  THR391      0.1784
     82  OG1       34.4050    5.7000    3.9470 O.3   391  THR391     -0.2211
     83  CG2       33.7990    7.9730    3.5000 C.3   391  THR391      0.0376
     84  N         37.1430    6.7150    5.9980 N.am  392  GLY392     -0.1942
     85  CA        37.9190    5.8840    6.8890 C.3   392  GLY392      0.2014
     86  C         37.8900    6.3460    8.3270 C.2   392  GLY392      0.2639
     87  O         37.6140    7.5130    8.6090 O.2   392  GLY392     -0.2714
     88  N         38.1770    5.4330    9.2470 N.am  393  THR393     -0.1950
     89  CA        38.2600    5.7500   10.6620 C.3   393  THR393      0.1897
     90  C         39.5860    5.2250   11.2030 C.2   393  THR393      0.2313
     91  O         40.2510    4.4010   10.5720 O.2   393  THR393     -0.2863
     92  CB        37.0620    5.1620   11.4330 C.3   393  THR393      0.1794
     93  OG1       36.6950    6.0360   12.5060 O.3   393  THR393     -0.2208
     94  CG2       37.3890    3.7880   11.9950 C.3   393  THR393      0.0378
     95  N         41.0650    3.9530   15.1180 N.3   395  GLU395     -0.1245
     96  CA        40.8090    3.7220   16.5330 C.3   395  GLU395      0.1567
     97  C         42.0680    4.0110   17.3410 C.2   395  GLU395      0.2260
     98  O         43.1400    3.4730   17.0440 O.2   395  GLU395     -0.2867
     99  CB        40.3350    2.2870   16.7760 C.3   395  GLU395      0.0388
    100  CG        38.8860    2.0310   16.3640 C.3   395  GLU395      0.1160
    101  CD        38.3930    0.6450   16.7550 C.2   395  GLU395      0.3649
    102  OE1       39.2040   -0.3060   16.7410 O.co2 395  GLU395     -0.2457
    103  OE2       37.1930    0.5050   17.0820 O.co2 395  GLU395     -0.2457
    104  N         37.6510    7.1430   18.2540 N.3   400  GLU400     -0.1245
    105  CA        37.8500    7.0310   16.8190 C.3   400  GLU400      0.1567
    106  C         37.9370    8.4220   16.2100 C.2   400  GLU400      0.2260
    107  O         37.3360    9.3730   16.7110 O.2   400  GLU400     -0.2867
    108  CB        36.7080    6.2560   16.1440 C.3   400  GLU400      0.0388
    109  CG        36.5930    4.8020   16.5460 C.3   400  GLU400      0.1160
    110  CD        35.6060    4.0550   15.6770 C.2   400  GLU400      0.3649
    111  OE1       34.7620    4.7230   15.0440 O.co2 400  GLU400     -0.2457
    112  OE2       35.6790    2.8090   15.6140 O.co2 400  GLU400     -0.2457
@<TRIPOS>BOND
     1    10     9    2
     2    65    66    1
     3     9     8    1
     4    67    66    1
     5    67    68    2
     6    66    69    1
     7     8    11    1
     8     8     7    1
     9    30    31    1
    10    11    12    1
    11    77    78    1
    12    69    70    1
    13    72    70   ar
    14    72    74   ar
    15    70    71   ar
    16    74    75   ar
    17    31    32    1
    18    31    34    1
    19    83    81    1
    20    12    13    1
    21    78    81    1
    22    78    79    1
    23    13    14    1
    24    71    73   ar
    25    82    81    1
    26    75    73   ar
    27    75    76    1
    28    32    33    2
    29    80    79    2
    30     4     3    2
    31    14    15    1
    32    34    35    1
    33    79    84   am
    34     3     2    1
    35    36    37    1
    36    84    85    1
    37    39    38    2
    38    38    37    1
    39    37    40    1
    40     2     5    1
    41     2     1    1
    42     5     6    1
    43    45    44    1
    44    45    48    1
    45    45    46    1
    46    85    86    1
    47    42    41    2
    48    48    49    1
    49    28    27    1
    50    40    41    1
    51    46    47    2
    52    51    49   ar
    53    51    53   ar
    54    25    26    2
    55    25    24    1
    56    41    43   am
    57    49    50   ar
    58    23    24    1
    59    86    87    2
    60    86    88   am
    61    27    24    1
    62    27    29    1
    63    53    54   ar
    64    88    89    1
    65    50    52   ar
    66    19    18    2
    67    18    17    1
    68    54    52   ar
    69    54    55    1
    70    91    90    2
    71    56    57    1
    72    89    90    1
    73    89    92    1
    74    17    16    1
    75    17    20    1
    76    92    94    1
    77    92    93    1
    78    59    58    2
    79    57    58    1
    80    57    60    1
    81    61    60    1
    82    61    62    1
    83    20    21    1
    84    20    22    1
    85    62    64   am
    86    62    63    2
    87   111   110   ar
    88    95    96    1
    89   112   110   ar
    90   110   109    1
    91   108   109    1
    92   108   105    1
    93   106   107    2
    94   106   105    1
    95   100   101    1
    96   100    99    1
    97    96    99    1
    98    96    97    1
    99   102   101   ar
   100   101   103   ar
   101   105   104    1
   102    98    97    2
