@<TRIPOS>MOLECULE
tmp/6mkiA00.pdb
 141 133 0 0 0
SMALL
GASTEIGER

@<TRIPOS>ATOM
      1  N         46.7680    9.0980   13.2840 N.3   168  ALA168     -0.1245
      2  CA        46.7120    7.8830   12.4830 C.3   168  ALA168      0.1562
      3  C         45.7990    8.1160   11.2830 C.2   168  ALA168      0.2260
      4  O         44.6870    8.6340   11.4460 O.2   168  ALA168     -0.2867
      5  CB        46.2190    6.7020   13.3150 C.3   168  ALA168      0.0290
      6  N         44.0070    6.1880    9.3110 N.3   170  GLY170     -0.1210
      7  CA        42.7890    5.4260    9.1570 C.3   170  GLY170      0.1956
      8  C         42.7630    4.6450    7.8540 C.2   170  GLY170      0.2612
      9  O         43.7750    4.4730    7.1700 O.2   170  GLY170     -0.2717
     10  N         41.5640    4.1800    7.5020 N.am  171  SER171     -0.1952
     11  CA        41.4170    3.2940    6.3530 C.3   171  SER171      0.1924
     12  C         41.6970    3.9870    5.0290 C.2   171  SER171      0.2314
     13  O         41.8890    3.3030    4.0190 O.2   171  SER171     -0.2863
     14  CB        40.0160    2.6850    6.3320 C.3   171  SER171      0.2116
     15  OG        39.9190    1.6030    7.2440 O.3   171  SER171     -0.2180
     16  N         44.5120    2.7350    2.8910 N.3   174  LYS174     -0.1245
     17  CA        44.4440    1.5720    2.0110 C.3   174  LYS174      0.1561
     18  C         44.7110    1.9530    0.5640 C.2   174  LYS174      0.2260
     19  O         45.1480    1.1100   -0.2290 O.2   174  LYS174     -0.2867
     20  CB        43.0780    0.8970    2.1190 C.3   174  LYS174      0.0271
     21  CG        42.8040    0.2380    3.4520 C.3   174  LYS174      0.0035
     22  CD        41.3790   -0.2700    3.5010 C.3   174  LYS174      0.0206
     23  CE        40.9870   -0.6620    4.9060 C.3   174  LYS174      0.1093
     24  NZ        39.5340   -0.9500    5.0010 N.3   174  LYS174     -0.1314
     25  N         39.2950   -7.4130   11.5790 N.3   212  THR212     -0.1203
     26  CA        37.8450   -7.3520   11.5070 C.3   212  THR212      0.1994
     27  C         37.4030   -6.4610   10.3520 C.2   212  THR212      0.2618
     28  O         38.1030   -5.5230    9.9630 O.2   212  THR212     -0.2717
     29  CB        37.2550   -6.8320   12.8200 C.3   212  THR212      0.1784
     30  OG1       37.4890   -5.4230   12.9280 O.3   212  THR212     -0.2211
     31  CG2       37.9010   -7.5390   14.0070 C.3   212  THR212      0.0376
     32  N         36.2310   -6.7730    9.8000 N.am  213  ARG213     -0.1965
     33  CA        35.6240   -5.9920    8.7310 C.3   213  ARG213      0.1729
     34  C         34.1460   -5.7860    9.0480 C.2   213  ARG213      0.2616
     35  O         33.6240   -6.2980   10.0440 O.2   213  ARG213     -0.2715
     36  CB        35.8050   -6.6720    7.3690 C.3   213  ARG213      0.0348
     37  CG        35.1410   -8.0290    7.2680 C.3   213  ARG213      0.0492
     38  CD        35.1700   -8.5560    5.8460 C.3   213  ARG213      0.2205
     39  NE        34.6200   -9.9050    5.7620 N.pl3 213  ARG213     -0.0865
     40  CZ        34.4490  -10.5730    4.6270 C.cat 213  ARG213      0.5346
     41  NH1       34.7840  -10.0180    3.4710 N.pl3 213  ARG213      0.1354
     42  NH2       33.9440  -11.7990    4.6480 N.pl3 213  ARG213      0.1354
     43  N         33.4650   -5.0330    8.1850 N.am  214  VAL214     -0.1977
     44  CA        32.0740   -4.6530    8.4190 C.3   214  VAL214      0.1596
     45  C         31.1460   -5.3960    7.4660 C.2   214  VAL214      0.2287
     46  O         30.4080   -6.2970    7.8800 O.2   214  VAL214     -0.2864
     47  CB        31.8900   -3.1310    8.2860 C.3   214  VAL214      0.0276
     48  CG1       32.0110   -2.4640    9.6480 C.3   214  VAL214      0.0022
     49  CG2       32.9140   -2.5560    7.3140 C.3   214  VAL214      0.0022
     50  N         35.1790   -1.2190    2.5700 N.3   229  SER229     -0.1217
     51  CA        36.0450   -0.9530    3.7220 C.3   229  SER229      0.1889
     52  C         36.4840   -2.2550    4.3910 C.2   229  SER229      0.2288
     53  O         36.3630   -2.4330    5.6050 O.2   229  SER229     -0.2866
     54  CB        35.3620   -0.0180    4.7250 C.3   229  SER229      0.2089
     55  OG        35.0930    1.2450    4.1400 O.3   229  SER229     -0.2183
     56  N         39.0020   -4.6230    5.8500 N.3   231  ASN231     -0.1240
     57  CA        40.3500   -4.7100    6.4040 C.3   231  ASN231      0.1653
     58  C         41.0150   -6.0370    6.0640 C.2   231  ASN231      0.2266
     59  O         42.2380   -6.0870    5.8890 O.2   231  ASN231     -0.2867
     60  CB        40.3190   -4.5270    7.9200 C.3   231  ASN231      0.1155
     61  CG        39.9720   -3.1170    8.3290 C.2   231  ASN231      0.2627
     62  OD1       40.2280   -2.1670    7.5940 O.2   231  ASN231     -0.2716
     63  ND2       39.3900   -2.9720    9.5140 N.am  231  ASN231     -0.0877
     64  N         46.0910   -1.4570    6.7560 N.3   287  TYR287     -0.1227
     65  CA        44.8250   -0.7390    6.6700 C.3   287  TYR287      0.1736
     66  C         44.8120    0.4960    7.5710 C.2   287  TYR287      0.2596
     67  O         43.7830    0.8610    8.1420 O.2   287  TYR287     -0.2718
     68  CB        43.6480   -1.6660    6.9780 C.3   287  TYR287      0.0548
     69  CG        43.7150   -2.4580    8.2710 C.ar  287  TYR287     -0.0200
     70  CD1       43.4590   -1.8540    9.4960 C.ar  287  TYR287     -0.0009
     71  CD2       43.9780   -3.8230    8.2590 C.ar  287  TYR287     -0.0009
     72  CE1       43.4960   -2.5780   10.6760 C.ar  287  TYR287      0.0417
     73  CE2       44.0160   -4.5560    9.4340 C.ar  287  TYR287      0.0417
     74  CZ        43.7740   -3.9260   10.6390 C.ar  287  TYR287      0.1957
     75  OH        43.8090   -4.6390   11.8160 O.3   287  TYR287     -0.2866
     76  N         45.9590    1.1570    7.7000 N.am  288  GLY288     -0.1942
     77  CA        46.0290    2.4660    8.3170 C.3   288  GLY288      0.2014
     78  C         46.2040    2.4950    9.8180 C.2   288  GLY288      0.2638
     79  O         46.1820    3.5860   10.4020 O.2   288  GLY288     -0.2714
     80  N         46.3760    1.3420   10.4640 N.am  289  GLN289     -0.1977
     81  CA        46.5770    1.3080   11.9080 C.3   289  GLN289      0.1601
     82  C         48.0680    1.2720   12.2250 C.2   289  GLN289      0.2287
     83  O         48.8520    2.0170   11.6270 O.2   289  GLN289     -0.2864
     84  CB        45.8450    0.1070   12.5180 C.3   289  GLN289      0.0394
     85  CG        45.4930    0.2660   13.9930 C.3   289  GLN289      0.0908
     86  CD        44.5870   -0.8370   14.5100 C.2   289  GLN289      0.2608
     87  OE1       43.8320   -1.4470   13.7520 O.2   289  GLN289     -0.2717
     88  NE2       44.6580   -1.0950   15.8110 N.am  289  GLN289     -0.0878
     89  N         29.6600    4.4420    0.8280 N.3   352  TYR352     -0.1241
     90  CA        29.5440    5.1940    2.0710 C.3   352  TYR352      0.1605
     91  C         29.5650    6.7020    1.8600 C.2   352  TYR352      0.2264
     92  O         29.3290    7.4450    2.8190 O.2   352  TYR352     -0.2867
     93  CB        30.6600    4.7790    3.0320 C.3   352  TYR352      0.0534
     94  CG        30.6230    3.3080    3.3640 C.ar  352  TYR352     -0.0201
     95  CD1       29.4130    2.6530    3.5440 C.ar  352  TYR352     -0.0009
     96  CD2       31.7930    2.5670    3.4760 C.ar  352  TYR352     -0.0009
     97  CE1       29.3640    1.3070    3.8390 C.ar  352  TYR352      0.0417
     98  CE2       31.7550    1.2150    3.7690 C.ar  352  TYR352      0.0417
     99  CZ        30.5360    0.5910    3.9490 C.ar  352  TYR352      0.1957
    100  OH        30.4810   -0.7530    4.2430 O.3   352  TYR352     -0.2866
    101  N         36.4460    6.6110    2.6690 N.3   367  THR367     -0.1203
    102  CA        36.1460    6.8970    4.0620 C.3   367  THR367      0.1994
    103  C         37.2080    6.2830    4.9690 C.2   367  THR367      0.2618
    104  O         38.1480    5.6250    4.5180 O.2   367  THR367     -0.2717
    105  CB        34.7660    6.3650    4.4400 C.3   367  THR367      0.1784
    106  OG1       34.8360    4.9440    4.6150 O.3   367  THR367     -0.2211
    107  CG2       33.7590    6.6810    3.3520 C.3   367  THR367      0.0376
    108  N         37.0460    6.4900    6.2730 N.am  368  GLY368     -0.1942
    109  CA        37.9760    5.9380    7.2360 C.3   368  GLY368      0.2014
    110  C         37.6870    6.3420    8.6670 C.2   368  GLY368      0.2640
    111  O         37.4730    7.5220    8.9600 O.2   368  GLY368     -0.2714
    112  N         37.6840    5.3640    9.5680 N.am  369  THR369     -0.1936
    113  CA        37.4550    5.5920   10.9900 C.3   369  THR369      0.2028
    114  C         38.5600    4.8950   11.7690 C.2   369  THR369      0.2642
    115  O         38.7700    3.6900   11.6030 O.2   369  THR369     -0.2714
    116  CB        36.0740    5.0790   11.4160 C.3   369  THR369      0.1808
    117  OG1       35.0600    5.9710   10.9310 O.3   369  THR369     -0.2208
    118  CG2       35.9780    4.9730   12.9350 C.3   369  THR369      0.0379
    119  N         39.2690    5.6520   12.6030 N.am  370  ALA370     -0.1963
    120  CA        40.3840    5.1370   13.3850 C.3   370  ALA370      0.1728
    121  C         40.0640    5.2280   14.8700 C.2   370  ALA370      0.2616
    122  O         39.4390    6.1920   15.3210 O.2   370  ALA370     -0.2715
    123  CB        41.6750    5.9040   13.0800 C.3   370  ALA370      0.0334
    124  N         40.4950    4.2210   15.6260 N.am  371  GLU371     -0.1977
    125  CA        40.3010    4.1750   17.0710 C.3   371  GLU371      0.1602
    126  C         41.5990    4.5880   17.7540 C.2   371  GLU371      0.2287
    127  O         42.6200    3.9040   17.6190 O.2   371  GLU371     -0.2864
    128  CB        39.8790    2.7770   17.5260 C.3   371  GLU371      0.0415
    129  CG        38.7300    2.1660   16.7330 C.3   371  GLU371      0.1163
    130  CD        37.4150    2.1650   17.4940 C.2   371  GLU371      0.3649
    131  OE1       37.3420    2.8080   18.5630 O.co2 371  GLU371     -0.2457
    132  OE2       36.4540    1.5170   17.0230 O.co2 371  GLU371     -0.2457
    133  N         36.8190    7.4720   18.6900 N.3   374  GLU374     -0.1245
    134  CA        37.1160    7.2050   17.2900 C.3   374  GLU374      0.1567
    135  C         37.0580    8.5000   16.4930 C.2   374  GLU374      0.2260
    136  O         36.2050    9.3560   16.7440 O.2   374  GLU374     -0.2867
    137  CB        36.1290    6.1860   16.7010 C.3   374  GLU374      0.0388
    138  CG        34.6680    6.4930   17.0100 C.3   374  GLU374      0.1160
    139  CD        33.7200    5.4170   16.5090 C.2   374  GLU374      0.3649
    140  OE1       32.9050    5.7120   15.6070 O.co2 374  GLU374     -0.2457
    141  OE2       33.7930    4.2770   17.0150 O.co2 374  GLU374     -0.2457
@<TRIPOS>BOND
     1    19    18    2
     2    18    17    1
     3    89    90    1
     4    91    90    1
     5    91    92    2
     6    17    20    1
     7    17    16    1
     8    90    93    1
     9    20    21    1
    10    50    51    1
    11   101   102    1
    12    93    94    1
    13   107   105    1
    14    94    96   ar
    15    94    95   ar
    16    21    22    1
    17    41    40    1
    18    96    98   ar
    19    22    23    1
    20    95    97   ar
    21    51    52    1
    22    51    54    1
    23    98    99   ar
    24    97    99   ar
    25    99   100    1
    26    13    12    2
    27   102   105    1
    28   102   103    1
    29    55    54    1
    30    52    53    2
    31   105   106    1
    32   104   103    2
    33    40    42    1
    34    40    39    2
    35    23    24    1
    36   103   108   am
    37    12    11    1
    38    39    38    1
    39    38    37    1
    40    56    57    1
    41    59    58    2
    42    58    57    1
    43   108   109    1
    44    14    11    1
    45    14    15    1
    46    11    10    1
    47    57    60    1
    48    65    64    1
    49    65    68    1
    50    65    66    1
    51    68    69    1
    52     9     8    2
    53   109   110    1
    54    37    36    1
    55    49    47    1
    56    36    33    1
    57    45    46    2
    58    45    44    1
    59    10     8   am
    60    66    76   am
    61    66    67    2
    62    62    61    2
    63    76    77    1
    64     8     7    1
    65    60    61    1
    66    43    44    1
    67    43    34   am
    68    71    69   ar
    69    71    73   ar
    70    69    70   ar
    71    47    44    1
    72    47    48    1
    73    77    78    1
    74    61    63   am
    75   110   111    2
    76   110   112   am
    77    33    34    1
    78    33    32    1
    79    34    35    2
    80     7     6    1
    81    73    74   ar
    82    70    72   ar
    83   112   113    1
    84    32    27   am
    85    78    79    2
    86    78    80   am
    87    28    27    2
    88    27    26    1
    89    80    81    1
    90    74    72   ar
    91    74    75    1
    92   117   116    1
    93   113   116    1
    94   113   114    1
    95     3     4    2
    96     3     2    1
    97   116   118    1
    98    26    25    1
    99    26    29    1
   100   115   114    2
   101    83    82    2
   102   114   119   am
   103    81    82    1
   104    81    84    1
   105     2     1    1
   106     2     5    1
   107    84    85    1
   108   119   120    1
   109    29    30    1
   110    29    31    1
   111   123   120    1
   112   120   121    1
   113    87    86    2
   114    85    86    1
   115    86    88   am
   116   121   122    2
   117   121   124   am
   118   140   139   ar
   119   124   125    1
   120   135   136    2
   121   135   134    1
   122   139   138    1
   123   139   141   ar
   124   137   138    1
   125   137   134    1
   126   129   130    1
   127   129   128    1
   128   132   130   ar
   129   125   128    1
   130   125   126    1
   131   134   133    1
   132   130   131   ar
   133   127   126    2
