@<TRIPOS>MOLECULE
tmp/6mkqA00.pdb
 128 121 0 0 0
SMALL
GASTEIGER

@<TRIPOS>ATOM
      1  N         18.2970  -19.2370    6.5840 N.3    39  CYS39      -0.1221
      2  CA        19.4920  -19.7300    7.2600 C.3    39  CYS39       0.1808
      3  C         19.2990  -19.5230    8.7610 C.2    39  CYS39       0.2601
      4  O         18.1860  -19.6870    9.2640 O.2    39  CYS39      -0.2717
      5  CB        20.7480  -19.0270    6.7490 C.3    39  CYS39       0.0970
      6  SG        20.8800  -18.9600    4.9200 S.3    39  CYS39      -0.0800
      7  N         20.3580  -19.1420    9.4770 N.am   40  SER40      -0.1952
      8  CA        20.2790  -18.9660   10.9290 C.3    40  SER40       0.1924
      9  C         19.4140  -17.7840   11.3670 C.2    40  SER40       0.2314
     10  O         19.1270  -17.6590   12.5710 O.2    40  SER40      -0.2863
     11  CB        21.6860  -18.7590   11.5020 C.3    40  SER40       0.2116
     12  OG        22.4150  -19.9640   11.6680 O.3    40  SER40      -0.2180
     13  N         16.6500  -17.4660   14.0880 N.3    43  LYS43      -0.1245
     14  CA        16.9200  -17.7470   15.4960 C.3    43  LYS43       0.1561
     15  C         16.6770  -16.5340   16.3870 C.2    43  LYS43       0.2260
     16  O         16.4110  -16.7050   17.5810 O.2    43  LYS43      -0.2867
     17  CB        18.3590  -18.2540   15.6630 C.3    43  LYS43       0.0271
     18  CG        18.5910  -19.6740   15.1100 C.3    43  LYS43       0.0035
     19  CD        20.0750  -19.9940   15.0230 C.3    43  LYS43       0.0206
     20  CE        20.3460  -21.3780   14.4640 C.3    43  LYS43       0.1093
     21  NZ        21.7250  -21.4700   13.8940 N.3    43  LYS43      -0.1314
     22  N         27.9890  -26.6140   15.0260 N.3    75  HIS75      -0.1241
     23  CA        27.8190  -25.1850   15.3090 C.3    75  HIS75       0.1621
     24  C         26.9030  -24.9650   16.5160 C.2    75  HIS75       0.2264
     25  O         25.9020  -24.2410   16.4680 O.2    75  HIS75      -0.2867
     26  CB        27.3120  -24.4560   14.0670 C.3    75  HIS75       0.0745
     27  CG        28.2360  -24.5800   12.8970 C.ar   75  HIS75       0.0817
     28  ND1       29.4800  -23.9830   12.8660 N.ar   75  HIS75      -0.2268
     29  CD2       28.1110  -25.2520   11.7280 C.ar   75  HIS75       0.1154
     30  CE1       30.0760  -24.2770   11.7240 C.ar   75  HIS75       0.1986
     31  NE2       29.2660  -25.0450   11.0160 N.ar   75  HIS75      -0.2212
     32  N         24.8830  -16.4960   19.6370 N.3    99  TYR99      -0.1227
     33  CA        25.9330  -17.3740   19.1370 C.3    99  TYR99       0.1736
     34  C         25.4570  -18.2450   17.9880 C.2    99  TYR99       0.2596
     35  O         26.2140  -19.1080   17.5250 O.2    99  TYR99      -0.2718
     36  CB        26.4700  -18.2610   20.2610 C.3    99  TYR99       0.0548
     37  CG        26.9890  -17.4990   21.4530 C.ar   99  TYR99      -0.0200
     38  CD1       26.1260  -17.0210   22.4260 C.ar   99  TYR99      -0.0009
     39  CD2       28.3430  -17.2550   21.6040 C.ar   99  TYR99      -0.0009
     40  CE1       26.6000  -16.3300   23.5140 C.ar   99  TYR99       0.0417
     41  CE2       28.8250  -16.5580   22.6900 C.ar   99  TYR99       0.0417
     42  CZ        27.9510  -16.1000   23.6420 C.ar   99  TYR99       0.1957
     43  OH        28.4280  -15.4100   24.7360 O.3    99  TYR99      -0.2866
     44  N         24.2220  -18.0470   17.5210 N.am  100  SER100     -0.1952
     45  CA        23.6670  -18.7970   16.3990 C.3   100  SER100      0.1924
     46  C         23.6810  -20.3010   16.6580 C.2   100  SER100      0.2314
     47  O         23.8250  -21.0980   15.7330 O.2   100  SER100     -0.2863
     48  CB        24.4210  -18.4720   15.1050 C.3   100  SER100      0.2116
     49  OG        23.6620  -18.8320   13.9700 O.3   100  SER100     -0.2180
     50  N         23.0550  -24.0090   17.0320 N.3   102  ASN102     -0.1240
     51  CA        22.1080  -24.8910   16.3550 C.3   102  ASN102      0.1653
     52  C         21.4240  -25.8410   17.3260 C.2   102  ASN102      0.2266
     53  O         20.2120  -26.0750   17.2280 O.2   102  ASN102     -0.2867
     54  CB        22.8250  -25.6900   15.2690 C.3   102  ASN102      0.1155
     55  CG        22.8690  -24.9630   13.9530 C.2   102  ASN102      0.2627
     56  OD1       22.0220  -24.1190   13.6760 O.2   102  ASN102     -0.2716
     57  ND2       23.8600  -25.2790   13.1360 N.am  102  ASN102     -0.0877
     58  N         17.2030  -27.6900   12.0090 N.3   137  GLU137     -0.1231
     59  CA        18.6450  -27.6700   11.7900 C.3   137  GLU137      0.1699
     60  C         19.1310  -29.1090   11.6110 C.2   137  GLU137      0.2592
     61  O         18.7260  -29.9980   12.3630 O.2   137  GLU137     -0.2718
     62  CB        19.3610  -27.0120   12.9730 C.3   137  GLU137      0.0402
     63  CG        19.1270  -25.5170   13.1120 C.3   137  GLU137      0.1161
     64  CD        19.7780  -24.7040   12.0100 C.2   137  GLU137      0.3649
     65  OE1       20.4780  -25.2890   11.1580 O.co2 137  GLU137     -0.2457
     66  OE2       19.5840  -23.4710   11.9930 O.co2 137  GLU137     -0.2457
     67  N         19.9850  -29.3570   10.6140 N.am  138  LEU138     -0.1980
     68  CA        20.5640  -28.3480    9.7300 C.3   138  LEU138      0.1596
     69  C         19.9820  -28.3940    8.3170 C.2   138  LEU138      0.2287
     70  O         20.4290  -27.6650    7.4330 O.2   138  LEU138     -0.2864
     71  CB        22.0900  -28.5400    9.6640 C.3   138  LEU138      0.0297
     72  CG        22.9190  -27.8170   10.7300 C.3   138  LEU138      0.0022
     73  CD1       22.7420  -28.4750   12.0790 C.3   138  LEU138      0.0001
     74  CD2       24.4110  -27.7390   10.3800 C.3   138  LEU138      0.0001
     75  N         18.9980  -25.4450    5.8160 N.3   141  ASN141     -0.1240
     76  CA        20.0210  -24.5920    5.2230 C.3   141  ASN141      0.1653
     77  C         20.3130  -24.9060    3.7540 C.2   141  ASN141      0.2266
     78  O         21.2740  -24.3580    3.2060 O.2   141  ASN141     -0.2867
     79  CB        21.3360  -24.7120    6.0060 C.3   141  ASN141      0.1155
     80  CG        21.2420  -24.1630    7.4210 C.2   141  ASN141      0.2627
     81  OD1       21.1000  -22.9640    7.6230 O.2   141  ASN141     -0.2716
     82  ND2       21.3310  -25.0450    8.4040 N.am  141  ASN141     -0.0877
     83  N         28.2350  -12.3920   16.1840 N.3   187  THR187     -0.1218
     84  CA        28.6140  -12.9050   14.8720 C.3   187  THR187      0.1862
     85  C         28.4930  -11.9040   13.7330 C.2   187  THR187      0.2287
     86  O         28.6180  -12.3070   12.5690 O.2   187  THR187     -0.2866
     87  CB        27.7550  -14.1160   14.4930 C.3   187  THR187      0.1770
     88  OG1       26.3880  -13.6920   14.3510 O.3   187  THR187     -0.2211
     89  CG2       27.8370  -15.2160   15.5280 C.3   187  THR187      0.0375
     90  N         29.2970   -7.5950    8.8110 N.3   191  ARG191     -0.1245
     91  CA        28.1440   -7.3180    7.9650 C.3   191  ARG191      0.1563
     92  C         27.6220   -5.9230    8.2700 C.2   191  ARG191      0.2260
     93  O         28.3480   -4.9470    8.0700 O.2   191  ARG191     -0.2867
     94  CB        27.1090   -8.4240    8.1500 C.3   191  ARG191      0.0307
     95  CG        27.6870   -9.7210    7.5880 C.3   191  ARG191      0.0489
     96  CD        26.8010  -10.9380    7.5880 C.3   191  ARG191      0.2205
     97  NE        27.5870  -12.0940    7.1530 N.pl3 191  ARG191     -0.0865
     98  CZ        27.1440  -13.3460    7.1040 C.cat 191  ARG191      0.5346
     99  NH1       25.9050  -13.6410    7.4680 N.pl3 191  ARG191      0.1354
    100  NH2       27.9530  -14.3170    6.7010 N.pl3 191  ARG191      0.1354
    101  N         22.6700  -12.6400   12.2190 N.3   206  THR206     -0.1203
    102  CA        23.2070  -13.0770   10.9400 C.3   206  THR206      0.1994
    103  C         22.6370  -14.4330   10.5300 C.2   206  THR206      0.2618
    104  O         22.0360  -15.1570   11.3260 O.2   206  THR206     -0.2717
    105  CB        24.7300  -13.1990   11.0170 C.3   206  THR206      0.1784
    106  OG1       25.0690  -14.0270   12.1360 O.3   206  THR206     -0.2211
    107  CG2       25.3960  -11.8480   11.1890 C.3   206  THR206      0.0376
    108  N         22.8460  -14.7730    9.2560 N.am  207  GLY207     -0.1942
    109  CA        22.5740  -16.1070    8.7570 C.3   207  GLY207      0.2014
    110  C         23.5110  -16.4760    7.6200 C.2   207  GLY207      0.2640
    111  O         23.8340  -15.6260    6.7890 O.2   207  GLY207     -0.2714
    112  N         23.9590  -17.7360    7.5790 N.am  208  THR208     -0.1936
    113  CA        24.9510  -18.1970    6.5980 C.3   208  THR208      0.2028
    114  C         24.6780  -19.6800    6.3290 C.2   208  THR208      0.2642
    115  O         25.1770  -20.5460    7.0480 O.2   208  THR208     -0.2714
    116  CB        26.3770  -17.9940    7.0960 C.3   208  THR208      0.1808
    117  OG1       26.5800  -16.6380    7.5160 O.3   208  THR208     -0.2208
    118  CG2       27.3830  -18.3470    6.0060 C.3   208  THR208      0.0379
    119  N         23.9260  -19.9590    5.2610 N.am  209  CYS209     -0.1953
    120  CA        23.4410  -21.3210    5.0530 C.3   209  CYS209      0.1843
    121  C         24.5750  -22.3110    4.8030 C.2   209  CYS209      0.2626
    122  O         24.4520  -23.4890    5.1530 O.2   209  CYS209     -0.2714
    123  CB        22.4580  -21.3690    3.8770 C.3   209  CYS209      0.0997
    124  SG        20.7540  -20.8920    4.2520 S.3   209  CYS209     -0.0797
    125  N         25.6770  -21.8670    4.2050 N.am  210  GLY210     -0.1954
    126  CA        26.6950  -22.7920    3.7510 C.3   210  GLY210      0.1869
    127  C         26.4380  -23.3720    2.3800 C.2   210  GLY210      0.2309
    128  O         27.1930  -24.2470    1.9390 O.2   210  GLY210     -0.2863
@<TRIPOS>BOND
     1   128   127    2
     2   127   126    1
     3    78    77    2
     4   126   125    1
     5    77    76    1
     6   123   124    1
     7   123   120    1
     8   125   121   am
     9   124     6    1
    10   121   120    1
    11   121   122    2
    12     6     5    1
    13   120   119    1
    14    76    75    1
    15    76    79    1
    16   119   114   am
    17   118   116    1
    18    79    80    1
    19   114   113    1
    20   114   115    2
    21     1     2    1
    22   113   116    1
    23   113   112    1
    24   100    98    1
    25     5     2    1
    26   111   110    2
    27   116   117    1
    28    98    97    2
    29    98    99    1
    30    97    96    1
    31     2     3    1
    32    80    81    2
    33    80    82   am
    34    70    69    2
    35   112   110   am
    36    96    95    1
    37    95    94    1
    38   110   109    1
    39    91    94    1
    40    91    92    1
    41    91    90    1
    42    93    92    2
    43    69    68    1
    44   109   108    1
    45     3     4    2
    46     3     7   am
    47   108   103   am
    48     7     8    1
    49    71    68    1
    50    71    72    1
    51    68    67    1
    52    74    72    1
    53   103   102    1
    54   103   104    2
    55    67    60   am
    56    72    73    1
    57     8     9    1
    58     8    11    1
    59   102   105    1
    60   102   101    1
    61    31    30   ar
    62    31    29   ar
    63   105   107    1
    64   105   106    1
    65    65    64   ar
    66     9    10    2
    67    11    12    1
    68    60    59    1
    69    60    61    2
    70    30    28   ar
    71    29    27   ar
    72    59    58    1
    73    59    62    1
    74    66    64   ar
    75    64    63    1
    76    86    85    2
    77    28    27   ar
    78    27    26    1
    79    62    63    1
    80    57    55   am
    81    56    55    2
    82    85    84    1
    83    21    20    1
    84    55    54    1
    85    49    48    1
    86    26    23    1
    87    13    14    1
    88    88    87    1
    89    20    19    1
    90    87    84    1
    91    87    89    1
    92    84    83    1
    93    19    18    1
    94    22    23    1
    95    48    45    1
    96    18    17    1
    97    54    51    1
    98    23    24    1
    99    14    17    1
   100    14    15    1
   101    47    46    2
   102    51    50    1
   103    51    52    1
   104    15    16    2
   105    45    46    1
   106    45    44    1
   107    25    24    2
   108    53    52    2
   109    44    34   am
   110    35    34    2
   111    34    33    1
   112    33    32    1
   113    33    36    1
   114    36    37    1
   115    37    39   ar
   116    37    38   ar
   117    39    41   ar
   118    38    40   ar
   119    41    42   ar
   120    40    42   ar
   121    42    43    1
