@<TRIPOS>MOLECULE
tmp/6mmaA02.pdb
 83 78 0 0 0
SMALL
GASTEIGER

@<TRIPOS>ATOM
      1  N         91.0150  204.9500  139.5430 N.3   248  ILE248     -0.1231
      2  CA        90.2500  205.0000  138.3020 C.3   248  ILE248      0.1692
      3  C         89.0290  204.1050  138.4580 C.2   248  ILE248      0.2592
      4  O         89.1610  202.9230  138.7950 O.2   248  ILE248     -0.2718
      5  CB        91.1030  204.5770  137.0990 C.3   248  ILE248      0.0266
      6  CG1       92.2290  205.5850  136.8780 C.3   248  ILE248      0.0019
      7  CG2       90.2480  204.4480  135.8470 C.3   248  ILE248      0.0020
      8  CD1       93.2120  205.1850  135.8110 C.3   248  ILE248      0.0001
      9  N         87.8400  204.6850  138.2310 N.am  249  ASN249     -0.1974
     10  CA        86.5320  204.0370  138.4080 C.3   249  ASN249      0.1688
     11  C         86.3340  203.5140  139.8290 C.2   249  ASN249      0.2292
     12  O         85.6550  202.5070  140.0430 O.2   249  ASN249     -0.2864
     13  CB        86.3040  202.9170  137.3840 C.3   249  ASN249      0.1181
     14  CG        86.1250  203.4440  135.9760 C.2   249  ASN249      0.2629
     15  OD1       85.4400  204.4430  135.7570 O.2   249  ASN249     -0.2716
     16  ND2       86.7440  202.7740  135.0100 N.am  249  ASN249     -0.0877
     17  N         84.3110  196.6770  132.2160 N.3   310  VAL310     -0.1231
     18  CA        84.3560  198.0910  131.8630 C.3   310  VAL310      0.1692
     19  C         85.4330  198.8000  132.6760 C.2   310  VAL310      0.2593
     20  O         86.1690  199.6500  132.1580 O.2   310  VAL310     -0.2718
     21  CB        82.9670  198.7270  132.0600 C.3   310  VAL310      0.0266
     22  CG1       82.9800  200.2040  131.6840 C.3   310  VAL310      0.0020
     23  CG2       81.9220  197.9750  131.2500 C.3   310  VAL310      0.0020
     24  N         85.5670  198.4350  133.9550 N.am  311  THR311     -0.1939
     25  CA        86.6170  199.0080  134.7910 C.3   311  THR311      0.2028
     26  C         87.9910  198.4520  134.4380 C.2   311  THR311      0.2643
     27  O         89.0110  199.0540  134.7940 O.2   311  THR311     -0.2714
     28  CB        86.3100  198.7550  136.2660 C.3   311  THR311      0.1808
     29  OG1       86.2510  197.3430  136.5070 O.3   311  THR311     -0.2208
     30  CG2       84.9810  199.3860  136.6500 C.3   311  THR311      0.0379
     31  N         88.0430  197.3160  133.7550 N.am  312  GLY312     -0.1939
     32  CA        89.2830  196.7160  133.3220 C.3   312  GLY312      0.2014
     33  C         89.2580  195.2250  133.5610 C.2   312  GLY312      0.2638
     34  O         88.2310  194.6470  133.9150 O.2   312  GLY312     -0.2714
     35  N         90.4120  194.5950  133.3580 N.am  313  ARG313     -0.1977
     36  CA        90.5580  193.1610  133.5980 C.3   313  ARG313      0.1597
     37  C         90.6110  192.9220  135.0990 C.2   313  ARG313      0.2287
     38  O         91.6530  193.0900  135.7350 O.2   313  ARG313     -0.2864
     39  CB        91.8070  192.6240  132.9110 C.3   313  ARG313      0.0334
     40  CG        91.9820  191.1240  133.0650 C.3   313  ARG313      0.0492
     41  CD        93.1860  190.6110  132.2960 C.3   313  ARG313      0.2205
     42  NE        93.3680  189.1740  132.4780 N.pl3 313  ARG313     -0.0865
     43  CZ        94.3330  188.4630  131.9050 C.cat 313  ARG313      0.5346
     44  NH1       94.4200  187.1600  132.1290 N.pl3 313  ARG313      0.1354
     45  NH2       95.2120  189.0550  131.1070 N.pl3 313  ARG313      0.1354
     46  N         92.1880  193.1540  143.5710 N.3   322  ARG322     -0.1245
     47  CA        92.3060  193.4500  142.1490 C.3   322  ARG322      0.1563
     48  C         93.7370  193.2590  141.6630 C.2   322  ARG322      0.2260
     49  O         94.6870  193.7550  142.2770 O.2   322  ARG322     -0.2867
     50  CB        91.8450  194.8810  141.8760 C.3   322  ARG322      0.0307
     51  CG        92.0060  195.3320  140.4390 C.3   322  ARG322      0.0489
     52  CD        91.1230  194.5220  139.5180 C.3   322  ARG322      0.2205
     53  NE        91.2530  194.9400  138.1260 N.pl3 322  ARG322     -0.0865
     54  CZ        90.4820  195.8540  137.5460 C.cat 322  ARG322      0.5346
     55  NH1       90.6710  196.1720  136.2730 N.pl3 322  ARG322      0.1354
     56  NH2       89.5160  196.4440  138.2360 N.pl3 322  ARG322      0.1354
     57  N         96.4450  194.2580  138.9810 N.3   324  PHE324     -0.1241
     58  CA        96.9530  195.1850  137.9610 C.3   324  PHE324      0.1605
     59  C         95.9600  196.3110  137.6610 C.2   324  PHE324      0.2264
     60  O         95.5440  196.5270  136.5220 O.2   324  PHE324     -0.2867
     61  CB        97.3380  194.4310  136.6800 C.3   324  PHE324      0.0534
     62  CG        98.5640  193.5670  136.8200 C.ar  324  PHE324     -0.0203
     63  CD1       99.4550  193.7540  137.8680 C.ar  324  PHE324     -0.0042
     64  CD2       98.8190  192.5600  135.9010 C.ar  324  PHE324     -0.0042
     65  CE1      100.5790  192.9570  137.9940 C.ar  324  PHE324     -0.0003
     66  CE2       99.9420  191.7580  136.0210 C.ar  324  PHE324     -0.0003
     67  CZ       100.8220  191.9580  137.0690 C.ar  324  PHE324     -0.0000
     68  N         94.5870  200.2250  137.3370 N.3   326  ASN326     -0.1240
     69  CA        95.0930  201.4410  136.7170 C.3   326  ASN326      0.1653
     70  C         94.8290  202.6090  137.6540 C.2   326  ASN326      0.2266
     71  O         93.7160  202.7520  138.1710 O.2   326  ASN326     -0.2867
     72  CB        94.4200  201.6940  135.3670 C.3   326  ASN326      0.1155
     73  CG        94.6400  200.5670  134.3820 C.2   326  ASN326      0.2627
     74  OD1       95.6970  199.9410  134.3590 O.2   326  ASN326     -0.2716
     75  ND2       93.6330  200.3130  133.5500 N.am  326  ASN326     -0.0877
     76  N         99.4810  201.7510  134.6280 N.3   344  ASN344     -0.1240
     77  CA        98.9650  200.4390  134.2410 C.3   344  ASN344      0.1653
     78  C         99.1810  199.4320  135.3680 C.2   344  ASN344      0.2266
     79  O         99.2170  199.8020  136.5430 O.2   344  ASN344     -0.2867
     80  CB        99.5880  199.9410  132.9180 C.3   344  ASN344      0.1155
     81  CG       101.1190  199.7380  132.9880 C.2   344  ASN344      0.2627
     82  OD1      101.7080  200.0400  134.0110 O.2   344  ASN344     -0.2716
     83  ND2      101.7760  199.2000  131.9270 N.am  344  ASN344     -0.0877
@<TRIPOS>BOND
     1    45    43    1
     2    23    21    1
     3    22    21    1
     4    18    21    1
     5    18    17    1
     6    18    19    1
     7    43    44    1
     8    43    42    2
     9    83    81   am
    10    20    19    2
    11    41    42    1
    12    41    40    1
    13    19    24   am
    14    39    40    1
    15    39    36    1
    16    80    81    1
    17    80    77    1
    18    81    82    2
    19    32    33    1
    20    32    31    1
    21    35    33   am
    22    35    36    1
    23    75    73   am
    24    33    34    2
    25    36    37    1
    26    31    26   am
    27    24    25    1
    28    77    76    1
    29    77    78    1
    30    74    73    2
    31    73    72    1
    32    26    25    1
    33    26    27    2
    34    25    28    1
    35    16    14   am
    36    37    38    2
    37    72    69    1
    38    78    79    2
    39    15    14    2
    40     8     6    1
    41     7     5    1
    42    64    66   ar
    43    64    62   ar
    44    14    13    1
    45    66    67   ar
    46    28    29    1
    47    28    30    1
    48    55    54    1
    49    60    59    2
    50    61    62    1
    51    61    58    1
    52    69    68    1
    53    69    70    1
    54    62    63   ar
    55     6     5    1
    56    67    65   ar
    57     5     2    1
    58    13    10    1
    59    54    53    2
    60    54    56    1
    61    70    71    2
    62    59    58    1
    63    63    65   ar
    64    58    57    1
    65    53    52    1
    66     9    10    1
    67     9     3   am
    68     2     3    1
    69     2     1    1
    70    10    11    1
    71     3     4    2
    72    52    51    1
    73    11    12    2
    74    51    50    1
    75    48    47    1
    76    48    49    2
    77    50    47    1
    78    47    46    1
