@<TRIPOS>MOLECULE
tmp/6mmxA04.pdb
 77 73 0 0 0
SMALL
GASTEIGER

@<TRIPOS>ATOM
      1  N        236.0670  129.3940  148.8900 N.3   311  THR311     -0.1203
      2  CA       234.8430  128.6100  148.9750 C.3   311  THR311      0.1994
      3  C        233.6890  129.2520  148.2180 C.2   311  THR311      0.2618
      4  O        232.7220  128.5590  147.8840 O.2   311  THR311     -0.2717
      5  CB       234.4380  128.4090  150.4360 C.3   311  THR311      0.1784
      6  OG1      234.1460  129.6800  151.0300 O.3   311  THR311     -0.2211
      7  CG2      235.5660  127.7530  151.2090 C.3   311  THR311      0.0376
      8  N        233.7690  130.5410  147.9470 N.am  312  GLY312     -0.1942
      9  CA       232.7180  131.2350  147.2310 C.3   312  GLY312      0.2014
     10  C        232.6400  132.6790  147.6770 C.2   312  GLY312      0.2638
     11  O        233.4010  133.1390  148.5230 O.2   312  GLY312     -0.2714
     12  N        231.6810  133.3890  147.0840 N.am  313  ARG313     -0.1977
     13  CA       231.4830  134.7970  147.3980 C.3   313  ARG313      0.1597
     14  C        230.8440  134.9300  148.7730 C.2   313  ARG313      0.2287
     15  O        229.6150  134.9190  148.9030 O.2   313  ARG313     -0.2864
     16  CB       230.6260  135.4730  146.3250 C.3   313  ARG313      0.0334
     17  CG       230.4890  136.9800  146.4850 C.3   313  ARG313      0.0492
     18  CD       229.6890  137.5780  145.3400 C.3   313  ARG313      0.2205
     19  NE       229.4890  139.0140  145.5010 N.pl3 313  ARG313     -0.0865
     20  CZ       228.8270  139.7760  144.6360 C.cat 313  ARG313      0.5346
     21  NH1      228.6920  141.0750  144.8630 N.pl3 313  ARG313      0.1354
     22  NH2      228.3000  139.2380  143.5450 N.pl3 313  ARG313      0.1354
     23  N        226.6960  133.5310  156.4270 N.3   322  ARG322     -0.1245
     24  CA       226.8130  133.4880  154.9750 C.3   322  ARG322      0.1563
     25  C        225.4610  133.6900  154.3010 C.2   322  ARG322      0.2260
     26  O        224.4660  133.0640  154.6780 O.2   322  ARG322     -0.2867
     27  CB       227.4280  132.1580  154.5410 C.3   322  ARG322      0.0307
     28  CG       227.5180  131.9690  153.0390 C.3   322  ARG322      0.0489
     29  CD       228.4210  133.0080  152.4130 C.3   322  ARG322      0.2205
     30  NE       228.5410  132.8350  150.9690 N.pl3 322  ARG322     -0.0865
     31  CZ       229.4730  132.0910  150.3830 C.cat 322  ARG322      0.5346
     32  NH1      229.5120  131.9880  149.0620 N.pl3 322  ARG322      0.1354
     33  NH2      230.3720  131.4520  151.1190 N.pl3 322  ARG322      0.1354
     34  N        223.3170  132.7680  151.4890 N.3   324  PHE324     -0.1227
     35  CA       222.8610  131.8900  150.4050 C.3   324  PHE324      0.1736
     36  C        224.0130  131.0760  149.8030 C.2   324  PHE324      0.2595
     37  O        224.3930  131.2350  148.6410 O.2   324  PHE324     -0.2718
     38  CB       222.1450  132.7080  149.3260 C.3   324  PHE324      0.0547
     39  CG       220.8740  133.3540  149.7940 C.ar  324  PHE324     -0.0202
     40  CD1      219.6910  132.6320  149.8450 C.ar  324  PHE324     -0.0042
     41  CD2      220.8620  134.6860  150.1780 C.ar  324  PHE324     -0.0042
     42  CE1      218.5180  133.2280  150.2730 C.ar  324  PHE324     -0.0003
     43  CE2      219.6950  135.2890  150.6080 C.ar  324  PHE324     -0.0003
     44  CZ       218.5210  134.5580  150.6550 C.ar  324  PHE324     -0.0000
     45  N        224.5620  130.1970  150.6370 N.am  325  ALA325     -0.1966
     46  CA       225.7360  129.4310  150.2520 C.3   325  ALA325      0.1728
     47  C        225.3890  128.3450  149.2330 C.2   325  ALA325      0.2616
     48  O        224.2210  128.0420  148.9700 O.2   325  ALA325     -0.2715
     49  CB       226.3850  128.7940  151.4800 C.3   325  ALA325      0.0334
     50  N        226.4400  127.7790  148.6390 N.am  326  ASN326     -0.1972
     51  CA       226.3100  126.5920  147.8030 C.3   326  ASN326      0.1688
     52  C        225.8130  125.4090  148.6190 C.2   326  ASN326      0.2292
     53  O        226.4590  124.9990  149.5870 O.2   326  ASN326     -0.2864
     54  CB       227.6500  126.2550  147.1540 C.3   326  ASN326      0.1181
     55  CG       227.8690  126.9760  145.8470 C.2   326  ASN326      0.2629
     56  OD1      226.9470  127.1090  145.0420 O.2   326  ASN326     -0.2716
     57  ND2      229.0920  127.4310  145.6150 N.am  326  ASN326     -0.0877
     58  N        221.5510  120.7940  143.2670 N.3   342  ILE342     -0.1245
     59  CA       222.3840  121.8290  143.8580 C.3   342  ILE342      0.1561
     60  C        221.5170  123.0610  144.0620 C.2   342  ILE342      0.2260
     61  O        220.4190  123.1780  143.5160 O.2   342  ILE342     -0.2867
     62  CB       223.6190  122.1720  142.9970 C.3   342  ILE342      0.0252
     63  CG1      223.1890  122.6950  141.6280 C.3   342  ILE342      0.0019
     64  CG2      224.5420  120.9690  142.8540 C.3   342  ILE342      0.0019
     65  CD1      224.3210  123.2600  140.8060 C.3   342  ILE342      0.0001
     66  N        222.2740  127.3040  144.2850 N.3   344  ASN344     -0.1225
     67  CA       223.1140  128.4930  144.3080 C.3   344  ASN344      0.1785
     68  C        222.4220  129.5560  145.1650 C.2   344  ASN344      0.2597
     69  O        221.5630  129.2320  145.9880 O.2   344  ASN344     -0.2718
     70  CB       223.4740  128.9650  142.8830 C.3   344  ASN344      0.1169
     71  CG       222.3220  129.6490  142.1080 C.2   344  ASN344      0.2627
     72  OD1      221.1420  129.6100  142.4690 O.2   344  ASN344     -0.2716
     73  ND2      222.7270  130.3370  141.0310 N.am  344  ASN344     -0.0877
     74  N        222.8220  130.8210  145.0110 N.am  345  GLY345     -0.1957
     75  CA       222.2590  131.9250  145.7720 C.3   345  GLY345      0.1869
     76  C        220.7510  132.0960  145.6860 C.2   345  GLY345      0.2309
     77  O        220.1490  132.6210  146.6290 O.2   345  GLY345     -0.2863
@<TRIPOS>BOND
     1    65    63    1
     2    73    71   am
     3    63    62    1
     4    71    72    2
     5    71    70    1
     6    64    62    1
     7    70    67    1
     8    62    59    1
     9    58    59    1
    10    61    60    2
    11    22    20    1
    12    59    60    1
    13    66    67    1
    14    67    68    1
    15    20    21    1
    16    20    19    2
    17    74    68   am
    18    74    75    1
    19    56    55    2
    20    68    69    2
    21    18    19    1
    22    18    17    1
    23    57    55   am
    24    76    75    1
    25    76    77    2
    26    55    54    1
    27    16    17    1
    28    16    13    1
    29    12    13    1
    30    12    10   am
    31    54    51    1
    32     9    10    1
    33     9     8    1
    34    13    14    1
    35    10    11    2
    36    51    52    1
    37    51    50    1
    38     4     3    2
    39     8     3   am
    40     3     2    1
    41    52    53    2
    42    50    47   am
    43    37    36    2
    44    14    15    2
    45     1     2    1
    46    48    47    2
    47     2     5    1
    48    32    31    1
    49    47    46    1
    50    38    39    1
    51    38    35    1
    52    39    40   ar
    53    39    41   ar
    54    36    35    1
    55    36    45   am
    56    40    42   ar
    57    41    43   ar
    58    46    45    1
    59    46    49    1
    60    42    44   ar
    61    31    30    2
    62    31    33    1
    63    35    34    1
    64     5     6    1
    65     5     7    1
    66    43    44   ar
    67    30    29    1
    68    29    28    1
    69    28    27    1
    70    25    26    2
    71    25    24    1
    72    27    24    1
    73    24    23    1
