@<TRIPOS>MOLECULE
tmp/6mn0A01.pdb
 74 71 0 0 0
SMALL
GASTEIGER

@<TRIPOS>ATOM
      1  N        -92.9840   17.6300  291.8980 N.3    83  PRO83      -0.2102
      2  CA       -94.2460   18.3750  292.0170 C.3    83  PRO83       0.1504
      3  C        -95.4710   17.5420  291.6950 C.2    83  PRO83       0.2575
      4  O        -96.5830   17.9280  292.0770 O.2    83  PRO83      -0.2718
      5  CB       -94.0690   19.5290  291.0200 C.3    83  PRO83       0.0282
      6  CG       -93.0660   19.0190  290.0390 C.3    83  PRO83       0.0208
      7  CD       -92.1340   18.1400  290.8070 C.3    83  PRO83       0.0893
      8  N        -95.3060   16.4040  291.0260 N.am   84  LEU84      -0.1980
      9  CA       -96.4350   15.5460  290.7080 C.3    84  LEU84       0.1596
     10  C        -96.7270   14.5060  291.7820 C.2    84  LEU84       0.2287
     11  O        -97.8460   13.9820  291.8210 O.2    84  LEU84      -0.2864
     12  CB       -96.1960   14.8390  289.3710 C.3    84  LEU84       0.0297
     13  CG       -96.1630   15.7780  288.1650 C.3    84  LEU84       0.0022
     14  CD1      -95.8220   15.0190  286.8960 C.3    84  LEU84       0.0001
     15  CD2      -97.4910   16.4990  288.0210 C.3    84  LEU84       0.0001
     16  N       -102.7180   21.2250  289.2460 N.3   106  LEU106     -0.1231
     17  CA      -101.3040   21.3930  288.9590 C.3   106  LEU106      0.1693
     18  C       -100.6060   21.9420  290.1950 C.2   106  LEU106      0.2592
     19  O       -101.2370   22.5100  291.0910 O.2   106  LEU106     -0.2718
     20  CB      -101.0850   22.3160  287.7540 C.3   106  LEU106      0.0284
     21  CG      -101.8790   21.9150  286.5080 C.3   106  LEU106      0.0019
     22  CD1     -101.7870   22.9840  285.4370 C.3   106  LEU106      0.0001
     23  CD2     -101.4080   20.5660  285.9730 C.3   106  LEU106      0.0001
     24  N        -99.2890   21.7620  290.2330 N.am  107  ARG107     -0.1966
     25  CA       -98.4910   22.1080  291.4000 C.3   107  ARG107      0.1729
     26  C        -97.1520   22.6640  290.9360 C.2   107  ARG107      0.2617
     27  O        -96.5100   22.0810  290.0580 O.2   107  ARG107     -0.2715
     28  CB       -98.2940   20.8810  292.2980 C.3   107  ARG107      0.0348
     29  CG       -97.7760   21.1970  293.6760 C.3   107  ARG107      0.0492
     30  CD       -96.3150   20.8240  293.7990 C.3   107  ARG107      0.2205
     31  NE       -95.9430   20.6220  295.1920 N.pl3 107  ARG107     -0.0865
     32  CZ       -96.1610   19.4960  295.8580 C.cat 107  ARG107      0.5346
     33  NH1      -96.7400   18.4700  295.2490 N.pl3 107  ARG107      0.1354
     34  NH2      -95.7980   19.3920  297.1280 N.pl3 107  ARG107      0.1354
     35  N        -96.7340   23.7850  291.5240 N.am  108  SER108     -0.1936
     36  CA       -95.5640   24.5020  291.0370 C.3   108  SER108      0.2055
     37  C        -94.2730   23.8510  291.5390 C.2   108  SER108      0.2642
     38  O        -94.2790   22.9590  292.3900 O.2   108  SER108     -0.2714
     39  CB       -95.6270   25.9740  291.4420 C.3   108  SER108      0.2130
     40  OG       -95.7400   26.1280  292.8450 O.3   108  SER108     -0.2179
     41  N        -93.1470   24.3280  291.0010 N.am  109  ALA109     -0.1977
     42  CA       -91.8780   23.6180  291.1160 C.3   109  ALA109      0.1597
     43  C        -91.0400   24.0120  292.3290 C.2   109  ALA109      0.2287
     44  O        -90.1740   23.2290  292.7360 O.2   109  ALA109     -0.2864
     45  CB       -91.0430   23.8310  289.8490 C.3   109  ALA109      0.0319
     46  N       -102.4350   26.5690  284.8880 N.3   123  GLU123     -0.1245
     47  CA      -101.1680   26.5170  284.1650 C.3   123  GLU123      0.1567
     48  C       -100.3760   27.8050  284.3450 C.2   123  GLU123      0.2260
     49  O        -99.1480   27.7750  284.4760 O.2   123  GLU123     -0.2867
     50  CB      -101.4210   26.2550  282.6800 C.3   123  GLU123      0.0388
     51  CG      -101.8270   24.8290  282.3480 C.3   123  GLU123      0.1160
     52  CD      -103.2920   24.5490  282.6330 C.2   123  GLU123      0.3649
     53  OE1     -104.0100   25.4750  283.0660 O.co2 123  GLU123     -0.2457
     54  OE2     -103.7260   23.3960  282.4260 O.co2 123  GLU123     -0.2457
     55  N        -99.0180   28.2150  288.2090 N.3   126  THR126     -0.1203
     56  CA       -98.0340   27.2400  288.6530 C.3   126  THR126      0.1994
     57  C        -96.7430   27.2720  287.8470 C.2   126  THR126      0.2618
     58  O        -95.7490   26.6790  288.2770 O.2   126  THR126     -0.2717
     59  CB       -98.6240   25.8270  288.5890 C.3   126  THR126      0.1784
     60  OG1      -99.0160   25.5330  287.2430 O.3   126  THR126     -0.2211
     61  CG2      -99.8370   25.7210  289.4960 C.3   126  THR126      0.0376
     62  N        -96.7290   27.9440  286.7030 N.am  127  ALA127     -0.1965
     63  CA       -95.5670   27.9090  285.8310 C.3   127  ALA127      0.1728
     64  C        -94.5180   28.9240  286.2640 C.2   127  ALA127      0.2616
     65  O        -94.8340   29.9670  286.8460 O.2   127  ALA127     -0.2715
     66  CB       -95.9750   28.1910  284.3870 C.3   127  ALA127      0.0334
     67  N        -93.2560   28.5930  285.9830 N.am  128  ASP128     -0.1971
     68  CA       -92.1270   29.5050  286.1700 C.3   128  ASP128      0.1709
     69  C        -92.0670   30.0330  287.6030 C.2   128  ASP128      0.2293
     70  O        -91.9190   31.2300  287.8570 O.2   128  ASP128     -0.2864
     71  CB       -92.1830   30.6480  285.1570 C.3   128  ASP128      0.1436
     72  CG       -92.3720   30.1540  283.7340 C.2   128  ASP128      0.3671
     73  OD1      -91.7130   29.1630  283.3540 O.co2 128  ASP128     -0.2456
     74  OD2      -93.1820   30.7530  282.9950 O.co2 128  ASP128     -0.2456
@<TRIPOS>BOND
     1    51    52    1
     2    51    50    1
     3    54    52   ar
     4    52    53   ar
     5    50    47    1
     6    74    72   ar
     7    73    72   ar
     8    72    71    1
     9    47    48    1
    10    47    46    1
    11    48    49    2
    12    66    63    1
    13    71    68    1
    14    22    21    1
    15    63    64    1
    16    63    62    1
    17    23    21    1
    18    67    68    1
    19    67    64   am
    20    68    69    1
    21    64    65    2
    22    21    20    1
    23    62    57   am
    24    14    13    1
    25    60    59    1
    26    69    70    2
    27    20    17    1
    28    57    58    2
    29    57    56    1
    30    15    13    1
    31    13    12    1
    32    55    56    1
    33    59    56    1
    34    59    61    1
    35    17    16    1
    36    17    18    1
    37    12     9    1
    38    45    42    1
    39     6     7    1
    40     6     5    1
    41    27    26    2
    42    18    24   am
    43    18    19    2
    44    24    25    1
    45     9     8    1
    46     9    10    1
    47     7     1    1
    48    26    25    1
    49    26    35   am
    50    41    42    1
    51    41    37   am
    52     5     2    1
    53     8     3   am
    54    36    39    1
    55    36    35    1
    56    36    37    1
    57    42    43    1
    58    25    28    1
    59    39    40    1
    60    37    38    2
    61     3     2    1
    62     3     4    2
    63    10    11    2
    64     1     2    1
    65    28    29    1
    66    43    44    2
    67    29    30    1
    68    30    31    1
    69    31    32    2
    70    33    32    1
    71    32    34    1
