@<TRIPOS>MOLECULE
tmp/6mn0E02.pdb
 127 120 0 0 0
SMALL
GASTEIGER

@<TRIPOS>ATOM
      1  N       -104.3050  -24.8650  242.1250 N.3    59  TYR59      -0.1241
      2  CA      -103.1460  -25.6300  241.6680 C.3    59  TYR59       0.1605
      3  C       -101.9340  -25.2400  242.5110 C.2    59  TYR59       0.2264
      4  O       -101.3610  -24.1620  242.3270 O.2    59  TYR59      -0.2867
      5  CB      -102.9020  -25.3870  240.1800 C.3    59  TYR59       0.0534
      6  CG      -101.7580  -26.1830  239.5830 C.ar   59  TYR59      -0.0201
      7  CD1     -101.2470  -27.3050  240.2270 C.ar   59  TYR59      -0.0009
      8  CD2     -101.1900  -25.8110  238.3730 C.ar   59  TYR59      -0.0009
      9  CE1     -100.2000  -28.0260  239.6860 C.ar   59  TYR59       0.0417
     10  CE2     -100.1460  -26.5280  237.8220 C.ar   59  TYR59       0.0417
     11  CZ       -99.6540  -27.6350  238.4830 C.ar   59  TYR59       0.1957
     12  OH       -98.6140  -28.3550  237.9420 O.3    59  TYR59      -0.2866
     13  N        -98.7830  -27.1420  243.2590 N.3    61  ASP61      -0.1225
     14  CA       -97.4230  -27.4620  242.8020 C.3    61  ASP61       0.1805
     15  C        -96.5030  -27.3510  244.0260 C.2    61  ASP61       0.2597
     16  O        -96.9530  -27.5530  245.1600 O.2    61  ASP61      -0.2718
     17  CB       -97.0590  -26.5700  241.6240 C.3    61  ASP61       0.1424
     18  CG       -95.9630  -27.1500  240.7600 C.2    61  ASP61       0.3668
     19  OD1      -95.1120  -27.8920  241.2890 O.co2  61  ASP61      -0.2456
     20  OD2      -95.9520  -26.8530  239.5480 O.co2  61  ASP61      -0.2456
     21  N        -95.2200  -27.0450  243.8290 N.am   62  TRP62      -0.1976
     22  CA       -94.3460  -26.6610  244.9350 C.3    62  TRP62       0.1640
     23  C        -93.1030  -25.9850  244.3630 C.2    62  TRP62       0.2290
     24  O        -92.9800  -25.7950  243.1510 O.2    62  TRP62      -0.2864
     25  CB       -94.0080  -27.8520  245.8430 C.3    62  TRP62       0.0576
     26  CG       -93.1180  -28.9020  245.2700 C.ar   62  TRP62       0.0006
     27  CD1      -93.2140  -29.4880  244.0420 C.ar   62  TRP62       0.0946
     28  CD2      -92.0080  -29.5210  245.9270 C.ar   62  TRP62       0.0152
     29  NE1      -92.2200  -30.4250  243.8900 N.ar   62  TRP62      -0.2442
     30  CE2      -91.4680  -30.4650  245.0340 C.ar   62  TRP62       0.0810
     31  CE3      -91.4140  -29.3640  247.1840 C.ar   62  TRP62       0.0012
     32  CZ2      -90.3620  -31.2490  245.3570 C.ar   62  TRP62       0.0191
     33  CZ3      -90.3170  -30.1410  247.5020 C.ar   62  TRP62       0.0001
     34  CH2      -89.8020  -31.0720  246.5920 C.ar   62  TRP62       0.0015
     35  N        -89.6030  -26.4580  244.5980 N.3    64  LEU64      -0.1245
     36  CA       -88.2910  -26.9860  244.2510 C.3    64  LEU64       0.1561
     37  C        -87.9870  -26.6680  242.7910 C.2    64  LEU64       0.2260
     38  O        -88.7490  -27.0460  241.8960 O.2    64  LEU64      -0.2867
     39  CB       -88.2370  -28.4890  244.5040 C.3    64  LEU64       0.0270
     40  CG       -86.9480  -29.1960  244.0880 C.3    64  LEU64       0.0019
     41  CD1      -85.7410  -28.5660  244.7640 C.3    64  LEU64       0.0001
     42  CD2      -87.0360  -30.6750  244.4140 C.3    64  LEU64       0.0001
     43  N        -85.7560  -27.0930  239.3650 N.3    66  ASP66      -0.1239
     44  CA       -84.9170  -28.1090  238.7310 C.3    66  ASP66       0.1674
     45  C        -83.4390  -27.7930  238.9360 C.2    66  ASP66       0.2266
     46  O        -82.6280  -28.6950  239.1830 O.2    66  ASP66      -0.2867
     47  CB       -85.2410  -28.2080  237.2370 C.3    66  ASP66       0.1410
     48  CG       -86.7350  -28.3070  236.9610 C.2    66  ASP66       0.3668
     49  OD1      -87.4770  -28.8030  237.8340 O.co2  66  ASP66      -0.2456
     50  OD2      -87.1660  -27.8920  235.8620 O.co2  66  ASP66      -0.2456
     51  N        -82.9150  -28.9440  242.3540 N.3    69  ARG69      -0.1245
     52  CA       -83.2890  -30.3510  242.3990 C.3    69  ARG69       0.1563
     53  C        -82.2210  -31.2330  241.7620 C.2    69  ARG69       0.2260
     54  O        -81.9040  -32.3090  242.2810 O.2    69  ARG69      -0.2867
     55  CB       -84.6370  -30.5240  241.6970 C.3    69  ARG69       0.0307
     56  CG       -85.1610  -31.9360  241.6230 C.3    69  ARG69       0.0489
     57  CD       -85.0790  -32.4520  240.2020 C.3    69  ARG69       0.2205
     58  NE       -86.2800  -32.1790  239.4180 N.pl3  69  ARG69      -0.0865
     59  CZ       -86.2680  -31.8340  238.1350 C.cat  69  ARG69       0.5346
     60  NH1      -85.1170  -31.7100  237.4900 N.pl3  69  ARG69       0.1354
     61  NH2      -87.4080  -31.6120  237.4940 N.pl3  69  ARG69       0.1354
     62  N        -96.1130  -23.3390  244.7140 N.3    89  ILE89      -0.1245
     63  CA       -95.2300  -22.6030  243.8190 C.3    89  ILE89       0.1561
     64  C        -95.7460  -21.1770  243.6750 C.2    89  ILE89       0.2260
     65  O        -96.9550  -20.9350  243.5570 O.2    89  ILE89      -0.2867
     66  CB       -95.1020  -23.3160  242.4600 C.3    89  ILE89       0.0252
     67  CG1      -93.8470  -22.8340  241.7300 C.3    89  ILE89       0.0019
     68  CG2      -96.3340  -23.1040  241.5880 C.3    89  ILE89       0.0019
     69  CD1      -93.4640  -23.6880  240.5560 C.3    89  ILE89       0.0001
     70  N        -95.4040  -32.1240  241.8880 N.3   112  GLY112     -0.1225
     71  CA       -95.5370  -31.1300  240.8360 C.3   112  GLY112      0.1811
     72  C        -96.9730  -30.8680  240.4280 C.2   112  GLY112      0.2280
     73  O        -97.3210  -29.7450  240.0530 O.2   112  GLY112     -0.2866
     74  N       -101.2520  -36.0950  236.0790 N.3   135  TYR135     -0.1241
     75  CA      -102.2630  -35.3280  235.3610 C.3   135  TYR135      0.1605
     76  C       -103.2730  -36.2330  234.6690 C.2   135  TYR135      0.2264
     77  O       -104.1370  -35.7380  233.9370 O.2   135  TYR135     -0.2867
     78  CB      -101.6000  -34.3870  234.3480 C.3   135  TYR135      0.0534
     79  CG      -100.5850  -33.4710  234.9880 C.ar  135  TYR135     -0.0201
     80  CD1     -100.9660  -32.2440  235.5170 C.ar  135  TYR135     -0.0009
     81  CD2      -99.2510  -33.8440  235.0900 C.ar  135  TYR135     -0.0009
     82  CE1     -100.0440  -31.4090  236.1170 C.ar  135  TYR135      0.0417
     83  CE2      -98.3240  -33.0180  235.6890 C.ar  135  TYR135      0.0417
     84  CZ       -98.7250  -31.8010  236.1990 C.ar  135  TYR135      0.1957
     85  OH       -97.8010  -30.9750  236.7960 O.3   135  TYR135     -0.2866
     86  N        -91.3330  -37.2140  230.4040 N.3   179  LEU179     -0.1245
     87  CA       -90.4070  -36.5010  231.2730 C.3   179  LEU179      0.1561
     88  C        -90.0510  -37.3670  232.4720 C.2   179  LEU179      0.2260
     89  O        -90.9400  -37.8830  233.1560 O.2   179  LEU179     -0.2867
     90  CB       -91.0170  -35.1790  231.7410 C.3   179  LEU179      0.0270
     91  CG       -90.0660  -33.9870  231.8280 C.3   179  LEU179      0.0019
     92  CD1      -89.6930  -33.4880  230.4380 C.3   179  LEU179      0.0001
     93  CD2      -90.6960  -32.8790  232.6540 C.3   179  LEU179      0.0001
     94  N        -87.7200  -37.3690  236.0400 N.3   181  TYR181     -0.1241
     95  CA       -86.9790  -36.5730  237.0060 C.3   181  TYR181      0.1605
     96  C        -87.0220  -37.2750  238.3530 C.2   181  TYR181      0.2264
     97  O        -87.8610  -38.1450  238.5970 O.2   181  TYR181     -0.2867
     98  CB       -87.5390  -35.1480  237.1170 C.3   181  TYR181      0.0534
     99  CG       -88.9860  -35.0750  237.5620 C.ar  181  TYR181     -0.0201
    100  CD1      -90.0210  -35.3260  236.6700 C.ar  181  TYR181     -0.0009
    101  CD2      -89.3150  -34.7450  238.8710 C.ar  181  TYR181     -0.0009
    102  CE1      -91.3410  -35.2570  237.0690 C.ar  181  TYR181      0.0417
    103  CE2      -90.6350  -34.6730  239.2790 C.ar  181  TYR181      0.0417
    104  CZ       -91.6430  -34.9290  238.3730 C.ar  181  TYR181      0.1957
    105  OH       -92.9590  -34.8610  238.7680 O.3   181  TYR181     -0.2866
    106  N        -93.7310  -38.5790  233.8390 N.3   198  GLU198     -0.1245
    107  CA       -94.9860  -37.9670  233.4330 C.3   198  GLU198      0.1567
    108  C        -94.8520  -37.4710  232.0020 C.2   198  GLU198      0.2260
    109  O        -93.7440  -37.3120  231.4810 O.2   198  GLU198     -0.2867
    110  CB       -95.3680  -36.8040  234.3590 C.3   198  GLU198      0.0388
    111  CG       -94.2050  -35.8590  234.6500 C.3   198  GLU198      0.1160
    112  CD       -94.4860  -34.8970  235.7880 C.2   198  GLU198      0.3649
    113  OE1      -94.5450  -33.6750  235.5350 O.co2 198  GLU198     -0.2457
    114  OE2      -94.6350  -35.3610  236.9380 O.co2 198  GLU198     -0.2457
    115  N        -95.5140  -31.2690  230.9610 N.3   201  THR201     -0.1203
    116  CA       -96.4790  -30.1900  231.1190 C.3   201  THR201      0.1994
    117  C        -95.8540  -28.8020  231.0720 C.2   201  THR201      0.2618
    118  O        -96.5930  -27.8140  231.0160 O.2   201  THR201     -0.2717
    119  CB       -97.2510  -30.3340  232.4420 C.3   201  THR201      0.1784
    120  OG1      -96.3310  -30.5230  233.5250 O.3   201  THR201     -0.2211
    121  CG2      -98.2170  -31.5080  232.3770 C.3   201  THR201      0.0376
    122  N        -94.5260  -28.6950  231.0960 N.am  202  SER202     -0.1951
    123  CA       -93.8780  -27.3900  231.0690 C.3   202  SER202      0.1924
    124  C        -93.5350  -26.9230  229.6610 C.2   202  SER202      0.2314
    125  O        -93.3360  -25.7210  229.4540 O.2   202  SER202     -0.2863
    126  CB       -92.6080  -27.4100  231.9270 C.3   202  SER202      0.2116
    127  OG       -91.5280  -28.0070  231.2340 O.3   202  SER202     -0.2180
@<TRIPOS>BOND
     1   125   124    2
     2   124   123    1
     3    86    87    1
     4    92    91    1
     5   115   116    1
     6   118   117    2
     7   123   122    1
     8   123   126    1
     9   117   122   am
    10   117   116    1
    11   116   119    1
    12   127   126    1
    13    87    90    1
    14    87    88    1
    15   109   108    2
    16    90    91    1
    17    91    93    1
    18   108   107    1
    19   121   119    1
    20   119   120    1
    21    88    89    2
    22   107   106    1
    23   107   110    1
    24    77    76    2
    25    78    79    1
    26    78    75    1
    27   110   111    1
    28   111   112    1
    29    76    75    1
    30    79    81   ar
    31    79    80   ar
    32    81    83   ar
    33    75    74    1
    34    80    82   ar
    35   113   112   ar
    36    83    84   ar
    37   112   114   ar
    38    50    48   ar
    39    94    95    1
    40    82    84   ar
    41    84    85    1
    42   100   102   ar
    43   100    99   ar
    44    48    47    1
    45    48    49   ar
    46    95    98    1
    47    95    96    1
    48   102   104   ar
    49    98    99    1
    50    47    44    1
    51    60    59    1
    52    61    59    1
    53    99   101   ar
    54    10     8   ar
    55    10    11   ar
    56    12    11    1
    57    59    58    2
    58    96    97    2
    59   104   105    1
    60   104   103   ar
    61     8     6   ar
    62    11     9   ar
    63    44    45    1
    64    44    43    1
    65   101   103   ar
    66    45    46    2
    67    58    57    1
    68    20    18   ar
    69     6     5    1
    70     6     7   ar
    71     9     7   ar
    72    73    72    2
    73     5     2    1
    74    57    56    1
    75    72    71    1
    76    69    67    1
    77    18    19   ar
    78    18    17    1
    79    71    70    1
    80    68    66    1
    81    56    55    1
    82    17    14    1
    83     2     1    1
    84     2     3    1
    85    55    52    1
    86    67    66    1
    87    53    54    2
    88    53    52    1
    89    38    37    2
    90     4     3    2
    91    51    52    1
    92    66    63    1
    93    37    36    1
    94    14    13    1
    95    14    15    1
    96    24    23    2
    97    65    64    2
    98    64    63    1
    99    63    62    1
   100    21    15   am
   101    21    22    1
   102    29    27   ar
   103    29    30   ar
   104    15    16    2
   105    27    26   ar
   106    40    42    1
   107    40    39    1
   108    40    41    1
   109    36    39    1
   110    36    35    1
   111    23    22    1
   112    22    25    1
   113    30    32   ar
   114    30    28   ar
   115    26    25    1
   116    26    28   ar
   117    32    34   ar
   118    28    31   ar
   119    34    33   ar
   120    31    33   ar
