@<TRIPOS>MOLECULE
tmp/6mn1B02.pdb
 190 179 0 0 0
SMALL
GASTEIGER

@<TRIPOS>ATOM
      1  N        193.8710  281.4690  -23.7310 N.3    60  TYR60      -0.1241
      2  CA       195.2110  281.3650  -24.3020 C.3    60  TYR60       0.1605
      3  C        196.2290  281.4040  -23.1680 C.2    60  TYR60       0.2264
      4  O        196.4700  282.4600  -22.5730 O.2    60  TYR60      -0.2867
      5  CB       195.4570  282.4750  -25.3210 C.3    60  TYR60       0.0534
      6  CG       196.8330  282.4320  -25.9510 C.ar   60  TYR60      -0.0201
      7  CD1      197.5490  281.2390  -26.0330 C.ar   60  TYR60      -0.0009
      8  CD2      197.4190  283.5840  -26.4600 C.ar   60  TYR60      -0.0009
      9  CE1      198.8110  281.1990  -26.5990 C.ar   60  TYR60       0.0417
     10  CE2      198.6820  283.5540  -27.0290 C.ar   60  TYR60       0.0417
     11  CZ       199.3700  282.3590  -27.0970 C.ar   60  TYR60       0.1957
     12  OH       200.6210  282.3220  -27.6540 O.3    60  TYR60      -0.2866
     13  N        199.7420  280.0840  -23.0480 N.3    62  ASP62      -0.1225
     14  CA       201.1790  280.2940  -23.2950 C.3    62  ASP62       0.1805
     15  C        201.9120  279.7110  -22.0760 C.2    62  ASP62       0.2597
     16  O        201.3960  278.7990  -21.4150 O.2    62  ASP62      -0.2718
     17  CB       201.4460  281.7780  -23.5880 C.3    62  ASP62       0.1424
     18  CG       202.7810  282.0340  -24.2840 C.2    62  ASP62       0.3668
     19  OD1      203.7440  281.2640  -24.0940 O.co2  62  ASP62      -0.2456
     20  OD2      202.8700  283.0460  -25.0130 O.co2  62  ASP62      -0.2456
     21  N        203.1100  280.2000  -21.7590 N.am   63  TRP63      -0.1976
     22  CA       203.7620  279.8760  -20.4910 C.3    63  TRP63       0.1640
     23  C        204.7960  280.9570  -20.2030 C.2    63  TRP63       0.2290
     24  O        204.9180  281.9380  -20.9430 O.2    63  TRP63      -0.2864
     25  CB       204.3700  278.4690  -20.4920 C.3    63  TRP63       0.0576
     26  CG       205.5430  278.2490  -21.4040 C.ar   63  TRP63       0.0006
     27  CD1      205.6780  278.6820  -22.6920 C.ar   63  TRP63       0.0946
     28  CD2      206.7420  277.5130  -21.0990 C.ar   63  TRP63       0.0152
     29  NE1      206.8880  278.2670  -23.2050 N.ar   63  TRP63      -0.2442
     30  CE2      207.5580  277.5490  -22.2490 C.ar   63  TRP63       0.0810
     31  CE3      207.2040  276.8330  -19.9650 C.ar   63  TRP63       0.0012
     32  CZ2      208.8050  276.9280  -22.3000 C.ar   63  TRP63       0.0191
     33  CZ3      208.4520  276.2220  -20.0150 C.ar   63  TRP63       0.0001
     34  CH2      209.2350  276.2730  -21.1770 C.ar   63  TRP63       0.0015
     35  N        208.2670  280.9940  -19.6580 N.3    65  LEU65      -0.1231
     36  CA       209.6870  281.0210  -19.9950 C.3    65  LEU65       0.1693
     37  C        210.0290  282.2950  -20.7600 C.2    65  LEU65       0.2592
     38  O        209.4400  282.5790  -21.8070 O.2    65  LEU65      -0.2718
     39  CB       210.0720  279.7930  -20.8160 C.3    65  LEU65       0.0284
     40  CG       211.5610  279.7650  -21.1820 C.3    65  LEU65       0.0019
     41  CD1      212.4220  279.7770  -19.9260 C.3    65  LEU65       0.0001
     42  CD2      211.9010  278.5710  -22.0470 C.3    65  LEU65       0.0001
     43  N        210.9780  283.0630  -20.2300 N.am   66  GLU66      -0.1966
     44  CA       211.4490  284.2750  -20.8850 C.3    66  GLU66       0.1733
     45  C        212.5360  283.9340  -21.8970 C.2    66  GLU66       0.2616
     46  O        213.3650  283.0500  -21.6610 O.2    66  GLU66      -0.2715
     47  CB       211.9860  285.2740  -19.8560 C.3    66  GLU66       0.0429
     48  CG       210.9090  286.0260  -19.0830 C.3    66  GLU66       0.1163
     49  CD       211.3740  286.4720  -17.7040 C.2    66  GLU66       0.3649
     50  OE1      210.5420  286.4930  -16.7730 O.co2  66  GLU66      -0.2457
     51  OE2      212.5680  286.8050  -17.5480 O.co2  66  GLU66      -0.2457
     52  N        212.5310  284.6530  -23.0230 N.am   67  ASP67      -0.1971
     53  CA       213.4790  284.3690  -24.0980 C.3    67  ASP67       0.1709
     54  C        214.9200  284.5810  -23.6500 C.2    67  ASP67       0.2293
     55  O        215.8090  283.7980  -24.0050 O.2    67  ASP67      -0.2864
     56  CB       213.1670  285.2430  -25.3160 C.3    67  ASP67       0.1436
     57  CG       211.8460  284.8820  -25.9720 C.2    67  ASP67       0.3671
     58  OD1      211.1800  283.9390  -25.4950 O.co2  67  ASP67      -0.2456
     59  OD2      211.4710  285.5400  -26.9650 O.co2  67  ASP67      -0.2456
     60  N        215.7620  281.5930  -21.5240 N.3    70  ARG70      -0.1245
     61  CA       215.8380  280.4010  -22.3600 C.3    70  ARG70       0.1563
     62  C        217.1820  280.2930  -23.0730 C.2    70  ARG70       0.2260
     63  O        217.7470  279.1990  -23.1830 O.2    70  ARG70      -0.2867
     64  CB       214.6920  280.4190  -23.3720 C.3    70  ARG70       0.0307
     65  CG       214.7160  279.2810  -24.3750 C.3    70  ARG70       0.0489
     66  CD       213.8310  279.6090  -25.5620 C.3    70  ARG70       0.2205
     67  NE       214.4090  280.6660  -26.3860 N.pl3  70  ARG70      -0.0865
     68  CZ       213.7050  281.4480  -27.1960 C.cat  70  ARG70       0.5346
     69  NH1      212.3910  281.2910  -27.2960 N.pl3  70  ARG70       0.1354
     70  NH2      214.3140  282.3880  -27.9070 N.pl3  70  ARG70       0.1354
     71  N        201.1500  282.5000  -19.0500 N.3    90  ILE90      -0.1245
     72  CA       201.9100  283.7420  -19.1080 C.3    90  ILE90       0.1561
     73  C        201.0780  284.8470  -18.4720 C.2    90  ILE90       0.2260
     74  O        199.8720  284.9670  -18.7240 O.2    90  ILE90      -0.2867
     75  CB       202.3130  284.0540  -20.5630 C.3    90  ILE90       0.0252
     76  CG1      203.4160  285.1160  -20.6170 C.3    90  ILE90       0.0019
     77  CG2      201.1160  284.4910  -21.4060 C.3    90  ILE90       0.0019
     78  CD1      204.0570  285.2620  -22.0000 C.3    90  ILE90       0.0001
     79  N        198.8460  287.5320  -20.4320 N.3    93  ASN93      -0.1240
     80  CA       197.5350  287.2010  -20.9700 C.3    93  ASN93       0.1653
     81  C        196.4160  287.3820  -19.9520 C.2    93  ASN93       0.2266
     82  O        195.2590  287.0730  -20.2600 O.2    93  ASN93      -0.2867
     83  CB       197.5310  285.7680  -21.5010 C.3    93  ASN93       0.1155
     84  CG       198.2670  285.6420  -22.8180 C.2    93  ASN93       0.2627
     85  OD1      198.9260  286.5810  -23.2660 O.2    93  ASN93      -0.2716
     86  ND2      198.1630  284.4790  -23.4440 N.am   93  ASN93      -0.0877
     87  N        204.4000  277.6390  -26.3080 N.3   113  GLY113     -0.1225
     88  CA       204.0720  279.0370  -26.5290 C.3   113  GLY113      0.1811
     89  C        202.6440  279.2500  -26.9890 C.2   113  GLY113      0.2280
     90  O        202.0260  280.2660  -26.6560 O.2   113  GLY113     -0.2866
     91  N        200.2260  277.4360  -34.4140 N.3   136  TYR136     -0.1241
     92  CA       199.1160  278.3030  -34.7780 C.3   136  TYR136      0.1605
     93  C        198.5050  277.8990  -36.1100 C.2   136  TYR136      0.2264
     94  O        197.6200  278.5970  -36.6170 O.2   136  TYR136     -0.2867
     95  CB       199.5780  279.7640  -34.7990 C.3   136  TYR136      0.0534
     96  CG       200.2610  280.1700  -33.5080 C.ar  136  TYR136     -0.0201
     97  CD1      201.6380  280.0370  -33.3520 C.ar  136  TYR136     -0.0009
     98  CD2      199.5250  280.6570  -32.4330 C.ar  136  TYR136     -0.0009
     99  CE1      202.2640  280.3900  -32.1660 C.ar  136  TYR136      0.0417
    100  CE2      200.1440  281.0170  -31.2450 C.ar  136  TYR136      0.0417
    101  CZ       201.5130  280.8820  -31.1160 C.ar  136  TYR136      0.1957
    102  OH       202.1330  281.2350  -29.9340 O.3   136  TYR136     -0.2866
    103  N        193.5050  293.9520  -30.4030 N.3   160  ASP160     -0.1225
    104  CA       194.7820  293.4570  -30.9100 C.3   160  ASP160      0.1805
    105  C        195.1710  292.1140  -30.2980 C.2   160  ASP160      0.2598
    106  O        196.0080  291.4060  -30.8690 O.2   160  ASP160     -0.2718
    107  CB       195.8900  294.4860  -30.6610 C.3   160  ASP160      0.1424
    108  CG       195.8150  295.1010  -29.2750 C.2   160  ASP160      0.3668
    109  OD1      194.7290  295.0560  -28.6680 O.co2 160  ASP160     -0.2456
    110  OD2      196.8380  295.6310  -28.7940 O.co2 160  ASP160     -0.2456
    111  N        194.6040  291.7520  -29.1480 N.am  161  THR161     -0.1953
    112  CA       194.9900  290.5330  -28.4480 C.3   161  THR161      0.1897
    113  C        194.2390  289.2970  -28.9360 C.2   161  THR161      0.2313
    114  O        194.3180  288.2450  -28.2920 O.2   161  THR161     -0.2863
    115  CB       194.7890  290.7020  -26.9360 C.3   161  THR161      0.1794
    116  OG1      193.4020  290.9250  -26.6440 O.3   161  THR161     -0.2208
    117  CG2      195.6150  291.8750  -26.4200 C.3   161  THR161      0.0378
    118  N        194.2290  286.2870  -30.5190 N.3   163  THR163     -0.1218
    119  CA       195.2550  285.3630  -30.9960 C.3   163  THR163      0.1862
    120  C        194.8080  284.5640  -32.2100 C.2   163  THR163      0.2287
    121  O        195.6600  284.0510  -32.9430 O.2   163  THR163     -0.2866
    122  CB       195.6540  284.4000  -29.8760 C.3   163  THR163      0.1770
    123  OG1      195.7240  285.1190  -28.6420 O.3   163  THR163     -0.2211
    124  CG2      197.0100  283.7720  -30.1520 C.3   163  THR163      0.0375
    125  N        196.4830  285.1600  -35.4000 N.3   166  ALA166     -0.1245
    126  CA       197.7690  284.5200  -35.6490 C.3   166  ALA166      0.1562
    127  C        197.5960  283.2350  -36.4480 C.2   166  ALA166      0.2260
    128  O        198.5010  282.8420  -37.1920 O.2   166  ALA166     -0.2867
    129  CB       198.4930  284.2420  -34.3320 C.3   166  ALA166      0.0290
    130  N        210.7820  281.8190  -36.8980 N.3   180  LEU180     -0.1245
    131  CA       211.5300  281.7460  -35.6530 C.3   180  LEU180      0.1561
    132  C        212.0170  280.3220  -35.4330 C.2   180  LEU180      0.2260
    133  O        211.2850  279.3620  -35.6820 O.2   180  LEU180     -0.2867
    134  CB       210.6620  282.1740  -34.4680 C.3   180  LEU180      0.0270
    135  CG       210.8400  283.5840  -33.9080 C.3   180  LEU180      0.0019
    136  CD1      210.8780  284.6220  -35.0220 C.3   180  LEU180      0.0001
    137  CD2      209.7270  283.8870  -32.9210 C.3   180  LEU180      0.0001
    138  N        213.9640  278.2150  -32.2860 N.3   182  TYR182     -0.1241
    139  CA       214.4200  278.3250  -30.9110 C.3   182  TYR182      0.1605
    140  C        214.3920  276.9500  -30.2630 C.2   182  TYR182      0.2264
    141  O        213.6510  276.0570  -30.6790 O.2   182  TYR182     -0.2867
    142  CB       213.5610  279.3180  -30.1160 C.3   182  TYR182      0.0534
    143  CG       212.0880  278.9630  -30.0690 C.ar  182  TYR182     -0.0201
    144  CD1      211.2310  279.3060  -31.1120 C.ar  182  TYR182     -0.0009
    145  CD2      211.5520  278.2910  -28.9780 C.ar  182  TYR182     -0.0009
    146  CE1      209.8810  278.9810  -31.0680 C.ar  182  TYR182      0.0417
    147  CE2      210.2010  277.9620  -28.9240 C.ar  182  TYR182      0.0417
    148  CZ       209.3750  278.3110  -29.9680 C.ar  182  TYR182      0.1957
    149  OH       208.0410  277.9790  -29.9070 O.3   182  TYR182     -0.2866
    150  N        208.4470  278.0520  -36.0830 N.3   199  GLU199     -0.1245
    151  CA       207.1030  278.5670  -36.2960 C.3   199  GLU199      0.1567
    152  C        207.2210  279.8980  -37.0240 C.2   199  GLU199      0.2260
    153  O        208.3110  280.4620  -37.1550 O.2   199  GLU199     -0.2867
    154  CB       206.3600  278.7350  -34.9670 C.3   199  GLU199      0.0388
    155  CG       207.0090  279.7580  -34.0430 C.3   199  GLU199      0.1160
    156  CD       206.6300  279.5680  -32.5880 C.2   199  GLU199      0.3649
    157  OE1      206.4980  280.5840  -31.8730 O.co2 199  GLU199     -0.2457
    158  OE2      206.4660  278.4060  -32.1580 O.co2 199  GLU199     -0.2457
    159  N        205.0770  285.1790  -34.1250 N.3   202  THR202     -0.1203
    160  CA       203.8270  285.7250  -33.6160 C.3   202  THR202      0.1994
    161  C        204.0230  286.8800  -32.6440 C.2   202  THR202      0.2618
    162  O        203.0350  287.5180  -32.2640 O.2   202  THR202     -0.2717
    163  CB       202.9900  284.6320  -32.9300 C.3   202  THR202      0.1784
    164  OG1      203.5940  284.2700  -31.6820 O.3   202  THR202     -0.2211
    165  CG2      202.8810  283.4020  -33.8140 C.3   202  THR202      0.0376
    166  N        205.2570  287.1660  -32.2310 N.am  203  SER203     -0.1951
    167  CA       205.5120  288.2620  -31.3060 C.3   203  SER203      0.1924
    168  C        205.7720  289.5830  -32.0130 C.2   203  SER203      0.2314
    169  O        205.7370  290.6320  -31.3630 O.2   203  SER203     -0.2863
    170  CB       206.6960  287.9280  -30.3890 C.3   203  SER203      0.2116
    171  OG       207.8660  287.6550  -31.1370 O.3   203  SER203     -0.2180
    172  N        202.0680  297.0320  -34.7770 N.3   211  ASP211     -0.1239
    173  CA       201.9390  295.9950  -33.7570 C.3   211  ASP211      0.1674
    174  C        200.4780  295.6890  -33.4540 C.2   211  ASP211      0.2266
    175  O        200.1160  294.5320  -33.2010 O.2   211  ASP211     -0.2867
    176  CB       202.6620  296.4200  -32.4790 C.3   211  ASP211      0.1410
    177  CG       204.1620  296.5080  -32.6580 C.2   211  ASP211      0.3668
    178  OD1      204.6520  296.2140  -33.7680 O.co2 211  ASP211     -0.2456
    179  OD2      204.8530  296.8740  -31.6840 O.co2 211  ASP211     -0.2456
    180  N        196.1590  293.9040  -35.7080 N.3   214  PHE214     -0.1241
    181  CA       195.0370  293.0090  -35.4480 C.3   214  PHE214      0.1605
    182  C        193.7770  293.8000  -35.1140 C.2   214  PHE214      0.2264
    183  O        192.6660  293.4010  -35.4820 O.2   214  PHE214     -0.2867
    184  CB       195.3780  292.0510  -34.3030 C.3   214  PHE214      0.0534
    185  CG       196.1710  290.8420  -34.7230 C.ar  214  PHE214     -0.0203
    186  CD1      196.5620  290.6670  -36.0400 C.ar  214  PHE214     -0.0042
    187  CD2      196.5180  289.8720  -33.7910 C.ar  214  PHE214     -0.0042
    188  CE1      197.2900  289.5520  -36.4220 C.ar  214  PHE214     -0.0003
    189  CE2      197.2450  288.7540  -34.1670 C.ar  214  PHE214     -0.0003
    190  CZ       197.6320  288.5950  -35.4870 C.ar  214  PHE214     -0.0000
@<TRIPOS>BOND
     1   128   127    2
     2   153   152    2
     3   152   151    1
     4   130   131    1
     5    94    93    2
     6   127   126    1
     7   188   186   ar
     8   188   190   ar
     9   151   150    1
    10   151   154    1
    11    93    92    1
    12   186   185   ar
    13   180   181    1
    14   133   132    2
    15   131   132    1
    16   131   134    1
    17   126   125    1
    18   126   129    1
    19   190   189   ar
    20   183   182    2
    21   181   182    1
    22   181   184    1
    23   136   135    1
    24   154   155    1
    25    95    92    1
    26    95    96    1
    27    92    91    1
    28   172   173    1
    29   185   184    1
    30   185   187   ar
    31   134   135    1
    32   189   187   ar
    33   159   160    1
    34   155   156    1
    35   135   137    1
    36   165   163    1
    37   178   177   ar
    38   173   174    1
    39   173   176    1
    40   160   163    1
    41   160   161    1
    42    96    97   ar
    43    96    98   ar
    44   174   175    2
    45    97    99   ar
    46   121   120    2
    47   163   164    1
    48   177   176    1
    49   177   179   ar
    50   161   162    2
    51   161   166   am
    52   156   158   ar
    53   156   157   ar
    54    98   100   ar
    55   138   139    1
    56   166   167    1
    57   120   119    1
    58    99   101   ar
    59   168   169    2
    60   168   167    1
    61   167   170    1
    62   100   101   ar
    63   171   170    1
    64   101   102    1
    65   144   146   ar
    66   144   143   ar
    67   146   148   ar
    68   119   118    1
    69   119   122    1
    70   139   140    1
    71   139   142    1
    72   104   107    1
    73   104   103    1
    74   104   105    1
    75   106   105    2
    76   141   140    2
    77   107   108    1
    78   105   111   am
    79   124   122    1
    80   142   143    1
    81   143   145   ar
    82   148   149    1
    83   148   147   ar
    84   122   123    1
    85   108   110   ar
    86   108   109   ar
    87   111   112    1
    88   145   147   ar
    89   113   112    1
    90   113   114    2
    91   112   115    1
    92    70    68    1
    93    12    11    1
    94    69    68    1
    95    68    67    2
    96    11    10   ar
    97    11     9   ar
    98    10     8   ar
    99    89    90    2
   100    89    88    1
   101    59    57   ar
   102   115   116    1
   103   115   117    1
   104     9     7   ar
   105    88    87    1
   106     8     6   ar
   107    67    66    1
   108     7     6   ar
   109    57    58   ar
   110    57    56    1
   111     6     5    1
   112    66    65    1
   113     5     2    1
   114    56    53    1
   115    20    18   ar
   116    65    64    1
   117     2     1    1
   118     2     3    1
   119    18    19   ar
   120    18    17    1
   121    53    54    1
   122    53    52    1
   123    55    54    2
   124    17    14    1
   125    86    84   am
   126    64    61    1
   127    14    13    1
   128    14    15    1
   129    85    84    2
   130    29    27   ar
   131    29    30   ar
   132    63    62    2
   133     3     4    2
   134    62    61    1
   135    52    45   am
   136    84    83    1
   137    27    26   ar
   138    61    60    1
   139    32    30   ar
   140    32    34   ar
   141    30    28   ar
   142    15    21   am
   143    15    16    2
   144    42    40    1
   145    78    76    1
   146    45    46    2
   147    45    44    1
   148    38    37    2
   149    21    22    1
   150    83    80    1
   151    77    75    1
   152    26    28   ar
   153    26    25    1
   154    40    39    1
   155    40    41    1
   156    34    33   ar
   157    28    31   ar
   158    80    79    1
   159    80    81    1
   160    24    23    2
   161    44    43    1
   162    44    47    1
   163    39    36    1
   164    37    43   am
   165    37    36    1
   166    76    75    1
   167    75    72    1
   168    25    22    1
   169    22    23    1
   170    82    81    2
   171    33    31   ar
   172    36    35    1
   173    47    48    1
   174    72    71    1
   175    72    73    1
   176    48    49    1
   177    74    73    2
   178    49    51   ar
   179    49    50   ar
