@<TRIPOS>MOLECULE
tmp/6mn4D00.pdb
 156 152 0 0 0
SMALL
GASTEIGER

@<TRIPOS>ATOM
      1  N        -23.5750   18.2880  -57.7850 N.3    64  TRP64      -0.1241
      2  CA       -22.8100   17.4220  -58.6670 C.3    64  TRP64       0.1605
      3  C        -22.9290   15.9670  -58.2250 C.2    64  TRP64       0.2264
      4  O        -23.2890   15.6590  -57.0850 O.2    64  TRP64      -0.2867
      5  CB       -21.3420   17.8500  -58.7230 C.3    64  TRP64       0.0550
      6  CG       -20.6390   17.9250  -57.4060 C.ar   64  TRP64       0.0003
      7  CD1      -20.2500   16.8800  -56.6210 C.ar   64  TRP64       0.0946
      8  CD2      -20.2100   19.1140  -56.7340 C.ar   64  TRP64       0.0152
      9  NE1      -19.6160   17.3450  -55.4920 N.ar   64  TRP64      -0.2442
     10  CE2      -19.5780   18.7140  -55.5390 C.ar   64  TRP64       0.0810
     11  CE3      -20.3010   20.4790  -57.0250 C.ar   64  TRP64       0.0012
     12  CZ2      -19.0430   19.6290  -54.6360 C.ar   64  TRP64       0.0191
     13  CZ3      -19.7670   21.3860  -56.1260 C.ar   64  TRP64       0.0001
     14  CH2      -19.1470   20.9570  -54.9470 C.ar   64  TRP64       0.0015
     15  N        -20.3840   13.5000  -58.6010 N.3    66  GLY66      -0.1225
     16  CA       -19.1590   12.8380  -58.2050 C.3    66  GLY66       0.1811
     17  C        -18.7970   11.6160  -59.0180 C.2    66  GLY66       0.2280
     18  O        -17.8230   10.9340  -58.6770 O.2    66  GLY66      -0.2866
     19  N        -17.2630   10.0390  -62.3160 N.3    68  ASP68      -0.1239
     20  CA       -16.4030   10.3690  -63.4430 C.3    68  ASP68       0.1674
     21  C        -16.4630    9.3310  -64.5550 C.2    68  ASP68       0.2266
     22  O        -15.8260    9.5210  -65.5950 O.2    68  ASP68      -0.2867
     23  CB       -14.9550   10.5460  -62.9730 C.3    68  ASP68       0.1410
     24  CG       -14.5200    9.4670  -62.0030 C.2    68  ASP68       0.3668
     25  OD1      -13.2960    9.2780  -61.8360 O.co2  68  ASP68      -0.2456
     26  OD2      -15.4010    8.8090  -61.4090 O.co2  68  ASP68      -0.2456
     27  N        -20.4860   18.7340  -63.0940 N.3   103  PHE103     -0.1241
     28  CA       -20.1520   19.7260  -62.0750 C.3   103  PHE103      0.1605
     29  C        -21.3400   20.6140  -61.7340 C.2   103  PHE103      0.2264
     30  O        -21.1600   21.7830  -61.3760 O.2   103  PHE103     -0.2867
     31  CB       -18.9810   20.5930  -62.5340 C.3   103  PHE103      0.0534
     32  CG       -17.8730   19.8150  -63.1580 C.ar  103  PHE103     -0.0203
     33  CD1      -17.3660   20.1800  -64.3950 C.ar  103  PHE103     -0.0042
     34  CD2      -17.3440   18.7070  -62.5190 C.ar  103  PHE103     -0.0042
     35  CE1      -16.3480   19.4570  -64.9780 C.ar  103  PHE103     -0.0003
     36  CE2      -16.3260   17.9780  -63.0980 C.ar  103  PHE103     -0.0003
     37  CZ       -15.8320   18.3530  -64.3320 C.ar  103  PHE103     -0.0000
     38  N        -13.4820   22.3410  -63.1650 N.3   124  PRO124     -0.2102
     39  CA       -14.8510   22.3680  -62.6180 C.3   124  PRO124      0.1504
     40  C        -15.2860   23.7150  -62.0590 C.2   124  PRO124      0.2575
     41  O        -16.3180   24.2590  -62.4660 O.2   124  PRO124     -0.2718
     42  CB       -14.7980   21.3100  -61.5100 C.3   124  PRO124      0.0282
     43  CG       -13.8060   20.3300  -62.0000 C.3   124  PRO124      0.0208
     44  CD       -12.7650   21.1120  -62.7750 C.3   124  PRO124      0.0893
     45  N        -14.5090   24.2590  -61.1260 N.am  125  HIS125     -0.1976
     46  CA       -14.8230   25.5500  -60.5150 C.3   125  HIS125      0.1656
     47  C        -14.0970   26.6740  -61.2560 C.2   125  HIS125      0.2291
     48  O        -13.2830   27.4160  -60.7100 O.2   125  HIS125     -0.2864
     49  CB       -14.4730   25.5210  -59.0320 C.3   125  HIS125      0.0771
     50  CG       -15.0010   24.3130  -58.3220 C.ar  125  HIS125      0.0820
     51  ND1      -16.2280   23.7570  -58.6170 N.ar  125  HIS125     -0.2267
     52  CD2      -14.4630   23.5420  -57.3470 C.ar  125  HIS125      0.1154
     53  CE1      -16.4270   22.7010  -57.8490 C.ar  125  HIS125      0.1986
     54  NE2      -15.3720   22.5490  -57.0690 N.ar  125  HIS125     -0.2212
     55  N        -13.4280   23.5980  -45.7290 N.3   149  ASP149     -0.1239
     56  CA       -13.0490   22.4540  -46.5490 C.3   149  ASP149      0.1674
     57  C        -14.0770   22.1590  -47.6340 C.2   149  ASP149      0.2266
     58  O        -13.7280   21.5620  -48.6560 O.2   149  ASP149     -0.2867
     59  CB       -12.8440   21.2160  -45.6720 C.3   149  ASP149      0.1410
     60  CG       -14.0440   20.9160  -44.7900 C.2   149  ASP149      0.3668
     61  OD1      -14.7460   21.8680  -44.3860 O.co2 149  ASP149     -0.2456
     62  OD2      -14.2850   19.7260  -44.4990 O.co2 149  ASP149     -0.2456
     63  N        -16.5030   25.8080  -51.7650 N.3   152  THR152     -0.1218
     64  CA       -16.1090   25.6460  -53.1610 C.3   152  THR152      0.1862
     65  C        -15.5700   26.9450  -53.7500 C.2   152  THR152      0.2287
     66  O        -14.6760   26.9160  -54.6040 O.2   152  THR152     -0.2866
     67  CB       -17.3010   25.1310  -53.9670 C.3   152  THR152      0.1770
     68  OG1      -17.6140   23.7990  -53.5430 O.3   152  THR152     -0.2211
     69  CG2      -16.9930   25.1180  -55.4550 C.3   152  THR152      0.0375
     70  N         -4.0830   15.4110  -63.1710 N.3   168  PRO168     -0.2102
     71  CA        -5.1280   15.0160  -64.1270 C.3   168  PRO168      0.1504
     72  C         -6.2680   14.2260  -63.4980 C.2   168  PRO168      0.2576
     73  O         -6.0580   13.3300  -62.6760 O.2   168  PRO168     -0.2718
     74  CB        -4.3660   14.1620  -65.1480 C.3   168  PRO168      0.0282
     75  CG        -3.1100   13.7500  -64.4490 C.3   168  PRO168      0.0208
     76  CD        -2.7610   14.9160  -63.5880 C.3   168  PRO168      0.0893
     77  N         -7.4910   14.5880  -63.8920 N.am  169  ARG169     -0.1966
     78  CA        -8.6990   13.8230  -63.6160 C.3   169  ARG169      0.1729
     79  C         -9.6190   13.9400  -64.8250 C.2   169  ARG169      0.2616
     80  O         -9.4380   14.8120  -65.6780 O.2   169  ARG169     -0.2715
     81  CB        -9.3930   14.3100  -62.3420 C.3   169  ARG169      0.0348
     82  CG        -8.4130   14.6960  -61.2530 C.3   169  ARG169      0.0492
     83  CD        -8.4750   13.7120  -60.1210 C.3   169  ARG169      0.2205
     84  NE        -9.6540   14.0330  -59.3420 N.pl3 169  ARG169     -0.0865
     85  CZ        -9.6080   14.5550  -58.1280 C.cat 169  ARG169      0.5346
     86  NH1       -8.4460   14.7890  -57.5460 N.pl3 169  ARG169      0.1354
     87  NH2      -10.7250   14.8560  -57.4980 N.pl3 169  ARG169      0.1354
     88  N        -10.5990   13.0420  -64.9070 N.am  170  HIS170     -0.1973
     89  CA       -11.4690   12.9530  -66.0740 C.3   170  HIS170      0.1656
     90  C        -12.9330   13.0240  -65.6510 C.2   170  HIS170      0.2291
     91  O        -13.2610   13.0800  -64.4610 O.2   170  HIS170     -0.2864
     92  CB       -11.2050   11.6650  -66.8620 C.3   170  HIS170      0.0771
     93  CG       -11.5900   10.4200  -66.1270 C.ar  170  HIS170      0.0820
     94  ND1      -10.7460    9.7910  -65.2380 N.ar  170  HIS170     -0.2267
     95  CD2      -12.7270    9.6850  -66.1510 C.ar  170  HIS170      0.1154
     96  CE1      -11.3450    8.7210  -64.7470 C.ar  170  HIS170      0.1986
     97  NE2      -12.5490    8.6350  -65.2830 N.ar  170  HIS170     -0.2212
     98  N        -14.5110   10.2580  -72.8420 N.3   181  ARG181     -0.1245
     99  CA       -13.7480   10.6080  -71.6510 C.3   181  ARG181      0.1563
    100  C        -13.0730   11.9560  -71.8710 C.2   181  ARG181      0.2260
    101  O        -12.3290   12.1320  -72.8430 O.2   181  ARG181     -0.2867
    102  CB       -12.7120    9.5310  -71.3250 C.3   181  ARG181      0.0307
    103  CG       -11.7190    9.9340  -70.2470 C.3   181  ARG181      0.0489
    104  CD       -11.1650    8.7230  -69.5150 C.3   181  ARG181      0.2205
    105  NE       -10.0340    9.0790  -68.6630 N.pl3 181  ARG181     -0.0865
    106  CZ        -9.5530    8.3050  -67.6960 C.cat 181  ARG181      0.5346
    107  NH1      -10.1050    7.1230  -67.4520 N.pl3 181  ARG181      0.1354
    108  NH2       -8.5200    8.7130  -66.9700 N.pl3 181  ARG181      0.1354
    109  N         -7.0180   19.3210  -62.6780 N.3   186  GLU186     -0.1245
    110  CA        -7.7700   19.9720  -61.6130 C.3   186  GLU186      0.1567
    111  C         -6.8550   20.2970  -60.4400 C.2   186  GLU186      0.2260
    112  O         -6.0080   19.4860  -60.0530 O.2   186  GLU186     -0.2867
    113  CB        -8.9340   19.0940  -61.1360 C.3   186  GLU186      0.0388
    114  CG        -9.6900   19.6700  -59.9390 C.3   186  GLU186      0.1160
    115  CD       -11.1320   19.2100  -59.8700 C.2   186  GLU186      0.3649
    116  OE1      -11.9650   19.9570  -59.3150 O.co2 186  GLU186     -0.2457
    117  OE2      -11.4340   18.1020  -60.3610 O.co2 186  GLU186     -0.2457
    118  N         -7.0490   20.0300  -57.4090 N.3   188  ASP188     -0.1225
    119  CA        -7.6450   19.3890  -56.2470 C.3   188  ASP188      0.1805
    120  C         -6.5760   18.9730  -55.2460 C.2   188  ASP188      0.2598
    121  O         -5.5490   18.3950  -55.6170 O.2   188  ASP188     -0.2718
    122  CB        -8.4700   18.1750  -56.6730 C.3   188  ASP188      0.1424
    123  CG        -9.1120   17.4630  -55.4950 C.2   188  ASP188      0.3668
    124  OD1       -9.5940   18.1470  -54.5630 O.co2 188  ASP188     -0.2456
    125  OD2       -9.1350   16.2140  -55.5040 O.co2 188  ASP188     -0.2456
    126  N         -6.8300   19.2650  -53.9730 N.am  189  HIS189     -0.1961
    127  CA        -5.9670   18.8520  -52.8810 C.3   189  HIS189      0.1787
    128  C         -6.8370   18.5690  -51.6630 C.2   189  HIS189      0.2620
    129  O         -8.0650   18.6810  -51.7210 O.2   189  HIS189     -0.2715
    130  CB        -4.9120   19.9130  -52.5860 C.3   189  HIS189      0.0785
    131  CG        -5.4710   21.2780  -52.3460 C.ar  189  HIS189      0.0821
    132  ND1       -6.1520   21.6130  -51.1950 N.ar  189  HIS189     -0.2267
    133  CD2       -5.4400   22.3990  -53.1040 C.ar  189  HIS189      0.1154
    134  CE1       -6.5240   22.8790  -51.2590 C.ar  189  HIS189      0.1986
    135  NE2       -6.1040   23.3790  -52.4070 N.ar  189  HIS189     -0.2212
    136  N         -6.1830   18.2020  -50.5530 N.am  190  CYS190     -0.1954
    137  CA        -6.8880   17.7030  -49.3710 C.3   190  CYS190      0.1843
    138  C         -8.0510   18.5980  -48.9640 C.2   190  CYS190      0.2625
    139  O         -9.0820   18.1100  -48.4840 O.2   190  CYS190     -0.2714
    140  CB        -5.9210   17.5830  -48.1980 C.3   190  CYS190      0.0997
    141  SG        -5.5930   19.1830  -47.4150 S.3   190  CYS190     -0.0797
    142  N         -7.8880   19.9120  -49.1250 N.am  191  CYS191     -0.1968
    143  CA        -8.7960   20.9740  -48.6950 C.3   191  CYS191      0.1712
    144  C         -8.9290   21.0540  -47.1790 C.2   191  CYS191      0.2296
    145  O         -9.6890   21.8980  -46.6860 O.2   191  CYS191     -0.2864
    146  CB       -10.2000   20.8460  -49.3060 C.3   191  CYS191      0.0983
    147  SG       -10.2450   20.8140  -51.1140 S.3   191  CYS191     -0.0798
    148  N         -2.8130   12.7470  -50.8270 N.3   250  GLU250     -0.1245
    149  CA        -3.5310   13.6080  -51.7620 C.3   250  GLU250      0.1567
    150  C         -2.8590   14.9660  -51.8630 C.2   250  GLU250      0.2260
    151  O         -2.8080   15.5780  -52.9390 O.2   250  GLU250     -0.2867
    152  CB        -4.9870   13.7580  -51.3040 C.3   250  GLU250      0.0388
    153  CG        -5.8760   14.5390  -52.2620 C.3   250  GLU250      0.1160
    154  CD        -7.2410   14.8510  -51.6790 C.2   250  GLU250      0.3649
    155  OE1       -7.7680   14.0120  -50.9230 O.co2 250  GLU250     -0.2457
    156  OE2       -7.8040   15.9140  -52.0080 O.co2 250  GLU250     -0.2457
@<TRIPOS>BOND
     1   101   100    2
     2    98    99    1
     3   100    99    1
     4    99   102    1
     5   102   103    1
     6   103   104    1
     7   104   105    1
     8   105   106    2
     9   106   107    1
    10   106   108    1
    11    92    93    1
    12    92    89    1
    13    95    93   ar
    14    95    97   ar
    15    93    94   ar
    16    89    90    1
    17    89    88    1
    18    80    79    2
    19    90    91    2
    20    22    21    2
    21    97    96   ar
    22    94    96   ar
    23    74    75    1
    24    74    71    1
    25    35    33   ar
    26    35    37   ar
    27    88    79   am
    28    79    78    1
    29    21    20    1
    30    75    76    1
    31    33    32   ar
    32    37    36   ar
    33    71    72    1
    34    71    70    1
    35    77    78    1
    36    77    72   am
    37    78    81    1
    38    76    70    1
    39    72    73    2
    40    20    23    1
    41    20    19    1
    42    38    44    1
    43    38    39    1
    44    32    31    1
    45    32    34   ar
    46    36    34   ar
    47    27    28    1
    48    23    24    1
    49    44    43    1
    50   109   110    1
    51    39    40    1
    52    39    42    1
    53    31    28    1
    54    41    40    2
    55    81    82    1
    56    28    29    1
    57    40    45   am
    58    24    25   ar
    59    24    26   ar
    60    43    42    1
    61    29    30    2
    62   110   113    1
    63   110   111    1
    64    47    48    2
    65    47    46    1
    66    82    83    1
    67   113   114    1
    68    45    46    1
    69    46    49    1
    70   111   112    2
    71   117   115   ar
    72    83    84    1
    73   114   115    1
    74   115   116   ar
    75    84    85    2
    76    49    50    1
    77    17    18    2
    78    17    16    1
    79     5     2    1
    80     5     6    1
    81     2     3    1
    82     2     1    1
    83    51    50   ar
    84    51    53   ar
    85    15    16    1
    86    50    52   ar
    87     3     4    2
    88    85    86    1
    89    85    87    1
    90    53    54   ar
    91   118   119    1
    92     6     8   ar
    93     6     7   ar
    94    52    54   ar
    95    11     8   ar
    96    11    13   ar
    97     8    10   ar
    98   122   119    1
    99   122   123    1
   100     7     9   ar
   101   119   120    1
   102    13    14   ar
   103   121   120    2
   104    10     9   ar
   105    10    12   ar
   106   125   123   ar
   107   123   124   ar
   108    69    67    1
   109   120   126   am
   110    14    12   ar
   111    66    65    2
   112   126   127    1
   113    67    68    1
   114    67    64    1
   115    65    64    1
   116    64    63    1
   117   133   135   ar
   118   133   131   ar
   119   151   150    2
   120   127   130    1
   121   127   128    1
   122   130   131    1
   123   135   134   ar
   124   131   132   ar
   125   153   154    1
   126   153   152    1
   127   156   154   ar
   128   150   149    1
   129   149   152    1
   130   149   148    1
   131   129   128    2
   132   154   155   ar
   133   128   136   am
   134   134   132   ar
   135   147   146    1
   136   136   137    1
   137   137   138    1
   138   137   140    1
   139   146   143    1
   140   142   138   am
   141   142   143    1
   142   138   139    2
   143   143   144    1
   144    58    57    2
   145   140   141    1
   146    57    56    1
   147   144   145    2
   148    56    55    1
   149    56    59    1
   150    59    60    1
   151    60    62   ar
   152    60    61   ar
