@<TRIPOS>MOLECULE
tmp/6mn5D00.pdb
 170 167 0 0 0
SMALL
GASTEIGER

@<TRIPOS>ATOM
      1  N         23.1570   17.4410   57.7800 N.3    65  TRP65      -0.1241
      2  CA        22.4210   16.5370   58.6490 C.3    65  TRP65       0.1605
      3  C         22.6050   15.0840   58.2060 C.2    65  TRP65       0.2264
      4  O         23.0640   14.7880   57.0990 O.2    65  TRP65      -0.2867
      5  CB        20.9400   16.9110   58.6850 C.3    65  TRP65       0.0550
      6  CG        20.2920   17.0460   57.3510 C.ar   65  TRP65       0.0003
      7  CD1       19.9120   16.0360   56.5170 C.ar   65  TRP65       0.0946
      8  CD2       19.9210   18.2650   56.7010 C.ar   65  TRP65       0.0152
      9  NE1       19.3350   16.5520   55.3820 N.ar   65  TRP65      -0.2442
     10  CE2       19.3290   17.9200   55.4710 C.ar   65  TRP65       0.0810
     11  CE3       20.0380   19.6170   57.0370 C.ar   65  TRP65       0.0012
     12  CZ2       18.8560   18.8750   54.5770 C.ar   65  TRP65       0.0191
     13  CZ3       19.5660   20.5640   56.1480 C.ar   65  TRP65       0.0001
     14  CH2       18.9840   20.1890   54.9330 C.ar   65  TRP65       0.0015
     15  N         20.1010   12.4920   58.3790 N.3    67  GLY67      -0.1210
     16  CA        18.9660   11.8080   57.8040 C.3    67  GLY67       0.1956
     17  C         18.5700   10.5240   58.4970 C.2    67  GLY67       0.2612
     18  O         17.7400    9.7820   57.9600 O.2    67  GLY67      -0.2717
     19  N         19.1300   10.2370   59.6700 N.am   68  LEU68      -0.1965
     20  CA        18.8510    9.0100   60.4060 C.3    68  LEU68       0.1728
     21  C         18.0390    9.3460   61.6520 C.2    68  LEU68       0.2616
     22  O         18.5010   10.1050   62.5110 O.2    68  LEU68      -0.2715
     23  CB        20.1480    8.2970   60.7850 C.3    68  LEU68       0.0311
     24  CG        20.9950    7.7640   59.6280 C.3    68  LEU68       0.0022
     25  CD1       22.2780    7.1430   60.1540 C.3    68  LEU68       0.0001
     26  CD2       20.2080    6.7580   58.8020 C.3    68  LEU68       0.0001
     27  N         16.8370    8.7760   61.7500 N.am   69  ASP69      -0.1971
     28  CA        15.9630    9.0530   62.8840 C.3    69  ASP69       0.1709
     29  C         16.2870    8.2050   64.1050 C.2    69  ASP69       0.2293
     30  O         15.8440    8.5400   65.2080 O.2    69  ASP69      -0.2864
     31  CB        14.4990    8.8260   62.4980 C.3    69  ASP69       0.1436
     32  CG        14.1080    9.5530   61.2300 C.2    69  ASP69       0.3671
     33  OD1       14.7530   10.5700   60.9040 O.co2  69  ASP69      -0.2456
     34  OD2       13.1500    9.1070   60.5620 O.co2  69  ASP69      -0.2456
     35  N         21.4310   12.1600   50.1050 N.3    83  ASP83      -0.1239
     36  CA        20.6520   13.0750   49.2790 C.3    83  ASP83       0.1674
     37  C         21.2500   14.4750   49.2250 C.2    83  ASP83       0.2266
     38  O         20.8900   15.2510   48.3340 O.2    83  ASP83      -0.2867
     39  CB        19.2140   13.1450   49.7880 C.3    83  ASP83       0.1410
     40  CG        18.5560   11.7840   49.8530 C.2    83  ASP83       0.3668
     41  OD1       18.1830   11.3540   50.9650 O.co2  83  ASP83      -0.2456
     42  OD2       18.4180   11.1430   48.7900 O.co2  83  ASP83      -0.2456
     43  N         20.3560   17.5210   62.9140 N.3   104  PHE104     -0.1241
     44  CA        19.9800   18.4740   61.8710 C.3   104  PHE104      0.1605
     45  C         21.1110   19.4490   61.5810 C.2   104  PHE104      0.2264
     46  O         20.8840   20.6330   61.3130 O.2   104  PHE104     -0.2867
     47  CB        18.7090   19.2180   62.2670 C.3   104  PHE104      0.0534
     48  CG        17.6320   18.3230   62.8090 C.ar  104  PHE104     -0.0203
     49  CD1       17.2140   17.2120   62.0940 C.ar  104  PHE104     -0.0042
     50  CD2       17.0430   18.5860   64.0340 C.ar  104  PHE104     -0.0042
     51  CE1       16.2250   16.3830   62.5880 C.ar  104  PHE104     -0.0003
     52  CE2       16.0520   17.7600   64.5350 C.ar  104  PHE104     -0.0003
     53  CZ        15.6420   16.6570   63.8110 C.ar  104  PHE104     -0.0000
     54  N         13.4410   21.0640   62.7860 N.3   125  PRO125     -0.2102
     55  CA        14.8470   21.2360   62.3770 C.3   125  PRO125      0.1504
     56  C         15.1840   22.6120   61.8260 C.2   125  PRO125      0.2575
     57  O         16.2520   23.1500   62.1420 O.2   125  PRO125     -0.2718
     58  CB        15.0270   20.1490   61.3090 C.3   125  PRO125      0.0282
     59  CG        14.0600   19.0970   61.6850 C.3   125  PRO125      0.0208
     60  CD        12.8710   19.8050   62.2730 C.3   125  PRO125      0.0893
     61  N         14.3110   23.2000   61.0130 N.am  126  HIS126     -0.1976
     62  CA        14.5930   24.4610   60.3360 C.3   126  HIS126      0.1656
     63  C         13.8310   25.6180   60.9680 C.2   126  HIS126      0.2291
     64  O         13.3550   26.5270   60.2850 O.2   126  HIS126     -0.2864
     65  CB        14.2870   24.3400   58.8500 C.3   126  HIS126      0.0771
     66  CG        15.0300   23.2230   58.1960 C.ar  126  HIS126      0.0820
     67  ND1       16.3050   22.8670   58.5780 N.ar  126  HIS126     -0.2267
     68  CD2       14.6750   22.3610   57.2150 C.ar  126  HIS126      0.1154
     69  CE1       16.7110   21.8430   57.8490 C.ar  126  HIS126      0.1986
     70  NE2       15.7410   21.5170   57.0140 N.ar  126  HIS126     -0.2212
     71  N         13.3000   22.9050   45.6060 N.3   150  ASP150     -0.1225
     72  CA        12.8880   21.8190   46.4880 C.3   150  ASP150      0.1805
     73  C         13.9710   21.4660   47.4980 C.2   150  ASP150      0.2597
     74  O         13.6680   20.8540   48.5280 O.2   150  ASP150     -0.2718
     75  CB        12.5090   20.5830   45.6710 C.3   150  ASP150      0.1424
     76  CG        13.5190   20.2680   44.5880 C.2   150  ASP150      0.3668
     77  OD1       14.1590   21.2110   44.0790 O.co2 150  ASP150     -0.2456
     78  OD2       13.6740   19.0770   44.2460 O.co2 150  ASP150     -0.2456
     79  N         15.2200   21.8340   47.2240 N.am  151  ALA151     -0.1979
     80  CA        16.3140   21.6830   48.1710 C.3   151  ALA151      0.1597
     81  C         16.6730   22.9970   48.8520 C.2   151  ALA151      0.2287
     82  O         17.6650   23.0550   49.5870 O.2   151  ALA151     -0.2864
     83  CB        17.5410   21.0990   47.4680 C.3   151  ALA151      0.0319
     84  N          7.4100   13.0890   63.2620 N.3   170  ARG170     -0.1231
     85  CA         8.7980   12.7550   62.9870 C.3   170  ARG170      0.1694
     86  C          9.5480   12.6730   64.3090 C.2   170  ARG170      0.2592
     87  O          9.2190   13.3730   65.2700 O.2   170  ARG170     -0.2718
     88  CB         9.4620   13.7870   62.0640 C.3   170  ARG170      0.0321
     89  CG         8.7490   13.9900   60.7350 C.3   170  ARG170      0.0489
     90  CD         9.0750   12.8710   59.7610 C.3   170  ARG170      0.2205
     91  NE         7.9830   11.9160   59.6160 N.pl3 170  ARG170     -0.0865
     92  CZ         7.1480   11.8900   58.5830 C.cat 170  ARG170      0.5346
     93  NH1        7.2810   12.7720   57.6000 N.pl3 170  ARG170      0.1354
     94  NH2        6.1810   10.9840   58.5320 N.pl3 170  ARG170      0.1354
     95  N         10.5580   11.8090   64.3550 N.am  171  HIS171     -0.1962
     96  CA        11.3470   11.6300   65.5640 C.3   171  HIS171      0.1787
     97  C         12.8240   11.5790   65.2060 C.2   171  HIS171      0.2620
     98  O         13.2000   11.3190   64.0610 O.2   171  HIS171     -0.2715
     99  CB        10.9430   10.3570   66.3200 C.3   171  HIS171      0.0785
    100  CG        11.3950    9.0930   65.6570 C.ar  171  HIS171      0.0821
    101  ND1       10.6610    8.4650   64.6740 N.ar  171  HIS171     -0.2267
    102  CD2       12.5070    8.3410   65.8340 C.ar  171  HIS171      0.1154
    103  CE1       11.3000    7.3800   64.2750 C.ar  171  HIS171      0.1986
    104  NE2       12.4240    7.2820   64.9630 N.ar  171  HIS171     -0.2212
    105  N         13.6610   11.8370   66.2080 N.am  172  CYS172     -0.1968
    106  CA        15.1040   11.7300   66.0660 C.3   172  CYS172      0.1712
    107  C         15.6730   11.1200   67.3390 C.2   172  CYS172      0.2296
    108  O         14.9610   10.9060   68.3240 O.2   172  CYS172     -0.2864
    109  CB        15.7490   13.0910   65.7690 C.3   172  CYS172      0.0983
    110  SG        15.9010   14.1930   67.1890 S.3   172  CYS172     -0.0798
    111  N          8.6430   15.0070   67.5600 N.3   185  TYR185     -0.1241
    112  CA         8.2050   16.3330   67.1540 C.3   185  TYR185      0.1605
    113  C          7.2950   16.1970   65.9400 C.2   185  TYR185      0.2264
    114  O          7.0990   15.1050   65.4020 O.2   185  TYR185     -0.2867
    115  CB         9.3980   17.2530   66.8470 C.3   185  TYR185      0.0534
    116  CG        10.3130   16.7510   65.7480 C.ar  185  TYR185     -0.0201
    117  CD1       11.2370   15.7400   65.9890 C.ar  185  TYR185     -0.0009
    118  CD2       10.2590   17.2950   64.4710 C.ar  185  TYR185     -0.0009
    119  CE1       12.0760   15.2820   64.9890 C.ar  185  TYR185      0.0417
    120  CE2       11.0950   16.8440   63.4630 C.ar  185  TYR185      0.0417
    121  CZ        12.0010   15.8380   63.7280 C.ar  185  TYR185      0.1957
    122  OH        12.8350   15.3840   62.7310 O.3   185  TYR185     -0.2866
    123  N          6.7670   17.8020   62.1100 N.3   187  GLU187     -0.1245
    124  CA         7.4900   18.5330   61.0810 C.3   187  GLU187      0.1567
    125  C          6.5410   18.9920   59.9810 C.2   187  GLU187      0.2260
    126  O          5.5280   18.3460   59.7020 O.2   187  GLU187     -0.2867
    127  CB         8.5970   17.6660   60.4760 C.3   187  GLU187      0.0388
    128  CG         9.8760   18.4140   60.1530 C.3   187  GLU187      0.1160
    129  CD        10.7700   17.6370   59.2120 C.2   187  GLU187      0.3649
    130  OE1       10.4940   16.4420   58.9920 O.co2 187  GLU187     -0.2457
    131  OE2       11.7450   18.2180   58.6940 O.co2 187  GLU187     -0.2457
    132  N          6.7500   18.6100   56.9690 N.3   189  ASP189     -0.1225
    133  CA         7.2870   17.8830   55.8290 C.3   189  ASP189      0.1805
    134  C          6.2010   17.5630   54.8080 C.2   189  ASP189      0.2598
    135  O          5.1190   17.0820   55.1610 O.2   189  ASP189     -0.2718
    136  CB         7.9610   16.5950   56.2970 C.3   189  ASP189      0.1424
    137  CG         8.3900   15.7150   55.1450 C.2   189  ASP189      0.3668
    138  OD1        9.2700   16.1450   54.3710 O.co2 189  ASP189     -0.2456
    139  OD2        7.8460   14.6000   55.0090 O.co2 189  ASP189     -0.2456
    140  N          6.4990   17.8340   53.5370 N.am  190  HIS190     -0.1961
    141  CA         5.6850   17.3650   52.4230 C.3   190  HIS190      0.1787
    142  C          6.6030   16.9350   51.2860 C.2   190  HIS190      0.2620
    143  O          7.7550   16.5590   51.5250 O.2   190  HIS190     -0.2715
    144  CB         4.7050   18.4450   51.9610 C.3   190  HIS190      0.0785
    145  CG         5.2870   19.8230   51.9340 C.ar  190  HIS190      0.0821
    146  ND1        6.1090   20.2640   50.9190 N.ar  190  HIS190     -0.2267
    147  CD2        5.1630   20.8610   52.7940 C.ar  190  HIS190      0.1154
    148  CE1        6.4680   21.5130   51.1560 C.ar  190  HIS190      0.1986
    149  NE2        5.9070   21.8990   52.2880 N.ar  190  HIS190     -0.2212
    150  N          6.1120   16.9890   50.0480 N.am  191  CYS191     -0.1954
    151  CA         6.9210   16.5600   48.9140 C.3   191  CYS191      0.1843
    152  C          7.9520   17.6010   48.4960 C.2   191  CYS191      0.2625
    153  O          8.8730   17.2660   47.7410 O.2   191  CYS191     -0.2714
    154  CB         6.0210   16.2180   47.7240 C.3   191  CYS191      0.0997
    155  SG         5.3140   17.6520   46.8830 S.3   191  CYS191     -0.0797
    156  N          7.8050   18.8490   48.9490 N.am  192  CYS192     -0.1968
    157  CA         8.7380   19.9380   48.6650 C.3   192  CYS192      0.1712
    158  C          8.8050   20.2840   47.1810 C.2   192  CYS192      0.2296
    159  O          9.5270   21.2070   46.7920 O.2   192  CYS192     -0.2864
    160  CB        10.1420   19.5980   49.1770 C.3   192  CYS192      0.0983
    161  SG        10.3390   19.6640   50.9680 S.3   192  CYS192     -0.0798
    162  N          2.5640   12.3120   50.5200 N.3   251  GLU251     -0.1245
    163  CA         3.2130   13.1480   51.5310 C.3   251  GLU251      0.1567
    164  C          2.5680   14.5240   51.6790 C.2   251  GLU251      0.2260
    165  O          2.5260   15.0790   52.7820 O.2   251  GLU251     -0.2867
    166  CB         4.7000   13.3050   51.2170 C.3   251  GLU251      0.0388
    167  CG         5.3160   12.1180   50.5090 C.3   251  GLU251      0.1160
    168  CD         6.6950   12.4290   49.9740 C.2   251  GLU251      0.3649
    169  OE1        6.8850   12.3490   48.7420 O.co2 251  GLU251     -0.2457
    170  OE2        7.5860   12.7560   50.7870 O.co2 251  GLU251     -0.2457
@<TRIPOS>BOND
     1    77    76   ar
     2    78    76   ar
     3    76    75    1
     4    71    72    1
     5    75    72    1
     6    72    73    1
     7   159   158    2
     8   155   154    1
     9   158   157    1
    10    79    73   am
    11    79    80    1
    12    83    80    1
    13    73    74    2
    14   154   151    1
    15   153   152    2
    16    80    81    1
    17    38    37    2
    18   152   151    1
    19   152   156   am
    20   157   156    1
    21   157   160    1
    22   169   168   ar
    23    42    40   ar
    24    81    82    2
    25   151   150    1
    26   160   161    1
    27    37    36    1
    28    36    39    1
    29    36    35    1
    30    39    40    1
    31    40    41   ar
    32   168   167    1
    33   168   170   ar
    34   150   142   am
    35   167   166    1
    36   162   163    1
    37   146   148   ar
    38   146   145   ar
    39   148   149   ar
    40   166   163    1
    41   142   143    2
    42   142   141    1
    43   163   164    1
    44   164   165    2
    45   145   144    1
    46   145   147   ar
    47   144   141    1
    48   149   147   ar
    49   141   140    1
    50   140   134   am
    51   138   137   ar
    52    12    14   ar
    53    12    10   ar
    54   134   135    2
    55   134   133    1
    56    14    13   ar
    57   139   137   ar
    58   137   136    1
    59     9    10   ar
    60     9     7   ar
    61    10     8   ar
    62   133   136    1
    63   133   132    1
    64    13    11   ar
    65     7     6   ar
    66     8    11   ar
    67     8     6   ar
    68    70    68   ar
    69    70    69   ar
    70     4     3    2
    71    68    66   ar
    72     6     5    1
    73    93    92    1
    74     1     2    1
    75    16    15    1
    76    16    17    1
    77    69    67   ar
    78    18    17    2
    79    66    67   ar
    80    66    65    1
    81     3     2    1
    82    17    19   am
    83    94    92    1
    84    92    91    2
    85     2     5    1
    86   131   129   ar
    87    26    24    1
    88    65    62    1
    89   130   129   ar
    90   129   128    1
    91    91    90    1
    92    24    25    1
    93    24    23    1
    94    19    20    1
    95   126   125    2
    96    90    89    1
    97   125   124    1
    98   128   127    1
    99    64    63    2
   100    62    63    1
   101    62    61    1
   102    20    23    1
   103    20    21    1
   104   127   124    1
   105    34    32   ar
   106    89    88    1
   107    33    32   ar
   108    61    56   am
   109   124   123    1
   110    32    31    1
   111    58    59    1
   112    58    55    1
   113    46    45    2
   114    45    44    1
   115    21    27   am
   116    21    22    2
   117    59    60    1
   118    27    28    1
   119    56    57    2
   120    56    55    1
   121    44    47    1
   122    44    43    1
   123    88    85    1
   124    49    51   ar
   125    49    48   ar
   126    47    48    1
   127    60    54    1
   128    55    54    1
   129    31    28    1
   130    51    53   ar
   131   122   121    1
   132    48    50   ar
   133    28    29    1
   134    85    84    1
   135    85    86    1
   136   120   121   ar
   137   120   118   ar
   138   121   119   ar
   139    53    52   ar
   140    50    52   ar
   141    98    97    2
   142    29    30    2
   143   103   101   ar
   144   103   104   ar
   145    86    95   am
   146    86    87    2
   147    95    96    1
   148   118   116   ar
   149   101   100   ar
   150   104   102   ar
   151   119   117   ar
   152    97    96    1
   153    97   105   am
   154   114   113    2
   155    96    99    1
   156   100   102   ar
   157   100    99    1
   158   116   117   ar
   159   116   115    1
   160   109   106    1
   161   109   110    1
   162   113   112    1
   163   106   105    1
   164   106   107    1
   165   115   112    1
   166   112   111    1
   167   107   108    2
