@<TRIPOS>MOLECULE
tmp/6mn5D02.pdb
 93 91 0 0 0
SMALL
GASTEIGER

@<TRIPOS>ATOM
      1  N         24.1620   21.7120   46.6510 N.3    31  SER31      -0.1202
      2  CA        24.8580   21.3130   45.4380 C.3    31  SER31       0.2020
      3  C         24.4890   19.8970   45.0230 C.2    31  SER31       0.2619
      4  O         24.2030   19.0330   45.8570 O.2    31  SER31      -0.2717
      5  CB        26.3790   21.4060   45.6150 C.3    31  SER31       0.2103
      6  OG        26.7880   20.7460   46.8010 O.3    31  SER31      -0.2182
      7  N         24.5020   19.6770   43.7100 N.am   32  SER32      -0.1937
      8  CA        24.4100   18.3490   43.1090 C.3    32  SER32       0.2055
      9  C         25.6200   18.2100   42.1920 C.2    32  SER32       0.2643
     10  O         25.5970   18.6910   41.0550 O.2    32  SER32      -0.2714
     11  CB        23.1050   18.1650   42.3440 C.3    32  SER32       0.2130
     12  OG        23.2040   17.0840   41.4330 O.3    32  SER32      -0.2179
     13  N         26.6750   17.5580   42.6930 N.am   33  PHE33      -0.1959
     14  CA        27.9260   17.4790   41.9450 C.3    33  PHE33       0.1771
     15  C         27.7420   16.7880   40.6000 C.2    33  PHE33       0.2619
     16  O         28.5140   17.0320   39.6670 O.2    33  PHE33      -0.2715
     17  CB        28.9910   16.7560   42.7700 C.3    33  PHE33       0.0574
     18  CG        30.3720   16.8650   42.1970 C.ar   33  PHE33      -0.0200
     19  CD1       31.0420   18.0770   42.2010 C.ar   33  PHE33      -0.0042
     20  CD2       30.9960   15.7600   41.6390 C.ar   33  PHE33      -0.0042
     21  CE1       32.3120   18.1860   41.6640 C.ar   33  PHE33      -0.0003
     22  CE2       32.2660   15.8610   41.1020 C.ar   33  PHE33      -0.0003
     23  CZ        32.9250   17.0760   41.1130 C.ar   33  PHE33      -0.0000
     24  N         26.7250   15.9320   40.4790 N.am   34  ARG34      -0.1977
     25  CA        26.4270   15.2860   39.2070 C.3    34  ARG34       0.1597
     26  C         26.1010   16.2950   38.1130 C.2    34  ARG34       0.2287
     27  O         26.2670   15.9850   36.9290 O.2    34  ARG34      -0.2864
     28  CB        25.2660   14.3100   39.3880 C.3    34  ARG34       0.0334
     29  CG        25.1140   13.2950   38.2750 C.3    34  ARG34       0.0492
     30  CD        23.9640   12.3490   38.5720 C.3    34  ARG34       0.2205
     31  NE        22.8310   13.0520   39.1660 N.pl3  34  ARG34      -0.0865
     32  CZ        22.0210   12.5270   40.0790 C.cat  34  ARG34       0.5346
     33  NH1       22.2180   11.2880   40.5070 N.pl3  34  ARG34       0.1354
     34  NH2       21.0150   13.2420   40.5640 N.pl3  34  ARG34       0.1354
     35  N         29.8870   18.6520   37.8340 N.3    37  ARG37      -0.1245
     36  CA        31.0400   17.9650   37.2750 C.3    37  ARG37       0.1563
     37  C         30.9640   17.9290   35.7470 C.2    37  ARG37       0.2260
     38  O         29.8870   18.0810   35.1660 O.2    37  ARG37      -0.2867
     39  CB        31.1170   16.5450   37.8380 C.3    37  ARG37       0.0307
     40  CG        30.0960   15.5900   37.2440 C.3    37  ARG37       0.0489
     41  CD        30.0360   14.2960   38.0340 C.3    37  ARG37       0.2205
     42  NE        31.3650   13.7370   38.2550 N.pl3  37  ARG37      -0.0865
     43  CZ        31.5920   12.5510   38.8070 C.cat  37  ARG37       0.5346
     44  NH1       30.5760   11.7930   39.1970 N.pl3  37  ARG37       0.1354
     45  NH2       32.8360   12.1220   38.9660 N.pl3  37  ARG37       0.1354
     46  N         22.9450   10.7280   51.9850 N.3    82  PRO82      -0.2102
     47  CA        23.3870   10.7530   50.5810 C.3    82  PRO82       0.1504
     48  C         22.6380   11.7470   49.7110 C.2    82  PRO82       0.2576
     49  O         23.1700   12.1560   48.6710 O.2    82  PRO82      -0.2718
     50  CB        23.1440    9.3110   50.1130 C.3    82  PRO82       0.0282
     51  CG        23.1240    8.4960   51.3730 C.3    82  PRO82       0.0208
     52  CD        22.5220    9.3850   52.4140 C.3    82  PRO82       0.0893
     53  N         21.4310   12.1600   50.1050 N.am   83  ASP83      -0.1960
     54  CA        20.6520   13.0750   49.2790 C.3    83  ASP83       0.1840
     55  C         21.2500   14.4750   49.2250 C.2    83  ASP83       0.2622
     56  O         20.8900   15.2510   48.3340 O.2    83  ASP83      -0.2715
     57  CB        19.2140   13.1450   49.7880 C.3    83  ASP83       0.1450
     58  CG        18.5560   11.7840   49.8530 C.2    83  ASP83       0.3671
     59  OD1       18.1830   11.3540   50.9650 O.co2  83  ASP83      -0.2456
     60  OD2       18.4180   11.1430   48.7900 O.co2  83  ASP83      -0.2456
     61  N         22.1470   14.8200   50.1510 N.am   84  LEU84      -0.1963
     62  CA        22.7660   16.1390   50.1340 C.3    84  LEU84       0.1728
     63  C         23.9790   16.2160   49.2160 C.2    84  LEU84       0.2617
     64  O         24.4300   17.3260   48.9110 O.2    84  LEU84      -0.2715
     65  CB        23.1620   16.5590   51.5520 C.3    84  LEU84       0.0311
     66  CG        22.0000   16.9490   52.4710 C.3    84  LEU84       0.0022
     67  CD1       22.5020   17.5310   53.7840 C.3    84  LEU84       0.0001
     68  CD2       21.0610   17.9280   51.7760 C.3    84  LEU84       0.0001
     69  N         24.5150   15.0840   48.7760 N.am   85  GLY85      -0.1940
     70  CA        25.5600   15.0750   47.7760 C.3    85  GLY85       0.2014
     71  C         26.9500   14.9010   48.3710 C.2    85  GLY85       0.2639
     72  O         27.1860   15.1060   49.5640 O.2    85  GLY85      -0.2714
     73  N         27.8900   14.5250   47.4990 N.am   86  VAL86      -0.1963
     74  CA        29.2680   14.2860   47.9190 C.3    86  VAL86       0.1727
     75  C         29.9220   15.5680   48.4180 C.2    86  VAL86       0.2616
     76  O         30.7740   15.5300   49.3160 O.2    86  VAL86      -0.2715
     77  CB        30.0680   13.6560   46.7600 C.3    86  VAL86       0.0290
     78  CG1       29.9970   14.5360   45.5180 C.3    86  VAL86       0.0023
     79  CG2       31.5170   13.4100   47.1690 C.3    86  VAL86       0.0023
     80  N         29.5330   16.7180   47.8620 N.am   87  VAL87      -0.1977
     81  CA        30.1690   17.9810   48.2340 C.3    87  VAL87       0.1596
     82  C         29.9510   18.2710   49.7140 C.2    87  VAL87       0.2287
     83  O         30.8910   18.6110   50.4420 O.2    87  VAL87      -0.2864
     84  CB        29.6460   19.1270   47.3490 C.3    87  VAL87       0.0276
     85  CG1       30.1880   20.4670   47.8310 C.3    87  VAL87       0.0022
     86  CG2       30.0290   18.8890   45.9030 C.3    87  VAL87       0.0022
     87  N         20.5110   22.2350   41.7200 N.3   147  VAL147     -0.1245
     88  CA        19.3030   21.7890   42.3980 C.3   147  VAL147      0.1561
     89  C         18.2760   22.9080   42.3380 C.2   147  VAL147      0.2260
     90  O         18.6200   24.0920   42.2750 O.2   147  VAL147     -0.2867
     91  CB        19.5720   21.3740   43.8660 C.3   147  VAL147      0.0252
     92  CG1       20.4750   20.1490   43.9200 C.3   147  VAL147      0.0019
     93  CG2       20.1830   22.5300   44.6490 C.3   147  VAL147      0.0019
@<TRIPOS>BOND
     1    38    37    2
     2    37    36    1
     3    27    26    2
     4    40    39    1
     5    40    41    1
     6    36    35    1
     7    36    39    1
     8    41    42    1
     9    26    25    1
    10    42    43    2
    11    29    30    1
    12    29    28    1
    13    30    31    1
    14    43    45    1
    15    43    44    1
    16    31    32    2
    17    25    28    1
    18    25    24    1
    19    16    15    2
    20    32    33    1
    21    32    34    1
    22    24    15   am
    23    15    14    1
    24    10     9    2
    25    22    23   ar
    26    22    20   ar
    27    23    21   ar
    28    12    11    1
    29    20    18   ar
    30    21    19   ar
    31    87    88    1
    32    14    13    1
    33    14    17    1
    34     9    13   am
    35     9     8    1
    36    18    19   ar
    37    18    17    1
    38    90    89    2
    39    89    88    1
    40    11     8    1
    41    88    91    1
    42     8     7    1
    43     7     3   am
    44    91    92    1
    45    91    93    1
    46     3     2    1
    47     3     4    2
    48     2     5    1
    49     2     1    1
    50    78    77    1
    51     5     6    1
    52    86    84    1
    53    77    79    1
    54    77    74    1
    55    84    85    1
    56    84    81    1
    57    73    74    1
    58    73    71   am
    59    70    71    1
    60    70    69    1
    61    80    81    1
    62    80    75   am
    63    74    75    1
    64    81    82    1
    65    56    55    2
    66    71    72    2
    67    75    76    2
    68    49    48    2
    69    69    63   am
    70    60    58   ar
    71    64    63    2
    72    63    62    1
    73    55    54    1
    74    55    61   am
    75    54    57    1
    76    54    53    1
    77    48    53   am
    78    48    47    1
    79    82    83    2
    80    57    58    1
    81    58    59   ar
    82    50    47    1
    83    50    51    1
    84    62    61    1
    85    62    65    1
    86    47    46    1
    87    51    52    1
    88    65    66    1
    89    68    66    1
    90    46    52    1
    91    66    67    1
