@<TRIPOS>MOLECULE
tmp/6mn8A01.pdb
 173 169 0 0 0
SMALL
GASTEIGER

@<TRIPOS>ATOM
      1  N        -24.6110  -31.8140   12.5170 N.3    83  PHE83      -0.1241
      2  CA       -25.4400  -32.7230   13.3110 C.3    83  PHE83       0.1605
      3  C        -24.6070  -33.6880   14.1700 C.2    83  PHE83       0.2264
      4  O        -25.0120  -34.0290   15.2820 O.2    83  PHE83      -0.2867
      5  CB       -26.3790  -33.5280   12.3990 C.3    83  PHE83       0.0534
      6  CG       -27.6570  -32.8060   12.0320 C.ar   83  PHE83      -0.0203
      7  CD1      -28.1700  -31.7990   12.8440 C.ar   83  PHE83      -0.0042
      8  CD2      -28.3520  -33.1490   10.8740 C.ar   83  PHE83      -0.0042
      9  CE1      -29.3500  -31.1420   12.5030 C.ar   83  PHE83      -0.0003
     10  CE2      -29.5310  -32.5000   10.5270 C.ar   83  PHE83      -0.0003
     11  CZ       -30.0320  -31.4960   11.3430 C.ar   83  PHE83      -0.0000
     12  N        -30.6950  -36.8070   21.3720 N.3   138  ARG138     -0.1245
     13  CA       -29.8360  -35.8260   20.7280 C.3   138  ARG138      0.1563
     14  C        -29.0250  -35.1750   21.8340 C.2   138  ARG138      0.2260
     15  O        -29.5990  -34.6380   22.7850 O.2   138  ARG138     -0.2867
     16  CB       -30.6580  -34.7820   19.9500 C.3   138  ARG138      0.0307
     17  CG       -31.5090  -35.3890   18.8520 C.3   138  ARG138      0.0489
     18  CD       -32.4160  -34.3820   18.1740 C.3   138  ARG138      0.2205
     19  NE       -33.2300  -35.0270   17.1440 N.pl3 138  ARG138     -0.0865
     20  CZ       -34.0290  -34.3730   16.3080 C.cat 138  ARG138      0.5346
     21  NH1      -34.1410  -33.0550   16.3930 N.pl3 138  ARG138      0.1354
     22  NH2      -34.7270  -35.0380   15.3970 N.pl3 138  ARG138      0.1354
     23  N        -27.8650  -32.4910   22.8360 N.3   140  GLU140     -0.1245
     24  CA       -28.0460  -31.0940   22.4650 C.3   140  GLU140      0.1567
     25  C        -26.9230  -30.2590   23.0560 C.2   140  GLU140      0.2260
     26  O        -26.6300  -30.3590   24.2500 O.2   140  GLU140     -0.2867
     27  CB       -29.4130  -30.5830   22.9620 C.3   140  GLU140      0.0388
     28  CG       -30.6360  -31.3630   22.4450 C.3   140  GLU140      0.1160
     29  CD       -31.0830  -30.9180   21.0420 C.2   140  GLU140      0.3649
     30  OE1      -30.6130  -29.8660   20.5810 O.co2 140  GLU140     -0.2457
     31  OE2      -31.9220  -31.5990   20.4080 O.co2 140  GLU140     -0.2457
     32  N        -26.8020  -26.7220   22.7160 N.3   142  LYS142     -0.1245
     33  CA       -27.4630  -25.6200   23.4000 C.3   142  LYS142      0.1561
     34  C        -27.9330  -26.1110   24.7660 C.2   142  LYS142      0.2260
     35  O        -27.9810  -27.3170   25.0330 O.2   142  LYS142     -0.2867
     36  CB       -28.6300  -25.0750   22.5710 C.3   142  LYS142      0.0271
     37  CG       -28.3360  -24.5850   21.1620 C.3   142  LYS142      0.0035
     38  CD       -29.5950  -24.4200   20.3330 C.3   142  LYS142      0.0206
     39  CE       -29.1140  -24.0660   18.9420 C.3   142  LYS142      0.1093
     40  NZ       -30.1950  -24.1730   17.9950 N.3   142  LYS142     -0.1314
     41  N        -38.6870  -30.4150   29.0390 N.3   147  PHE147     -0.1227
     42  CA       -39.6940  -30.4190   27.9790 C.3   147  PHE147      0.1736
     43  C        -39.2150  -29.7200   26.7070 C.2   147  PHE147      0.2595
     44  O        -39.2330  -30.3250   25.6340 O.2   147  PHE147     -0.2718
     45  CB       -41.0120  -29.7880   28.4610 C.3   147  PHE147      0.0547
     46  CG       -41.6350  -30.5110   29.6280 C.ar  147  PHE147     -0.0202
     47  CD1      -42.1270  -31.7990   29.4780 C.ar  147  PHE147     -0.0042
     48  CD2      -41.6970  -29.9160   30.8730 C.ar  147  PHE147     -0.0042
     49  CE1      -42.6870  -32.4780   30.5450 C.ar  147  PHE147     -0.0003
     50  CE2      -42.2650  -30.5910   31.9530 C.ar  147  PHE147     -0.0003
     51  CZ       -42.7590  -31.8740   31.7800 C.ar  147  PHE147     -0.0000
     52  N        -38.7820  -28.4580   26.8080 N.am  148  LEU148     -0.1966
     53  CA       -38.5350  -27.6640   25.6070 C.3   148  LEU148      0.1728
     54  C        -37.3450  -28.1950   24.8170 C.2   148  LEU148      0.2616
     55  O        -37.4250  -28.3380   23.5920 O.2   148  LEU148     -0.2715
     56  CB       -38.3300  -26.1910   25.9800 C.3   148  LEU148      0.0311
     57  CG       -39.5470  -25.4520   26.5520 C.3   148  LEU148      0.0022
     58  CD1      -39.1690  -24.0490   27.0040 C.3   148  LEU148      0.0001
     59  CD2      -40.7430  -25.4190   25.5660 C.3   148  LEU148      0.0001
     60  N        -36.2290  -28.4930   25.4930 N.am  149  ARG149     -0.1963
     61  CA       -35.0480  -29.0260   24.7980 C.3   149  ARG149      0.1729
     62  C        -34.3470  -30.0250   25.7250 C.2   149  ARG149      0.2616
     63  O        -33.5150  -29.6480   26.5580 O.2   149  ARG149     -0.2715
     64  CB       -34.0990  -27.9190   24.3570 C.3   149  ARG149      0.0348
     65  CG       -32.9270  -28.4540   23.5100 C.3   149  ARG149      0.0492
     66  CD       -32.0160  -27.3400   23.0090 C.3   149  ARG149      0.2205
     67  NE       -32.7600  -26.3490   22.2300 N.pl3 149  ARG149     -0.0865
     68  CZ       -33.1940  -26.5170   20.9780 C.cat 149  ARG149      0.5346
     69  NH1      -32.9710  -27.6560   20.3100 N.pl3 149  ARG149      0.1354
     70  NH2      -33.8690  -25.5370   20.3940 N.pl3 149  ARG149      0.1354
     71  N        -34.6830  -31.2980   25.5540 N.am  150  THR150     -0.1951
     72  CA       -34.1670  -32.3790   26.3760 C.3   150  THR150      0.1897
     73  C        -33.3060  -33.2910   25.5140 C.2   150  THR150      0.2313
     74  O        -33.4450  -33.3240   24.2880 O.2   150  THR150     -0.2863
     75  CB       -35.3180  -33.1620   27.0240 C.3   150  THR150      0.1794
     76  OG1      -36.0950  -33.8020   26.0090 O.3   150  THR150     -0.2208
     77  CG2      -36.2390  -32.2070   27.7860 C.3   150  THR150      0.0378
     78  N        -36.0150  -37.3850   24.4850 N.3   153  PHE153     -0.1241
     79  CA       -37.4060  -36.9710   24.4960 C.3   153  PHE153      0.1605
     80  C        -38.2680  -38.0190   23.8110 C.2   153  PHE153      0.2264
     81  O        -37.7990  -38.8270   23.0060 O.2   153  PHE153     -0.2867
     82  CB       -37.6150  -35.5720   23.8610 C.3   153  PHE153      0.0534
     83  CG       -37.0390  -35.3970   22.4550 C.ar  153  PHE153     -0.0203
     84  CD1      -37.8500  -35.5420   21.3270 C.ar  153  PHE153     -0.0042
     85  CD2      -35.7230  -34.9920   22.2690 C.ar  153  PHE153     -0.0042
     86  CE1      -37.3420  -35.3190   20.0400 C.ar  153  PHE153     -0.0003
     87  CE2      -35.2000  -34.7850   20.9830 C.ar  153  PHE153     -0.0003
     88  CZ       -36.0190  -34.9440   19.8690 C.ar  153  PHE153     -0.0000
     89  N        -41.4750  -38.7350   21.3090 N.3   155  TRP155     -0.1241
     90  CA       -42.1980  -38.1340   20.2050 C.3   155  TRP155      0.1605
     91  C        -42.9760  -39.2270   19.4760 C.2   155  TRP155      0.2264
     92  O        -42.9770  -40.3920   19.8810 O.2   155  TRP155     -0.2867
     93  CB       -41.2220  -37.3680   19.2890 C.3   155  TRP155      0.0550
     94  CG       -40.3350  -38.1780   18.3360 C.ar  155  TRP155      0.0003
     95  CD1      -40.2490  -39.5450   18.2110 C.ar  155  TRP155      0.0946
     96  CD2      -39.4200  -37.6340   17.3660 C.ar  155  TRP155      0.0152
     97  NE1      -39.3450  -39.8750   17.2140 N.ar  155  TRP155     -0.2442
     98  CE2      -38.8180  -38.7220   16.6940 C.ar  155  TRP155      0.0810
     99  CE3      -39.0560  -36.3280   17.0020 C.ar  155  TRP155      0.0012
    100  CZ2      -37.8670  -38.5440   15.6800 C.ar  155  TRP155      0.0191
    101  CZ3      -38.1080  -36.1490   15.9970 C.ar  155  TRP155      0.0001
    102  CH2      -37.5320  -37.2590   15.3390 C.ar  155  TRP155      0.0015
    103  N        -41.0210  -23.4990   18.1220 N.3   216  GLN216     -0.1231
    104  CA       -41.2560  -24.3990   16.9990 C.3   216  GLN216      0.1698
    105  C        -41.9570  -25.6470   17.5230 C.2   216  GLN216      0.2593
    106  O        -41.3220  -26.5390   18.0880 O.2   216  GLN216     -0.2718
    107  CB       -39.9460  -24.7360   16.3030 C.3   216  GLN216      0.0381
    108  CG       -40.0980  -25.7350   15.1440 C.3   216  GLN216      0.0905
    109  CD       -38.7710  -26.3670   14.7690 C.2   216  GLN216      0.2608
    110  OE1      -38.4140  -27.4410   15.2590 O.2   216  GLN216     -0.2717
    111  NE2      -38.0150  -25.6810   13.9250 N.am  216  GLN216     -0.0878
    112  N        -43.2830  -25.7160   17.3430 N.am  217  GLY217     -0.1942
    113  CA       -44.0960  -26.6890   18.0830 C.3   217  GLY217      0.2014
    114  C        -44.2090  -28.0760   17.4720 C.2   217  GLY217      0.2639
    115  O        -44.5970  -29.0180   18.1810 O.2   217  GLY217     -0.2714
    116  N        -43.9010  -28.2230   16.1850 N.am  218  ALA218     -0.1963
    117  CA       -43.9730  -29.4940   15.4710 C.3   218  ALA218      0.1728
    118  C        -43.4030  -29.2430   14.0850 C.2   218  ALA218      0.2616
    119  O        -43.2690  -28.0960   13.6690 O.2   218  ALA218     -0.2715
    120  CB       -45.4060  -30.0420   15.3840 C.3   218  ALA218      0.0334
    121  N        -43.0570  -30.3180   13.3760 N.am  219  THR219     -0.1951
    122  CA       -42.4210  -30.1780   12.0670 C.3   219  THR219      0.1897
    123  C        -43.0240  -31.1620   11.0740 C.2   219  THR219      0.2313
    124  O        -43.1780  -32.3490   11.3850 O.2   219  THR219     -0.2863
    125  CB       -40.9080  -30.4090   12.1660 C.3   219  THR219      0.1794
    126  OG1      -40.3360  -29.4630   13.0740 O.3   219  THR219     -0.2208
    127  CG2      -40.2530  -30.2280   10.8060 C.3   219  THR219      0.0378
    128  N        -42.2570  -32.4060    7.1630 N.3   221  HIS221     -0.1241
    129  CA       -41.2910  -32.3470    6.0680 C.3   221  HIS221      0.1621
    130  C        -41.8780  -32.9610    4.8160 C.2   221  HIS221      0.2264
    131  O        -42.4050  -34.0750    4.8660 O.2   221  HIS221     -0.2867
    132  CB       -40.0110  -33.1110    6.3990 C.3   221  HIS221      0.0745
    133  CG       -39.0630  -32.3600    7.2630 C.ar  221  HIS221      0.0817
    134  ND1      -38.1560  -31.4570    6.7550 N.ar  221  HIS221     -0.2268
    135  CD2      -38.8730  -32.3790    8.6020 C.ar  221  HIS221      0.1154
    136  CE1      -37.4460  -30.9500    7.7470 C.ar  221  HIS221      0.1986
    137  NE2      -37.8640  -31.4900    8.8780 N.ar  221  HIS221     -0.2212
    138  N        -43.0920  -34.9690   12.8110 N.3   252  GLY252     -0.1210
    139  CA       -42.9430  -35.3110   14.2170 C.3   252  GLY252      0.1956
    140  C        -43.3690  -34.1940   15.1490 C.2   252  GLY252      0.2612
    141  O        -43.1900  -33.0040   14.8520 O.2   252  GLY252     -0.2717
    142  N        -43.9080  -34.5920   16.3080 N.am  253  ILE253     -0.1965
    143  CA       -44.1980  -33.7030   17.4290 C.3   253  ILE253      0.1727
    144  C        -43.7470  -34.4140   18.7020 C.2   253  ILE253      0.2617
    145  O        -43.8130  -35.6480   18.7990 O.2   253  ILE253     -0.2715
    146  CB       -45.7030  -33.3190   17.4900 C.3   253  ILE253      0.0290
    147  CG1      -45.9480  -32.1540   18.4500 C.3   253  ILE253      0.0022
    148  CG2      -46.5720  -34.5100   17.8860 C.3   253  ILE253      0.0023
    149  CD1      -47.3880  -31.5810   18.3620 C.3   253  ILE253      0.0001
    150  N        -43.2690  -33.6370   19.6810 N.am  254  SER254     -0.1936
    151  CA       -42.6360  -34.2080   20.8730 C.3   254  SER254      0.2055
    152  C        -43.2910  -33.7120   22.1630 C.2   254  SER254      0.2644
    153  O        -44.2540  -32.9330   22.1610 O.2   254  SER254     -0.2714
    154  CB       -41.1460  -33.8640   20.9280 C.3   254  SER254      0.2130
    155  OG       -40.9940  -32.4950   21.2870 O.3   254  SER254     -0.2179
    156  N        -42.7130  -34.1520   23.2890 N.am  255  THR255     -0.1936
    157  CA       -43.0920  -33.6370   24.6010 C.3   255  THR255      0.2028
    158  C        -42.7460  -32.1560   24.7820 C.2   255  THR255      0.2642
    159  O        -43.0700  -31.6040   25.8360 O.2   255  THR255     -0.2714
    160  CB       -42.4410  -34.4570   25.7280 C.3   255  THR255      0.1808
    161  OG1      -41.0530  -34.6900   25.4400 O.3   255  THR255     -0.2208
    162  CG2      -43.1780  -35.8080   25.9450 C.3   255  THR255      0.0379
    163  N        -42.1190  -31.4960   23.7960 N.am  256  ARG256     -0.1977
    164  CA       -42.0060  -30.0370   23.8490 C.3   256  ARG256      0.1597
    165  C        -43.3780  -29.3790   23.9810 C.2   256  ARG256      0.2287
    166  O        -43.4900  -28.2930   24.5660 O.2   256  ARG256     -0.2864
    167  CB       -41.2650  -29.5190   22.6090 C.3   256  ARG256      0.0334
    168  CG       -41.3410  -28.0050   22.3720 C.3   256  ARG256      0.0492
    169  CD       -40.5320  -27.5930   21.1380 C.3   256  ARG256      0.2205
    170  NE       -39.1000  -27.7790   21.3350 N.pl3 256  ARG256     -0.0865
    171  CZ       -38.1680  -27.5370   20.4140 C.cat 256  ARG256      0.5346
    172  NH1      -38.5040  -27.0930   19.2020 N.pl3 256  ARG256      0.1354
    173  NH2      -36.8930  -27.7470   20.7110 N.pl3 256  ARG256      0.1354
@<TRIPOS>BOND
     1   130   131    2
     2   130   129    1
     3   129   132    1
     4   129   128    1
     5   132   133    1
     6   134   133   ar
     7   134   136   ar
     8   133   135   ar
     9   136   137   ar
    10   135   137   ar
    11    10     8   ar
    12    10    11   ar
    13   127   125    1
    14     8     6   ar
    15   123   124    2
    16   123   122    1
    17    11     9   ar
    18     6     5    1
    19     6     7   ar
    20   122   125    1
    21   122   121    1
    22   125   126    1
    23     5     2    1
    24     9     7   ar
    25     1     2    1
    26   138   139    1
    27     2     3    1
    28   121   118   am
    29   119   118    2
    30   111   109   am
    31   118   117    1
    32     3     4    2
    33   139   140    1
    34   109   108    1
    35   109   110    2
    36   141   140    2
    37   108   107    1
    38   140   142   am
    39   102   100   ar
    40   102   101   ar
    41   120   117    1
    42    22    20    1
    43   117   116    1
    44   100    98   ar
    45   101    99   ar
    46   116   114   am
    47   107   104    1
    48   142   143    1
    49    20    21    1
    50    20    19    2
    51    98    97   ar
    52    98    96   ar
    53   104   105    1
    54   104   103    1
    55    99    96   ar
    56    19    18    1
    57    97    95   ar
    58   112   105   am
    59   112   113    1
    60    96    94   ar
    61   143   146    1
    62   143   144    1
    63   114   113    1
    64   114   115    2
    65   146   148    1
    66   146   147    1
    67   105   106    2
    68    40    39    1
    69    18    17    1
    70    95    94   ar
    71    94    93    1
    72   149   147    1
    73   144   145    2
    74   144   150   am
    75    17    16    1
    76    39    38    1
    77   172   171    1
    78    93    90    1
    79    91    92    2
    80    91    90    1
    81   150   151    1
    82    88    86   ar
    83    88    87   ar
    84    16    13    1
    85    86    84   ar
    86    90    89    1
    87    69    68    1
    88    38    37    1
    89    70    68    1
    90    31    29   ar
    91   171   173    1
    92   171   170    2
    93    30    29   ar
    94    13    12    1
    95    13    14    1
    96   151   154    1
    97   151   152    1
    98   154   155    1
    99    68    67    2
   100    87    85   ar
   101    29    28    1
   102   169   170    1
   103   169   168    1
   104    37    36    1
   105    84    83   ar
   106    14    15    2
   107   153   152    2
   108   152   156   am
   109    67    66    1
   110    85    83   ar
   111   168   167    1
   112    28    27    1
   113    83    82    1
   114    24    23    1
   115    24    27    1
   116    24    25    1
   117    36    33    1
   118   167   164    1
   119    32    33    1
   120    81    80    2
   121    66    65    1
   122    25    26    2
   123   156   157    1
   124    33    34    1
   125    65    64    1
   126    55    54    2
   127   163   164    1
   128   163   158   am
   129    80    79    1
   130   164   165    1
   131    82    79    1
   132   165   166    2
   133    74    73    2
   134    64    61    1
   135    78    79    1
   136   157   158    1
   137   157   160    1
   138    34    35    2
   139   158   159    2
   140    61    60    1
   141    61    62    1
   142    54    60   am
   143    54    53    1
   144   161   160    1
   145    73    72    1
   146    71    62   am
   147    71    72    1
   148    59    57    1
   149    53    56    1
   150    53    52    1
   151    44    43    2
   152    62    63    2
   153   160   162    1
   154    56    57    1
   155    76    75    1
   156    72    75    1
   157    57    58    1
   158    43    52   am
   159    43    42    1
   160    75    77    1
   161    42    45    1
   162    42    41    1
   163    45    46    1
   164    47    46   ar
   165    47    49   ar
   166    46    48   ar
   167    49    51   ar
   168    48    50   ar
   169    51    50   ar
