@<TRIPOS>MOLECULE
tmp/6mn8A00.pdb
 165 159 0 0 0
SMALL
GASTEIGER

@<TRIPOS>ATOM
      1  N        -25.7210  -44.0930    9.7440 N.3    79  LEU79      -0.1245
      2  CA       -26.1010  -42.7300   10.1140 C.3    79  LEU79       0.1561
      3  C        -25.4310  -41.7110    9.2040 C.2    79  LEU79       0.2260
      4  O        -26.0670  -40.7490    8.7670 O.2    79  LEU79      -0.2867
      5  CB       -25.7410  -42.4400   11.5760 C.3    79  LEU79       0.0270
      6  CG       -26.3080  -41.1470   12.1800 C.3    79  LEU79       0.0019
      7  CD1      -27.8410  -41.1280   12.0920 C.3    79  LEU79       0.0001
      8  CD2      -25.8570  -40.9260   13.6450 C.3    79  LEU79       0.0001
      9  N        -26.7490  -39.6120    5.4690 N.3    82  GLU82      -0.1245
     10  CA       -27.2470  -38.2490    5.6760 C.3    82  GLU82       0.1567
     11  C        -28.2330  -38.2220    6.8420 C.2    82  GLU82       0.2260
     12  O        -29.3820  -37.8060    6.6900 O.2    82  GLU82      -0.2867
     13  CB       -27.9150  -37.6990    4.4130 C.3    82  GLU82       0.0388
     14  CG       -28.4980  -36.3090    4.7040 C.3    82  GLU82       0.1160
     15  CD       -28.4640  -35.3190    3.5980 C.2    82  GLU82       0.3649
     16  OE1      -28.2940  -35.8410    2.4750 O.co2  82  GLU82      -0.2457
     17  OE2      -28.5560  -34.1550    3.7430 O.co2  82  GLU82      -0.2457
     18  N        -24.6110  -31.8140   12.5170 N.3    83  PHE83      -0.1227
     19  CA       -25.4400  -32.7230   13.3110 C.3    83  PHE83       0.1736
     20  C        -24.6070  -33.6880   14.1700 C.2    83  PHE83       0.2595
     21  O        -25.0120  -34.0290   15.2820 O.2    83  PHE83      -0.2718
     22  CB       -26.3790  -33.5280   12.3990 C.3    83  PHE83       0.0547
     23  CG       -27.6570  -32.8060   12.0320 C.ar   83  PHE83      -0.0202
     24  CD1      -28.1700  -31.7990   12.8440 C.ar   83  PHE83      -0.0042
     25  CD2      -28.3520  -33.1490   10.8740 C.ar   83  PHE83      -0.0042
     26  CE1      -29.3500  -31.1420   12.5030 C.ar   83  PHE83      -0.0003
     27  CE2      -29.5310  -32.5000   10.5270 C.ar   83  PHE83      -0.0003
     28  CZ       -30.0320  -31.4960   11.3430 C.ar   83  PHE83      -0.0000
     29  N        -23.4510  -34.1110   13.6470 N.am   84  ALA84      -0.1980
     30  CA       -22.6200  -35.1100   14.3230 C.3    84  ALA84       0.1597
     31  C        -22.3520  -34.8180   15.7960 C.2    84  ALA84       0.2287
     32  O        -22.4150  -35.7640   16.6020 O.2    84  ALA84      -0.2864
     33  CB       -21.2920  -35.2710   13.5660 C.3    84  ALA84       0.0319
     34  N        -24.1590  -34.1920   18.0360 N.3    86  GLU86      -0.1231
     35  CA       -25.3770  -34.3860   18.8130 C.3    86  GLU86       0.1699
     36  C        -25.7210  -35.8650   19.0010 C.2    86  GLU86       0.2592
     37  O        -26.8490  -36.1840   19.3670 O.2    86  GLU86      -0.2718
     38  CB       -26.5680  -33.6530   18.1730 C.3    86  GLU86       0.0402
     39  CG       -26.5810  -32.1310   18.3420 C.3    86  GLU86       0.1161
     40  CD       -27.9060  -31.4520   17.9060 C.2    86  GLU86       0.3649
     41  OE1      -28.8980  -32.1360   17.5120 O.co2  86  GLU86      -0.2457
     42  OE2      -27.9420  -30.2010   17.9690 O.co2  86  GLU86      -0.2457
     43  N        -24.7870  -36.7760   18.7760 N.am   87  VAL87      -0.1980
     44  CA       -25.0700  -38.2120   18.7720 C.3    87  VAL87       0.1595
     45  C        -24.4500  -38.8740   19.9960 C.2    87  VAL87       0.2287
     46  O        -23.2920  -38.6030   20.3380 O.2    87  VAL87      -0.2864
     47  CB       -24.5310  -38.8640   17.4840 C.3    87  VAL87       0.0276
     48  CG1      -24.7430  -40.3520   17.5140 C.3    87  VAL87       0.0022
     49  CG2      -25.2040  -38.2570   16.2830 C.3    87  VAL87       0.0022
     50  N        -31.1590  -40.3520   16.6320 N.3   106  PRO106     -0.2102
     51  CA       -31.6660  -38.9950   16.8630 C.3   106  PRO106      0.1504
     52  C        -32.9360  -38.7280   16.0840 C.2   106  PRO106      0.2576
     53  O        -33.5460  -37.6610   16.2540 O.2   106  PRO106     -0.2718
     54  CB       -30.5040  -38.0990   16.3540 C.3   106  PRO106      0.0282
     55  CG       -29.9340  -38.9110   15.1660 C.3   106  PRO106      0.0208
     56  CD       -30.1150  -40.3920   15.5820 C.3   106  PRO106      0.0893
     57  N        -33.2950  -39.6700   15.2130 N.am  107  THR107     -0.1953
     58  CA       -34.4400  -39.6720   14.3070 C.3   107  THR107      0.1897
     59  C        -34.2530  -40.9260   13.4500 C.2   107  THR107      0.2313
     60  O        -33.1430  -41.4660   13.3990 O.2   107  THR107     -0.2863
     61  CB       -34.5230  -38.3910   13.4690 C.3   107  THR107      0.1794
     62  OG1      -35.6970  -38.4350   12.6550 O.3   107  THR107     -0.2208
     63  CG2      -33.2690  -38.2070   12.5690 C.3   107  THR107      0.0378
     64  N        -35.0120  -41.9020    9.9940 N.3   109  GLU109     -0.1245
     65  CA       -34.8790  -42.0360    8.5380 C.3   109  GLU109      0.1567
     66  C        -33.8640  -43.1180    8.1470 C.2   109  GLU109      0.2260
     67  O        -34.1710  -44.0200    7.3580 O.2   109  GLU109     -0.2867
     68  CB       -34.4680  -40.6970    7.9060 C.3   109  GLU109      0.0388
     69  CG       -35.5770  -39.6280    7.7970 C.3   109  GLU109      0.1160
     70  CD       -35.7810  -38.8600    9.0920 C.2   109  GLU109      0.3649
     71  OE1      -35.1800  -39.2430   10.1070 O.co2 109  GLU109     -0.2457
     72  OE2      -36.5400  -37.8760    9.0990 O.co2 109  GLU109     -0.2457
     73  N        -30.6950  -36.8070   21.3720 N.3   138  ARG138     -0.1245
     74  CA       -29.8360  -35.8260   20.7280 C.3   138  ARG138      0.1563
     75  C        -29.0250  -35.1750   21.8340 C.2   138  ARG138      0.2260
     76  O        -29.5990  -34.6380   22.7850 O.2   138  ARG138     -0.2867
     77  CB       -30.6580  -34.7820   19.9500 C.3   138  ARG138      0.0307
     78  CG       -31.5090  -35.3890   18.8520 C.3   138  ARG138      0.0489
     79  CD       -32.4160  -34.3820   18.1740 C.3   138  ARG138      0.2205
     80  NE       -33.2300  -35.0270   17.1440 N.pl3 138  ARG138     -0.0865
     81  CZ       -34.0290  -34.3730   16.3080 C.cat 138  ARG138      0.5346
     82  NH1      -34.1410  -33.0550   16.3930 N.pl3 138  ARG138      0.1354
     83  NH2      -34.7270  -35.0380   15.3970 N.pl3 138  ARG138      0.1354
     84  N        -41.4750  -38.7350   21.3090 N.3   155  TRP155     -0.1241
     85  CA       -42.1980  -38.1340   20.2050 C.3   155  TRP155      0.1605
     86  C        -42.9760  -39.2270   19.4760 C.2   155  TRP155      0.2264
     87  O        -42.9770  -40.3920   19.8810 O.2   155  TRP155     -0.2867
     88  CB       -41.2220  -37.3680   19.2890 C.3   155  TRP155      0.0550
     89  CG       -40.3350  -38.1780   18.3360 C.ar  155  TRP155      0.0003
     90  CD1      -40.2490  -39.5450   18.2110 C.ar  155  TRP155      0.0946
     91  CD2      -39.4200  -37.6340   17.3660 C.ar  155  TRP155      0.0152
     92  NE1      -39.3450  -39.8750   17.2140 N.ar  155  TRP155     -0.2442
     93  CE2      -38.8180  -38.7220   16.6940 C.ar  155  TRP155      0.0810
     94  CE3      -39.0560  -36.3280   17.0020 C.ar  155  TRP155      0.0012
     95  CZ2      -37.8670  -38.5440   15.6800 C.ar  155  TRP155      0.0191
     96  CZ3      -38.1080  -36.1490   15.9970 C.ar  155  TRP155      0.0001
     97  CH2      -37.5320  -37.2590   15.3390 C.ar  155  TRP155      0.0015
     98  N        -42.8380  -40.0910   15.2020 N.3   157  GLU157     -0.1245
     99  CA       -42.3540  -39.7120   13.8880 C.3   157  GLU157      0.1567
    100  C        -43.1220  -40.5450   12.8740 C.2   157  GLU157      0.2260
    101  O        -43.1840  -41.7690   12.9950 O.2   157  GLU157     -0.2867
    102  CB       -40.8340  -39.9230   13.7670 C.3   157  GLU157      0.0388
    103  CG       -40.3510  -41.3230   14.1830 C.3   157  GLU157      0.1160
    104  CD       -38.8280  -41.4780   14.0810 C.2   157  GLU157      0.3649
    105  OE1      -38.2670  -41.0400   13.0660 O.co2 157  GLU157     -0.2457
    106  OE2      -38.1840  -42.0220   15.0110 O.co2 157  GLU157     -0.2457
    107  N        -43.5460  -41.5290    8.7840 N.3   159  HIS159     -0.1241
    108  CA       -42.7080  -41.6180    7.5840 C.3   159  HIS159      0.1621
    109  C        -43.5520  -42.2250    6.4760 C.2   159  HIS159      0.2264
    110  O        -43.9210  -43.4030    6.5500 O.2   159  HIS159     -0.2867
    111  CB       -41.4620  -42.4650    7.8340 C.3   159  HIS159      0.0745
    112  CG       -40.5190  -41.8690    8.8300 C.ar  159  HIS159      0.0817
    113  ND1      -39.4100  -41.1360    8.4600 N.ar  159  HIS159     -0.2268
    114  CD2      -40.5240  -41.8930   10.1860 C.ar  159  HIS159      0.1154
    115  CE1      -38.7700  -40.7400    9.5480 C.ar  159  HIS159      0.1986
    116  NE2      -39.4240  -41.1890   10.6080 N.ar  159  HIS159     -0.2212
    117  N        -43.0570  -30.3180   13.3760 N.3   219  THR219     -0.1218
    118  CA       -42.4210  -30.1780   12.0670 C.3   219  THR219      0.1862
    119  C        -43.0240  -31.1620   11.0740 C.2   219  THR219      0.2287
    120  O        -43.1780  -32.3490   11.3850 O.2   219  THR219     -0.2866
    121  CB       -40.9080  -30.4090   12.1660 C.3   219  THR219      0.1770
    122  OG1      -40.3360  -29.4630   13.0740 O.3   219  THR219     -0.2211
    123  CG2      -40.2530  -30.2280   10.8060 C.3   219  THR219      0.0375
    124  N        -42.2570  -32.4060    7.1630 N.3   221  HIS221     -0.1241
    125  CA       -41.2910  -32.3470    6.0680 C.3   221  HIS221      0.1621
    126  C        -41.8780  -32.9610    4.8160 C.2   221  HIS221      0.2264
    127  O        -42.4050  -34.0750    4.8660 O.2   221  HIS221     -0.2867
    128  CB       -40.0110  -33.1110    6.3990 C.3   221  HIS221      0.0745
    129  CG       -39.0630  -32.3600    7.2630 C.ar  221  HIS221      0.0817
    130  ND1      -38.1560  -31.4570    6.7550 N.ar  221  HIS221     -0.2268
    131  CD2      -38.8730  -32.3790    8.6020 C.ar  221  HIS221      0.1154
    132  CE1      -37.4460  -30.9500    7.7470 C.ar  221  HIS221      0.1986
    133  NE2      -37.8640  -31.4900    8.8780 N.ar  221  HIS221     -0.2212
    134  N        -40.0850  -34.4800    1.8180 N.3   223  LEU223     -0.1245
    135  CA       -38.7280  -34.8500    1.4460 C.3   223  LEU223      0.1561
    136  C        -38.5300  -34.9280   -0.0650 C.2   223  LEU223      0.2260
    137  O        -37.3890  -35.0690   -0.5170 O.2   223  LEU223     -0.2867
    138  CB       -38.3800  -36.1890    2.1020 C.3   223  LEU223      0.0270
    139  CG       -38.6770  -36.2140    3.6060 C.3   223  LEU223      0.0019
    140  CD1      -38.5320  -37.6140    4.1450 C.3   223  LEU223      0.0001
    141  CD2      -37.7590  -35.2420    4.3580 C.3   223  LEU223      0.0001
    142  N        -41.8600  -36.8780    6.1480 N.3   250  SER250     -0.1202
    143  CA       -41.7580  -37.2860    7.5420 C.3   250  SER250      0.2020
    144  C        -42.2350  -36.1330    8.4130 C.2   250  SER250      0.2619
    145  O        -42.2040  -34.9700    8.0090 O.2   250  SER250     -0.2717
    146  CB       -40.3370  -37.7020    7.9440 C.3   250  SER250      0.2103
    147  OG       -39.4770  -36.5840    7.9910 O.3   250  SER250     -0.2182
    148  N        -42.6910  -36.4650    9.6160 N.am  251  TRP251     -0.1961
    149  CA       -43.3200  -35.4550   10.4500 C.3   251  TRP251      0.1771
    150  C        -43.2600  -35.9150   11.8950 C.2   251  TRP251      0.2620
    151  O        -43.3400  -37.1140   12.1630 O.2   251  TRP251     -0.2715
    152  CB       -44.7740  -35.1970   10.0070 C.3   251  TRP251      0.0590
    153  CG       -45.4600  -36.3270    9.2750 C.ar  251  TRP251      0.0006
    154  CD1      -45.4670  -36.5390    7.9220 C.ar  251  TRP251      0.0946
    155  CD2      -46.2950  -37.3630    9.8450 C.ar  251  TRP251      0.0152
    156  NE1      -46.2420  -37.6380    7.6150 N.ar  251  TRP251     -0.2442
    157  CE2      -46.7530  -38.1660    8.7740 C.ar  251  TRP251      0.0810
    158  CE3      -46.6970  -37.6830   11.1480 C.ar  251  TRP251      0.0012
    159  CZ2      -47.5890  -39.2740    8.9700 C.ar  251  TRP251      0.0191
    160  CZ3      -47.5300  -38.7950   11.3480 C.ar  251  TRP251      0.0001
    161  CH2      -47.9640  -39.5730   10.2660 C.ar  251  TRP251      0.0015
    162  N        -43.0920  -34.9690   12.8110 N.am  252  GLY252     -0.1954
    163  CA       -42.9430  -35.3110   14.2170 C.3   252  GLY252      0.1869
    164  C        -43.3690  -34.1940   15.1490 C.2   252  GLY252      0.2309
    165  O        -43.1900  -33.0040   14.8520 O.2   252  GLY252     -0.2863
@<TRIPOS>BOND
     1   137   136    2
     2   136   135    1
     3   135   134    1
     4   135   138    1
     5   138   139    1
     6    16    15   ar
     7    15    17   ar
     8    15    14    1
     9   139   140    1
    10   139   141    1
    11    13    14    1
    12    13    10    1
    13   126   127    2
    14   126   125    1
    15     9    10    1
    16    10    11    1
    17   125   128    1
    18   125   124    1
    19   142   143    1
    20   128   129    1
    21   109   110    2
    22   109   108    1
    23    12    11    2
    24   130   129   ar
    25   130   132   ar
    26   129   131   ar
    27    67    66    2
    28   143   146    1
    29   143   144    1
    30   108   111    1
    31   108   107    1
    32   156   154   ar
    33   156   157   ar
    34   132   133   ar
    35    69    68    1
    36    69    70    1
    37   111   112    1
    38    68    65    1
    39   154   153   ar
    40   146   147    1
    41   145   144    2
    42    66    65    1
    43   144   148   am
    44   113   112   ar
    45   113   115   ar
    46    65    64    1
    47   131   133   ar
    48     4     3    2
    49   157   159   ar
    50   157   155   ar
    51   112   114   ar
    52   159   161   ar
    53    70    72   ar
    54    70    71   ar
    55     3     2    1
    56   153   155   ar
    57   153   152    1
    58   115   116   ar
    59   148   149    1
    60     1     2    1
    61   155   158   ar
    62   152   149    1
    63     2     5    1
    64   114   116   ar
    65   161   160   ar
    66   149   150    1
    67    27    25   ar
    68    27    28   ar
    69   123   121    1
    70    25    23   ar
    71   119   120    2
    72   119   118    1
    73   158   160   ar
    74    28    26   ar
    75     5     6    1
    76   150   151    2
    77   150   162   am
    78    23    22    1
    79    23    24   ar
    80   118   121    1
    81   118   117    1
    82     7     6    1
    83   121   122    1
    84     6     8    1
    85    22    19    1
    86    26    24   ar
    87    18    19    1
    88    63    61    1
    89    62    61    1
    90   162   163    1
    91   100   101    2
    92   100    99    1
    93   105   104   ar
    94    19    20    1
    95    60    59    2
    96    59    58    1
    97    61    58    1
    98    33    30    1
    99    29    20   am
   100    29    30    1
   101   102    99    1
   102   102   103    1
   103    99    98    1
   104   104   103    1
   105   104   106   ar
   106    20    21    2
   107   163   164    1
   108    58    57    1
   109    30    31    1
   110   165   164    2
   111    55    56    1
   112    55    54    1
   113    57    52   am
   114    97    95   ar
   115    97    96   ar
   116    83    81    1
   117    56    50    1
   118    95    93   ar
   119    31    32    2
   120    96    94   ar
   121    52    53    2
   122    52    51    1
   123    49    47    1
   124    81    82    1
   125    81    80    2
   126    54    51    1
   127    50    51    1
   128    93    92   ar
   129    93    91   ar
   130    94    91   ar
   131    80    79    1
   132    92    90   ar
   133    91    89   ar
   134    47    48    1
   135    47    44    1
   136    41    40   ar
   137    40    42   ar
   138    40    39    1
   139    34    35    1
   140    38    39    1
   141    38    35    1
   142    79    78    1
   143    90    89   ar
   144    89    88    1
   145    44    43    1
   146    44    45    1
   147    43    36   am
   148    35    36    1
   149    78    77    1
   150    36    37    2
   151    88    85    1
   152    86    87    2
   153    86    85    1
   154    77    74    1
   155    45    46    2
   156    85    84    1
   157    74    73    1
   158    74    75    1
   159    75    76    2
