@<TRIPOS>MOLECULE
tmp/6mn8A02.pdb
 153 150 0 0 0
SMALL
GASTEIGER

@<TRIPOS>ATOM
      1  N        -30.6950  -36.8070   21.3720 N.3   138  ARG138     -0.1245
      2  CA       -29.8360  -35.8260   20.7280 C.3   138  ARG138      0.1563
      3  C        -29.0250  -35.1750   21.8340 C.2   138  ARG138      0.2260
      4  O        -29.5990  -34.6380   22.7850 O.2   138  ARG138     -0.2867
      5  CB       -30.6580  -34.7820   19.9500 C.3   138  ARG138      0.0307
      6  CG       -31.5090  -35.3890   18.8520 C.3   138  ARG138      0.0489
      7  CD       -32.4160  -34.3820   18.1740 C.3   138  ARG138      0.2205
      8  NE       -33.2300  -35.0270   17.1440 N.pl3 138  ARG138     -0.0865
      9  CZ       -34.0290  -34.3730   16.3080 C.cat 138  ARG138      0.5346
     10  NH1      -34.1410  -33.0550   16.3930 N.pl3 138  ARG138      0.1354
     11  NH2      -34.7270  -35.0380   15.3970 N.pl3 138  ARG138      0.1354
     12  N        -27.8650  -32.4910   22.8360 N.3   140  GLU140     -0.1245
     13  CA       -28.0460  -31.0940   22.4650 C.3   140  GLU140      0.1567
     14  C        -26.9230  -30.2590   23.0560 C.2   140  GLU140      0.2260
     15  O        -26.6300  -30.3590   24.2500 O.2   140  GLU140     -0.2867
     16  CB       -29.4130  -30.5830   22.9620 C.3   140  GLU140      0.0388
     17  CG       -30.6360  -31.3630   22.4450 C.3   140  GLU140      0.1160
     18  CD       -31.0830  -30.9180   21.0420 C.2   140  GLU140      0.3649
     19  OE1      -30.6130  -29.8660   20.5810 O.co2 140  GLU140     -0.2457
     20  OE2      -31.9220  -31.5990   20.4080 O.co2 140  GLU140     -0.2457
     21  N        -38.6870  -30.4150   29.0390 N.3   147  PHE147     -0.1227
     22  CA       -39.6940  -30.4190   27.9790 C.3   147  PHE147      0.1736
     23  C        -39.2150  -29.7200   26.7070 C.2   147  PHE147      0.2595
     24  O        -39.2330  -30.3250   25.6340 O.2   147  PHE147     -0.2718
     25  CB       -41.0120  -29.7880   28.4610 C.3   147  PHE147      0.0547
     26  CG       -41.6350  -30.5110   29.6280 C.ar  147  PHE147     -0.0202
     27  CD1      -42.1270  -31.7990   29.4780 C.ar  147  PHE147     -0.0042
     28  CD2      -41.6970  -29.9160   30.8730 C.ar  147  PHE147     -0.0042
     29  CE1      -42.6870  -32.4780   30.5450 C.ar  147  PHE147     -0.0003
     30  CE2      -42.2650  -30.5910   31.9530 C.ar  147  PHE147     -0.0003
     31  CZ       -42.7590  -31.8740   31.7800 C.ar  147  PHE147     -0.0000
     32  N        -38.7820  -28.4580   26.8080 N.am  148  LEU148     -0.1966
     33  CA       -38.5350  -27.6640   25.6070 C.3   148  LEU148      0.1728
     34  C        -37.3450  -28.1950   24.8170 C.2   148  LEU148      0.2616
     35  O        -37.4250  -28.3380   23.5920 O.2   148  LEU148     -0.2715
     36  CB       -38.3300  -26.1910   25.9800 C.3   148  LEU148      0.0311
     37  CG       -39.5470  -25.4520   26.5520 C.3   148  LEU148      0.0022
     38  CD1      -39.1690  -24.0490   27.0040 C.3   148  LEU148      0.0001
     39  CD2      -40.7430  -25.4190   25.5660 C.3   148  LEU148      0.0001
     40  N        -36.2290  -28.4930   25.4930 N.am  149  ARG149     -0.1963
     41  CA       -35.0480  -29.0260   24.7980 C.3   149  ARG149      0.1729
     42  C        -34.3470  -30.0250   25.7250 C.2   149  ARG149      0.2616
     43  O        -33.5150  -29.6480   26.5580 O.2   149  ARG149     -0.2715
     44  CB       -34.0990  -27.9190   24.3570 C.3   149  ARG149      0.0348
     45  CG       -32.9270  -28.4540   23.5100 C.3   149  ARG149      0.0492
     46  CD       -32.0160  -27.3400   23.0090 C.3   149  ARG149      0.2205
     47  NE       -32.7600  -26.3490   22.2300 N.pl3 149  ARG149     -0.0865
     48  CZ       -33.1940  -26.5170   20.9780 C.cat 149  ARG149      0.5346
     49  NH1      -32.9710  -27.6560   20.3100 N.pl3 149  ARG149      0.1354
     50  NH2      -33.8690  -25.5370   20.3940 N.pl3 149  ARG149      0.1354
     51  N        -34.6830  -31.2980   25.5540 N.am  150  THR150     -0.1951
     52  CA       -34.1670  -32.3790   26.3760 C.3   150  THR150      0.1897
     53  C        -33.3060  -33.2910   25.5140 C.2   150  THR150      0.2313
     54  O        -33.4450  -33.3240   24.2880 O.2   150  THR150     -0.2863
     55  CB       -35.3180  -33.1620   27.0240 C.3   150  THR150      0.1794
     56  OG1      -36.0950  -33.8020   26.0090 O.3   150  THR150     -0.2208
     57  CG2      -36.2390  -32.2070   27.7860 C.3   150  THR150      0.0378
     58  N        -36.0150  -37.3850   24.4850 N.3   153  PHE153     -0.1241
     59  CA       -37.4060  -36.9710   24.4960 C.3   153  PHE153      0.1605
     60  C        -38.2680  -38.0190   23.8110 C.2   153  PHE153      0.2264
     61  O        -37.7990  -38.8270   23.0060 O.2   153  PHE153     -0.2867
     62  CB       -37.6150  -35.5720   23.8610 C.3   153  PHE153      0.0534
     63  CG       -37.0390  -35.3970   22.4550 C.ar  153  PHE153     -0.0203
     64  CD1      -37.8500  -35.5420   21.3270 C.ar  153  PHE153     -0.0042
     65  CD2      -35.7230  -34.9920   22.2690 C.ar  153  PHE153     -0.0042
     66  CE1      -37.3420  -35.3190   20.0400 C.ar  153  PHE153     -0.0003
     67  CE2      -35.2000  -34.7850   20.9830 C.ar  153  PHE153     -0.0003
     68  CZ       -36.0190  -34.9440   19.8690 C.ar  153  PHE153     -0.0000
     69  N        -41.4750  -38.7350   21.3090 N.3   155  TRP155     -0.1241
     70  CA       -42.1980  -38.1340   20.2050 C.3   155  TRP155      0.1605
     71  C        -42.9760  -39.2270   19.4760 C.2   155  TRP155      0.2264
     72  O        -42.9770  -40.3920   19.8810 O.2   155  TRP155     -0.2867
     73  CB       -41.2220  -37.3680   19.2890 C.3   155  TRP155      0.0550
     74  CG       -40.3350  -38.1780   18.3360 C.ar  155  TRP155      0.0003
     75  CD1      -40.2490  -39.5450   18.2110 C.ar  155  TRP155      0.0946
     76  CD2      -39.4200  -37.6340   17.3660 C.ar  155  TRP155      0.0152
     77  NE1      -39.3450  -39.8750   17.2140 N.ar  155  TRP155     -0.2442
     78  CE2      -38.8180  -38.7220   16.6940 C.ar  155  TRP155      0.0810
     79  CE3      -39.0560  -36.3280   17.0020 C.ar  155  TRP155      0.0012
     80  CZ2      -37.8670  -38.5440   15.6800 C.ar  155  TRP155      0.0191
     81  CZ3      -38.1080  -36.1490   15.9970 C.ar  155  TRP155      0.0001
     82  CH2      -37.5320  -37.2590   15.3390 C.ar  155  TRP155      0.0015
     83  N        -41.0210  -23.4990   18.1220 N.3   216  GLN216     -0.1231
     84  CA       -41.2560  -24.3990   16.9990 C.3   216  GLN216      0.1698
     85  C        -41.9570  -25.6470   17.5230 C.2   216  GLN216      0.2593
     86  O        -41.3220  -26.5390   18.0880 O.2   216  GLN216     -0.2718
     87  CB       -39.9460  -24.7360   16.3030 C.3   216  GLN216      0.0381
     88  CG       -40.0980  -25.7350   15.1440 C.3   216  GLN216      0.0905
     89  CD       -38.7710  -26.3670   14.7690 C.2   216  GLN216      0.2608
     90  OE1      -38.4140  -27.4410   15.2590 O.2   216  GLN216     -0.2717
     91  NE2      -38.0150  -25.6810   13.9250 N.am  216  GLN216     -0.0878
     92  N        -43.2830  -25.7160   17.3430 N.am  217  GLY217     -0.1942
     93  CA       -44.0960  -26.6890   18.0830 C.3   217  GLY217      0.2014
     94  C        -44.2090  -28.0760   17.4720 C.2   217  GLY217      0.2639
     95  O        -44.5970  -29.0180   18.1810 O.2   217  GLY217     -0.2714
     96  N        -43.9010  -28.2230   16.1850 N.am  218  ALA218     -0.1963
     97  CA       -43.9730  -29.4940   15.4710 C.3   218  ALA218      0.1728
     98  C        -43.4030  -29.2430   14.0850 C.2   218  ALA218      0.2616
     99  O        -43.2690  -28.0960   13.6690 O.2   218  ALA218     -0.2715
    100  CB       -45.4060  -30.0420   15.3840 C.3   218  ALA218      0.0334
    101  N        -43.0570  -30.3180   13.3760 N.am  219  THR219     -0.1951
    102  CA       -42.4210  -30.1780   12.0670 C.3   219  THR219      0.1897
    103  C        -43.0240  -31.1620   11.0740 C.2   219  THR219      0.2313
    104  O        -43.1780  -32.3490   11.3850 O.2   219  THR219     -0.2863
    105  CB       -40.9080  -30.4090   12.1660 C.3   219  THR219      0.1794
    106  OG1      -40.3360  -29.4630   13.0740 O.3   219  THR219     -0.2208
    107  CG2      -40.2530  -30.2280   10.8060 C.3   219  THR219      0.0378
    108  N        -42.2570  -32.4060    7.1630 N.3   221  HIS221     -0.1241
    109  CA       -41.2910  -32.3470    6.0680 C.3   221  HIS221      0.1621
    110  C        -41.8780  -32.9610    4.8160 C.2   221  HIS221      0.2264
    111  O        -42.4050  -34.0750    4.8660 O.2   221  HIS221     -0.2867
    112  CB       -40.0110  -33.1110    6.3990 C.3   221  HIS221      0.0745
    113  CG       -39.0630  -32.3600    7.2630 C.ar  221  HIS221      0.0817
    114  ND1      -38.1560  -31.4570    6.7550 N.ar  221  HIS221     -0.2268
    115  CD2      -38.8730  -32.3790    8.6020 C.ar  221  HIS221      0.1154
    116  CE1      -37.4460  -30.9500    7.7470 C.ar  221  HIS221      0.1986
    117  NE2      -37.8640  -31.4900    8.8780 N.ar  221  HIS221     -0.2212
    118  N        -43.0920  -34.9690   12.8110 N.3   252  GLY252     -0.1210
    119  CA       -42.9430  -35.3110   14.2170 C.3   252  GLY252      0.1956
    120  C        -43.3690  -34.1940   15.1490 C.2   252  GLY252      0.2612
    121  O        -43.1900  -33.0040   14.8520 O.2   252  GLY252     -0.2717
    122  N        -43.9080  -34.5920   16.3080 N.am  253  ILE253     -0.1965
    123  CA       -44.1980  -33.7030   17.4290 C.3   253  ILE253      0.1727
    124  C        -43.7470  -34.4140   18.7020 C.2   253  ILE253      0.2617
    125  O        -43.8130  -35.6480   18.7990 O.2   253  ILE253     -0.2715
    126  CB       -45.7030  -33.3190   17.4900 C.3   253  ILE253      0.0290
    127  CG1      -45.9480  -32.1540   18.4500 C.3   253  ILE253      0.0022
    128  CG2      -46.5720  -34.5100   17.8860 C.3   253  ILE253      0.0023
    129  CD1      -47.3880  -31.5810   18.3620 C.3   253  ILE253      0.0001
    130  N        -43.2690  -33.6370   19.6810 N.am  254  SER254     -0.1936
    131  CA       -42.6360  -34.2080   20.8730 C.3   254  SER254      0.2055
    132  C        -43.2910  -33.7120   22.1630 C.2   254  SER254      0.2644
    133  O        -44.2540  -32.9330   22.1610 O.2   254  SER254     -0.2714
    134  CB       -41.1460  -33.8640   20.9280 C.3   254  SER254      0.2130
    135  OG       -40.9940  -32.4950   21.2870 O.3   254  SER254     -0.2179
    136  N        -42.7130  -34.1520   23.2890 N.am  255  THR255     -0.1936
    137  CA       -43.0920  -33.6370   24.6010 C.3   255  THR255      0.2028
    138  C        -42.7460  -32.1560   24.7820 C.2   255  THR255      0.2642
    139  O        -43.0700  -31.6040   25.8360 O.2   255  THR255     -0.2714
    140  CB       -42.4410  -34.4570   25.7280 C.3   255  THR255      0.1808
    141  OG1      -41.0530  -34.6900   25.4400 O.3   255  THR255     -0.2208
    142  CG2      -43.1780  -35.8080   25.9450 C.3   255  THR255      0.0379
    143  N        -42.1190  -31.4960   23.7960 N.am  256  ARG256     -0.1977
    144  CA       -42.0060  -30.0370   23.8490 C.3   256  ARG256      0.1597
    145  C        -43.3780  -29.3790   23.9810 C.2   256  ARG256      0.2287
    146  O        -43.4900  -28.2930   24.5660 O.2   256  ARG256     -0.2864
    147  CB       -41.2650  -29.5190   22.6090 C.3   256  ARG256      0.0334
    148  CG       -41.3410  -28.0050   22.3720 C.3   256  ARG256      0.0492
    149  CD       -40.5320  -27.5930   21.1380 C.3   256  ARG256      0.2205
    150  NE       -39.1000  -27.7790   21.3350 N.pl3 256  ARG256     -0.0865
    151  CZ       -38.1680  -27.5370   20.4140 C.cat 256  ARG256      0.5346
    152  NH1      -38.5040  -27.0930   19.2020 N.pl3 256  ARG256      0.1354
    153  NH2      -36.8930  -27.7470   20.7110 N.pl3 256  ARG256      0.1354
@<TRIPOS>BOND
     1   110   111    2
     2   110   109    1
     3   109   112    1
     4   109   108    1
     5   112   113    1
     6   114   113   ar
     7   114   116   ar
     8   113   115   ar
     9   116   117   ar
    10   115   117   ar
    11   107   105    1
    12   103   104    2
    13   103   102    1
    14   102   105    1
    15   102   101    1
    16   105   106    1
    17   118   119    1
    18   101    98   am
    19    99    98    2
    20    91    89   am
    21    98    97    1
    22   119   120    1
    23    89    88    1
    24    89    90    2
    25   121   120    2
    26    88    87    1
    27   120   122   am
    28    82    80   ar
    29    82    81   ar
    30   100    97    1
    31    11     9    1
    32    97    96    1
    33    80    78   ar
    34    81    79   ar
    35    96    94   am
    36    87    84    1
    37   122   123    1
    38     9    10    1
    39     9     8    2
    40    78    77   ar
    41    78    76   ar
    42    84    85    1
    43    84    83    1
    44    79    76   ar
    45     8     7    1
    46    77    75   ar
    47    92    85   am
    48    92    93    1
    49    76    74   ar
    50   123   126    1
    51   123   124    1
    52    94    93    1
    53    94    95    2
    54   126   128    1
    55   126   127    1
    56    85    86    2
    57     7     6    1
    58    75    74   ar
    59    74    73    1
    60   129   127    1
    61   124   125    2
    62   124   130   am
    63     6     5    1
    64   152   151    1
    65    73    70    1
    66    71    72    2
    67    71    70    1
    68   130   131    1
    69    68    66   ar
    70    68    67   ar
    71     5     2    1
    72    66    64   ar
    73    70    69    1
    74    49    48    1
    75    50    48    1
    76    20    18   ar
    77   151   153    1
    78   151   150    2
    79    19    18   ar
    80     2     1    1
    81     2     3    1
    82   131   134    1
    83   131   132    1
    84   134   135    1
    85    48    47    2
    86    67    65   ar
    87    18    17    1
    88   149   150    1
    89   149   148    1
    90    64    63   ar
    91     3     4    2
    92   133   132    2
    93   132   136   am
    94    47    46    1
    95    65    63   ar
    96   148   147    1
    97    17    16    1
    98    63    62    1
    99    13    12    1
   100    13    16    1
   101    13    14    1
   102   147   144    1
   103    61    60    2
   104    46    45    1
   105    14    15    2
   106   136   137    1
   107    45    44    1
   108    35    34    2
   109   143   144    1
   110   143   138   am
   111    60    59    1
   112   144   145    1
   113    62    59    1
   114   145   146    2
   115    54    53    2
   116    44    41    1
   117    58    59    1
   118   137   138    1
   119   137   140    1
   120   138   139    2
   121    41    40    1
   122    41    42    1
   123    34    40   am
   124    34    33    1
   125   141   140    1
   126    53    52    1
   127    51    42   am
   128    51    52    1
   129    39    37    1
   130    33    36    1
   131    33    32    1
   132    24    23    2
   133    42    43    2
   134   140   142    1
   135    36    37    1
   136    56    55    1
   137    52    55    1
   138    37    38    1
   139    23    32   am
   140    23    22    1
   141    55    57    1
   142    22    25    1
   143    22    21    1
   144    25    26    1
   145    27    26   ar
   146    27    29   ar
   147    26    28   ar
   148    29    31   ar
   149    28    30   ar
   150    31    30   ar
