@<TRIPOS>MOLECULE
tmp/6mnyA00.pdb
 181 169 0 0 0
SMALL
GASTEIGER

@<TRIPOS>ATOM
      1  N         -0.8610   16.5680   10.8310 N.3    14  LEU14      -0.1231
      2  CA        -1.1170   15.1240   10.8490 C.3    14  LEU14       0.1693
      3  C         -0.5520   14.4960   12.1470 C.2    14  LEU14       0.2593
      4  O         -0.5790   13.2790   12.3050 O.2    14  LEU14      -0.2718
      5  CB        -0.5320   14.4160    9.6030 C.3    14  LEU14       0.0284
      6  CG        -0.8800   14.9300    8.2050 C.3    14  LEU14       0.0019
      7  CD1       -0.1090   14.1750    7.1470 C.3    14  LEU14       0.0001
      8  CD2       -2.3590   14.8400    7.9180 C.3    14  LEU14       0.0001
      9  N         -0.0400   15.3340   13.0500 N.am   15  GLY15      -0.1942
     10  CA         0.5620   14.8770   14.3000 C.3    15  GLY15       0.2014
     11  C          2.0490   14.5520   14.2010 C.2    15  GLY15       0.2640
     12  O          2.7310   15.0650   13.3040 O.2    15  GLY15      -0.2714
     13  N          2.5770   13.6860   15.1090 N.am   16  THR16      -0.1936
     14  CA         4.0000   13.3250   15.1160 C.3    16  THR16       0.2028
     15  C          4.2760   11.8170   15.0560 C.2    16  THR16       0.2642
     16  O          3.5370   11.0130   15.6210 O.2    16  THR16      -0.2714
     17  CB         4.7880   13.9560   16.2850 C.3    16  THR16       0.1808
     18  OG1        4.3470   13.4300   17.5400 O.3    16  THR16      -0.2208
     19  CG2        4.7670   15.4780   16.2710 C.3    16  THR16       0.0379
     20  N          5.3760   11.4850   14.3790 N.am   17  GLY17      -0.1954
     21  CA         5.8810   10.1420   14.1710 C.3    17  GLY17       0.1869
     22  C          7.3840   10.1470   14.3140 C.2    17  GLY17       0.2309
     23  O          7.9310   11.0780   14.9140 O.2    17  GLY17      -0.2863
     24  N          4.7350   15.9710   11.2060 N.3    22  VAL22      -0.1245
     25  CA         4.2510   15.6150    9.8670 C.3    22  VAL22       0.1561
     26  C          3.0420   16.5150    9.5410 C.2    22  VAL22       0.2260
     27  O          2.2010   16.7480   10.4070 O.2    22  VAL22      -0.2867
     28  CB         3.9590   14.0910    9.6870 C.3    22  VAL22       0.0252
     29  CG1        3.7880   13.7270    8.2100 C.3    22  VAL22       0.0019
     30  CG2        5.0620   13.2360   10.3160 C.3    22  VAL22       0.0019
     31  N          2.6310   14.7470    1.7130 N.3    34  ALA34      -0.1245
     32  CA         2.8620   14.6670    3.1440 C.3    34  ALA34       0.1562
     33  C          4.2700   15.2540    3.3560 C.2    34  ALA34       0.2260
     34  O          5.1720   15.0170    2.5480 O.2    34  ALA34      -0.2867
     35  CB         2.7940   13.2320    3.6240 C.3    34  ALA34       0.0290
     36  N          7.2300   15.5570    6.1210 N.3    36  LYS36      -0.1245
     37  CA         7.8180   15.1790    7.4020 C.3    36  LYS36       0.1561
     38  C          8.9480   16.1690    7.6410 C.2    36  LYS36       0.2260
     39  O          9.7580   16.4090    6.7390 O.2    36  LYS36      -0.2867
     40  CB         8.3580   13.7240    7.4140 C.3    36  LYS36       0.0271
     41  CG         8.6200   13.1860    8.8420 C.3    36  LYS36       0.0035
     42  CD         9.4170   11.8790    8.9070 C.3    36  LYS36       0.0206
     43  CE         8.5230   10.6810    9.0580 C.3    36  LYS36       0.1093
     44  NZ         9.2970    9.4360    9.3660 N.3    36  LYS36      -0.1314
     45  N         21.4370    9.6410    5.4380 N.3    48  PHE48      -0.1241
     46  CA        20.0520    9.5510    4.9960 C.3    48  PHE48       0.1605
     47  C         19.8650   10.1270    3.5810 C.2    48  PHE48       0.2264
     48  O         19.4090    9.4060    2.6930 O.2    48  PHE48      -0.2867
     49  CB        19.0920   10.2240    5.9910 C.3    48  PHE48       0.0534
     50  CG        17.7070   10.3620    5.4150 C.ar   48  PHE48      -0.0203
     51  CD1       16.8740    9.2610    5.2990 C.ar   48  PHE48      -0.0042
     52  CD2       17.2620   11.5750    4.9330 C.ar   48  PHE48      -0.0042
     53  CE1       15.6150    9.3750    4.7330 C.ar   48  PHE48      -0.0003
     54  CE2       16.0110   11.6800    4.3420 C.ar   48  PHE48      -0.0003
     55  CZ        15.1950   10.5750    4.2490 C.ar   48  PHE48      -0.0000
     56  N         16.3170    5.4360   -2.6970 N.3    55  MET55      -0.1245
     57  CA        14.9540    5.1780   -2.2230 C.3    55  MET55       0.1570
     58  C         13.9370    5.7820   -3.2170 C.2    55  MET55       0.2261
     59  O         12.8100    5.2950   -3.3070 O.2    55  MET55      -0.2867
     60  CB        14.7430    5.7720   -0.8260 C.3    55  MET55       0.0387
     61  CG        15.5550    5.1150    0.2780 C.3    55  MET55       0.0595
     62  SD        15.4130    5.8950    1.9300 S.3    55  MET55      -0.1393
     63  CE        13.7310    6.2960    1.9730 C.3    55  MET55       0.0692
     64  N          5.0530    3.5890   -0.0020 N.3    64  VAL64      -0.1245
     65  CA         4.8620    5.0360    0.0970 C.3    64  VAL64       0.1561
     66  C          5.9920    5.6850   -0.7460 C.2    64  VAL64       0.2260
     67  O          7.1700    5.4140   -0.5140 O.2    64  VAL64      -0.2867
     68  CB         4.7550    5.5570    1.5710 C.3    64  VAL64       0.0252
     69  CG1        4.4410    7.0460    1.6120 C.3    64  VAL64       0.0019
     70  CG2        3.6840    4.7940    2.3550 C.3    64  VAL64       0.0019
     71  N          8.5190    8.5060   -2.4740 N.3    66  LEU66      -0.1245
     72  CA         9.3550    9.6410   -2.0610 C.3    66  LEU66       0.1561
     73  C          9.3580   10.6870   -3.1730 C.2    66  LEU66       0.2260
     74  O         10.0340   10.4910   -4.1840 O.2    66  LEU66      -0.2867
     75  CB        10.8150    9.1710   -1.8080 C.3    66  LEU66       0.0270
     76  CG        11.4870    9.4130   -0.4350 C.3    66  LEU66       0.0019
     77  CD1       12.9650    9.2520   -0.5410 C.3    66  LEU66       0.0001
     78  CD2       11.2130   10.7890    0.0990 C.3    66  LEU66       0.0001
     79  N         11.0680   15.9950    4.1910 N.3    78  ILE78      -0.1245
     80  CA        10.9340   14.8090    3.3460 C.3    78  ILE78       0.1561
     81  C          9.5130   14.8720    2.7460 C.2    78  ILE78       0.2260
     82  O          8.5390   14.9450    3.4910 O.2    78  ILE78      -0.2867
     83  CB        11.2000   13.4990    4.1270 C.3    78  ILE78       0.0252
     84  CG1       12.6220   13.4750    4.7340 C.3    78  ILE78       0.0019
     85  CG2       10.9700   12.2770    3.2270 C.3    78  ILE78       0.0019
     86  CD1       12.7830   12.4640    5.7780 C.3    78  ILE78       0.0001
     87  N          6.5320   13.1670    0.5360 N.3    80  THR80      -0.1203
     88  CA         6.0060   11.8410    0.1440 C.3    80  THR80       0.1994
     89  C          4.5440   11.8600   -0.3200 C.2    80  THR80       0.2618
     90  O          3.8880   12.9060   -0.3190 O.2    80  THR80      -0.2717
     91  CB         6.1730   10.7890    1.2790 C.3    80  THR80       0.1784
     92  OG1        5.4510   11.1990    2.4250 O.3    80  THR80      -0.2211
     93  CG2        7.6330   10.4790    1.6290 C.3    80  THR80       0.0376
     94  N          4.0510   10.6610   -0.6920 N.am   81  GLU81      -0.1965
     95  CA         2.6790   10.3100   -1.0980 C.3    81  GLU81       0.1733
     96  C          1.7230   10.5790    0.0850 C.2    81  GLU81       0.2616
     97  O          2.0150   10.1700    1.2180 O.2    81  GLU81      -0.2715
     98  CB         2.6450    8.8080   -1.4300 C.3    81  GLU81       0.0429
     99  CG         1.5120    8.3610   -2.3240 C.3    81  GLU81       0.1163
    100  CD         1.2680    6.8630   -2.3190 C.2    81  GLU81       0.3649
    101  OE1        2.2360    6.0900   -2.5110 O.co2  81  GLU81      -0.2457
    102  OE2        0.0990    6.4600   -2.1250 O.co2  81  GLU81      -0.2457
    103  N          0.5810   11.2530   -0.1770 N.am   82  TYR82      -0.1960
    104  CA        -0.3660   11.5120    0.8900 C.3    82  TYR82       0.1771
    105  C         -1.2330   10.2900    1.2340 C.2    82  TYR82       0.2619
    106  O         -2.0060    9.7890    0.3960 O.2    82  TYR82      -0.2715
    107  CB        -1.2120   12.7550    0.6260 C.3    82  TYR82       0.0574
    108  CG        -2.1680   13.0530    1.7630 C.ar   82  TYR82      -0.0198
    109  CD1       -1.7250   13.0870    3.0850 C.ar   82  TYR82      -0.0009
    110  CD2       -3.5080   13.3320    1.5160 C.ar   82  TYR82      -0.0009
    111  CE1       -2.6070   13.3180    4.1360 C.ar   82  TYR82       0.0417
    112  CE2       -4.3950   13.5960    2.5590 C.ar   82  TYR82       0.0417
    113  CZ        -3.9420   13.5810    3.8690 C.ar   82  TYR82       0.1957
    114  OH        -4.8200   13.8080    4.9010 O.3    82  TYR82      -0.2866
    115  N         -1.0910    9.8230    2.4910 N.am   83  MET83      -0.1977
    116  CA        -1.8690    8.7060    3.0610 C.3    83  MET83       0.1605
    117  C         -2.8580    9.2970    4.0830 C.2    83  MET83       0.2287
    118  O         -2.4870    9.6400    5.2110 O.2    83  MET83      -0.2864
    119  CB        -0.9480    7.6320    3.6940 C.3    83  MET83       0.0413
    120  CG         0.1860    7.1300    2.7590 C.3    83  MET83       0.0598
    121  SD        -0.3170    6.2480    1.2540 S.3    83  MET83      -0.1393
    122  CE        -0.9100    4.8010    1.9570 C.3    83  MET83       0.0692
    123  N         -3.8380    7.6320    7.7190 N.3    86  GLY86      -0.1210
    124  CA        -2.6740    7.5610    8.5980 C.3    86  GLY86       0.1956
    125  C         -2.0980    6.2020    8.9180 C.2    86  GLY86       0.2612
    126  O         -2.1070    5.3040    8.0760 O.2    86  GLY86      -0.2717
    127  N         -1.5400    6.0670   10.1440 N.am   87  CYS87      -0.1970
    128  CA        -0.9160    4.8420   10.6770 C.3    87  CYS87       0.1712
    129  C         -1.9140    3.6860   10.7660 C.2    87  CYS87       0.2296
    130  O         -3.0250    3.8670   11.2700 O.2    87  CYS87      -0.2864
    131  CB        -0.2640    5.1150   12.0300 C.3    87  CYS87       0.0983
    132  SG         1.1860    6.2210   11.9630 S.3    87  CYS87      -0.0798
    133  N         -3.5690    2.6400   14.3360 N.3    90  ASN90      -0.1240
    134  CA        -4.6930    3.4850   14.7560 C.3    90  ASN90       0.1653
    135  C         -5.9350    3.1510   13.9410 C.2    90  ASN90       0.2266
    136  O         -7.0380    3.1880   14.4760 O.2    90  ASN90      -0.2867
    137  CB        -4.3520    4.9730   14.5450 C.3    90  ASN90       0.1155
    138  CG        -3.0590    5.4490   15.1640 C.2    90  ASN90       0.2627
    139  OD1       -1.9720    4.8990   14.9380 O.2    90  ASN90      -0.2716
    140  ND2       -3.1530    6.5040   15.9450 N.am   90  ASN90      -0.0877
    141  N          1.1180    2.6720    6.3260 N.3   134  LEU134     -0.1245
    142  CA         0.1410    3.7450    6.2150 C.3   134  LEU134      0.1561
    143  C         -1.0470    3.3480    5.3440 C.2   134  LEU134      0.2260
    144  O         -0.9270    2.4170    4.5440 O.2   134  LEU134     -0.2867
    145  CB         0.7760    5.0890    5.7710 C.3   134  LEU134      0.0270
    146  CG         1.8190    5.7170    6.6890 C.3   134  LEU134      0.0019
    147  CD1        2.7160    6.6130    5.9240 C.3   134  LEU134      0.0001
    148  CD2        1.1940    6.4870    7.7990 C.3   134  LEU134      0.0001
    149  N          5.9450    2.0250    4.6480 N.3   144  SER144     -0.1202
    150  CA         6.6290    3.2840    4.8860 C.3   144  SER144      0.2020
    151  C          7.8730    3.0800    5.7590 C.2   144  SER144      0.2619
    152  O          8.0340    2.0210    6.3680 O.2   144  SER144     -0.2717
    153  CB         5.6660    4.2610    5.5510 C.3   144  SER144      0.2103
    154  OG         6.2320    5.5540    5.6860 O.3   144  SER144     -0.2182
    155  N          8.7700    4.1110    5.7880 N.am  145  ASP145     -0.1959
    156  CA        10.0150    4.1850    6.5650 C.3   145  ASP145      0.1840
    157  C         10.9690    3.0000    6.3450 C.2   145  ASP145      0.2622
    158  O         11.7310    2.6420    7.2590 O.2   145  ASP145     -0.2715
    159  CB         9.7290    4.3830    8.0690 C.3   145  ASP145      0.1450
    160  CG         9.0110    5.6600    8.4200 C.2   145  ASP145      0.3671
    161  OD1        9.0690    6.6060    7.6210 O.co2 145  ASP145     -0.2456
    162  OD2        8.3970    5.7150    9.5090 O.co2 145  ASP145     -0.2456
    163  N         10.9520    2.4290    5.1200 N.am  146  PHE146     -0.1974
    164  CA        11.7810    1.3000    4.7030 C.3   146  PHE146      0.1639
    165  C         13.2870    1.5930    4.8560 C.2   146  PHE146      0.2290
    166  O         13.8700    2.3380    4.0670 O.2   146  PHE146     -0.2864
    167  CB        11.4130    0.8090    3.2740 C.3   146  PHE146      0.0560
    168  CG        11.0660    1.8980    2.2820 C.ar  146  PHE146     -0.0200
    169  CD1        9.7690    2.3860    2.1830 C.ar  146  PHE146     -0.0042
    170  CD2       12.0360    2.4350    1.4440 C.ar  146  PHE146     -0.0042
    171  CE1        9.4540    3.4060    1.2810 C.ar  146  PHE146     -0.0003
    172  CE2       11.7190    3.4590    0.5390 C.ar  146  PHE146     -0.0003
    173  CZ        10.4310    3.9460    0.4730 C.ar  146  PHE146     -0.0000
    174  N         14.7750    3.2210    7.5400 N.3   148  LEU148     -0.1245
    175  CA        15.0680    4.4530    8.3080 C.3   148  LEU148      0.1561
    176  C         15.6720    4.2240    9.7010 C.2   148  LEU148      0.2260
    177  O         16.2550    5.1490   10.2790 O.2   148  LEU148     -0.2867
    178  CB        13.8390    5.3620    8.4240 C.3   148  LEU148      0.0270
    179  CG        13.4680    6.1790    7.1790 C.3   148  LEU148      0.0019
    180  CD1       12.3650    7.1500    7.4810 C.3   148  LEU148      0.0001
    181  CD2       14.6360    6.9540    6.6770 C.3   148  LEU148      0.0001
@<TRIPOS>BOND
     1    74    73    2
     2    59    58    2
     3    58    57    1
     4    73    72    1
     5    56    57    1
     6   101   100   ar
     7    71    72    1
     8    99   100    1
     9    99    98    1
    10   100   102   ar
    11    57    60    1
    12    72    75    1
    13    75    76    1
    14    98    95    1
    15    95    94    1
    16    95    96    1
    17    60    61    1
    18    66    67    2
    19    66    65    1
    20    94    89   am
    21    77    76    1
    22    76    78    1
    23    89    90    2
    24    89    88    1
    25   103    96   am
    26   103   104    1
    27    64    65    1
    28    96    97    2
    29    65    68    1
    30    88    87    1
    31    88    91    1
    32    61    62    1
    33   106   105    2
    34   173   172   ar
    35   173   171   ar
    36   172   170   ar
    37   107   104    1
    38   107   108    1
    39   104   105    1
    40   105   115   am
    41   121   122    1
    42   121   120    1
    43    91    93    1
    44    91    92    1
    45   171   169   ar
    46   170   168   ar
    47   110   108   ar
    48   110   112   ar
    49    68    69    1
    50    68    70    1
    51    31    32    1
    52   108   109   ar
    53    62    63    1
    54   169   168   ar
    55   168   167    1
    56   115   116    1
    57    34    33    2
    58   112   113   ar
    59    48    47    2
    60    81    80    1
    61    81    82    2
    62   120   119    1
    63   116   119    1
    64   116   117    1
    65   109   111   ar
    66    32    33    1
    67    32    35    1
    68    85    83    1
    69   167   164    1
    70    80    83    1
    71    80    79    1
    72    47    46    1
    73   113   111   ar
    74   113   114    1
    75   166   165    2
    76   117   118    2
    77    83    84    1
    78    55    54   ar
    79    55    53   ar
    80    54    52   ar
    81   144   143    2
    82   149   150    1
    83   164   165    1
    84   164   163    1
    85    53    51   ar
    86    84    86    1
    87   150   153    1
    88   150   151    1
    89    52    50   ar
    90    46    45    1
    91    46    49    1
    92   163   157   am
    93    51    50   ar
    94   143   142    1
    95    50    49    1
    96   153   154    1
    97   151   155   am
    98   151   152    2
    99   145   142    1
   100   145   146    1
   101   155   156    1
   102   147   146    1
   103    36    37    1
   104   142   141    1
   105   157   156    1
   106   157   158    2
   107   156   159    1
   108   181   179    1
   109   146   148    1
   110    39    38    2
   111     7     6    1
   112   179   180    1
   113   179   178    1
   114    37    40    1
   115    37    38    1
   116    40    41    1
   117   174   175    1
   118   161   160   ar
   119   123   124    1
   120     8     6    1
   121   159   160    1
   122   126   125    2
   123     6     5    1
   124    29    28    1
   125   175   178    1
   126   175   176    1
   127   160   162   ar
   128   124   125    1
   129    41    42    1
   130    42    43    1
   131   125   127   am
   132    43    44    1
   133    26    25    1
   134    26    27    2
   135     5     2    1
   136    28    25    1
   137    28    30    1
   138   176   177    2
   139    25    24    1
   140   127   128    1
   141   128   129    1
   142   128   131    1
   143   129   130    2
   144     1     2    1
   145     2     3    1
   146   132   131    1
   147     3     4    2
   148     3     9   am
   149     9    10    1
   150    12    11    2
   151   135   136    2
   152   135   134    1
   153    21    22    1
   154    21    20    1
   155    11    10    1
   156    11    13   am
   157    22    23    2
   158   133   134    1
   159    20    15   am
   160   137   134    1
   161   137   138    1
   162   139   138    2
   163    15    14    1
   164    15    16    2
   165    13    14    1
   166    14    17    1
   167   138   140   am
   168    19    17    1
   169    17    18    1
