@<TRIPOS>MOLECULE
tmp/6mo7C00.pdb
 175 169 0 0 0
SMALL
GASTEIGER

@<TRIPOS>ATOM
      1  N         45.9820   15.1360   49.7900 N.3    22  TRP22      -0.1228
      2  CA        46.4820   14.4040   50.9620 C.3    22  TRP22       0.1722
      3  C         47.6980   13.4820   50.7310 C.2    22  TRP22       0.2437
      4  O         48.6210   13.4540   51.5480 O.2    22  TRP22      -0.2733
      5  CB        45.3530   13.6880   51.7350 C.3    22  TRP22       0.0563
      6  CG        44.6380   12.5890   50.9870 C.ar   22  TRP22       0.0003
      7  CD1       43.5830   12.7240   50.1340 C.ar   22  TRP22       0.0946
      8  CD2       44.9120   11.1830   51.0680 C.ar   22  TRP22       0.0152
      9  NE1       43.1940   11.4890   49.6600 N.ar   22  TRP22      -0.2442
     10  CE2       43.9930   10.5280   50.2220 C.ar   22  TRP22       0.0810
     11  CE3       45.8590   10.4190   51.7590 C.ar   22  TRP22       0.0012
     12  CZ2       43.9900    9.1450   50.0530 C.ar   22  TRP22       0.0191
     13  CZ3       45.8500    9.0380   51.5930 C.ar   22  TRP22       0.0001
     14  CH2       44.9220    8.4190   50.7480 C.ar   22  TRP22       0.0015
     15  N         47.7140   12.7300   49.6210 N.am   23  PRO23      -0.2718
     16  CA        48.8640   11.8300   49.4430 C.3    23  PRO23       0.1535
     17  C         50.1410   12.5820   49.0490 C.2    23  PRO23       0.2598
     18  O         51.2160   11.9840   49.0650 O.2    23  PRO23      -0.2715
     19  CB        48.4260   10.9040   48.2960 C.3    23  PRO23       0.0310
     20  CG        46.9530   11.1750   48.0950 C.3    23  PRO23       0.0237
     21  CD        46.7210   12.5800   48.5430 C.3    23  PRO23       0.0939
     22  N         50.0190   13.8710   48.7330 N.am   24  PHE24      -0.1974
     23  CA        51.1560   14.6740   48.2770 C.3    24  PHE24       0.1639
     24  C         51.7330   15.5710   49.3670 C.2    24  PHE24       0.2290
     25  O         52.7570   16.2250   49.1610 O.2    24  PHE24      -0.2864
     26  CB        50.7490   15.5210   47.0510 C.3    24  PHE24       0.0560
     27  CG        50.2640   14.6980   45.8840 C.ar   24  PHE24      -0.0200
     28  CD1       51.1520   14.2710   44.9030 C.ar   24  PHE24      -0.0042
     29  CD2       48.9230   14.3360   45.7760 C.ar   24  PHE24      -0.0042
     30  CE1       50.7130   13.4850   43.8320 C.ar   24  PHE24      -0.0003
     31  CE2       48.4740   13.5590   44.7070 C.ar   24  PHE24      -0.0003
     32  CZ        49.3650   13.1470   43.7250 C.ar   24  PHE24      -0.0000
     33  N         53.3140   14.9730   52.0400 N.3    26  GLN26      -0.1245
     34  CA        54.5860   14.5960   52.6410 C.3    26  GLN26       0.1566
     35  C         55.3740   13.7030   51.6960 C.2    26  GLN26       0.2260
     36  O         54.8130   13.1480   50.7540 O.2    26  GLN26      -0.2867
     37  CB        54.3810   13.9070   53.9970 C.3    26  GLN26       0.0367
     38  CG        53.6030   12.6120   53.9370 C.3    26  GLN26       0.0905
     39  CD        52.1100   12.8450   53.8520 C.2    26  GLN26       0.2608
     40  OE1       51.5100   13.4510   54.7450 O.2    26  GLN26      -0.2717
     41  NE2       51.4990   12.3760   52.7660 N.am   26  GLN26      -0.0878
     42  N         57.0820   10.7290   49.7850 N.3    28  VAL28      -0.1231
     43  CA        56.7120    9.3330   49.5700 C.3    28  VAL28       0.1692
     44  C         57.5430    8.4750   50.5100 C.2    28  VAL28       0.2592
     45  O         58.7690    8.5900   50.5310 O.2    28  VAL28      -0.2718
     46  CB        56.9960    8.9150   48.1170 C.3    28  VAL28       0.0266
     47  CG1       56.8570    7.4060   47.9470 C.3    28  VAL28       0.0020
     48  CG2       56.0630    9.6830   47.1450 C.3    28  VAL28       0.0020
     49  N         56.8810    7.6210   51.2860 N.am   29  ASP29      -0.1974
     50  CA        57.5730    6.7850   52.2730 C.3    29  ASP29       0.1709
     51  C         57.7180    5.3790   51.7100 C.2    29  ASP29       0.2293
     52  O         56.8270    4.5470   51.8750 O.2    29  ASP29      -0.2864
     53  CB        56.7800    6.7640   53.5810 C.3    29  ASP29       0.1436
     54  CG        57.4940    6.0190   54.7080 C.2    29  ASP29       0.3671
     55  OD1       58.3560    5.1470   54.4450 O.co2  29  ASP29      -0.2456
     56  OD2       57.1670    6.3070   55.8730 O.co2  29  ASP29      -0.2456
     57  N         57.2500    2.3530   54.2900 N.3    32  LYS32      -0.1231
     58  CA        55.8850    2.0870   54.7170 C.3    32  LYS32       0.1693
     59  C         55.0110    1.5490   53.5810 C.2    32  LYS32       0.2591
     60  O         54.1390    0.7100   53.8070 O.2    32  LYS32      -0.2718
     61  CB        55.2740    3.3470   55.3330 C.3    32  LYS32       0.0285
     62  CG        53.8370    3.1950   55.8060 C.3    32  LYS32       0.0035
     63  CD        53.5180    4.2280   56.8810 C.3    32  LYS32       0.0206
     64  CE        52.0180    4.4450   57.0370 C.3    32  LYS32       0.1093
     65  NZ        51.4430    5.1900   55.8810 N.3    32  LYS32      -0.1314
     66  N         55.2520    2.0140   52.3580 N.am   33  LEU33      -0.1980
     67  CA        54.4270    1.6080   51.2220 C.3    33  LEU33       0.1596
     68  C         54.9320    0.3360   50.5330 C.2    33  LEU33       0.2287
     69  O         54.3630   -0.1060   49.5280 O.2    33  LEU33      -0.2864
     70  CB        54.3200    2.7540   50.2070 C.3    33  LEU33       0.0297
     71  CG        53.6850    4.0420   50.7390 C.3    33  LEU33       0.0022
     72  CD1       53.5490    5.0770   49.6200 C.3    33  LEU33       0.0001
     73  CD2       52.3230    3.7710   51.3830 C.3    33  LEU33       0.0001
     74  N         57.7910   -0.0720   48.8200 N.3    35  LEU35      -0.1245
     75  CA        58.3050    0.2440   47.4880 C.3    35  LEU35       0.1561
     76  C         59.8350    0.2650   47.4790 C.2    35  LEU35       0.2260
     77  O         60.4500    1.3290   47.4210 O.2    35  LEU35      -0.2867
     78  CB        57.7430    1.5820   46.9960 C.3    35  LEU35       0.0270
     79  CG        56.2250    1.7630   47.1370 C.3    35  LEU35       0.0019
     80  CD1       55.8080    3.1830   46.7680 C.3    35  LEU35       0.0001
     81  CD2       55.4780    0.7410   46.2900 C.3    35  LEU35       0.0001
     82  N         61.6560    2.3380   44.8620 N.3    38  TYR38      -0.1241
     83  CA        61.2890    3.7400   44.6880 C.3    38  TYR38       0.1605
     84  C         62.4850    4.6600   44.5380 C.2    38  TYR38       0.2264
     85  O         62.5610    5.4420   43.5830 O.2    38  TYR38      -0.2867
     86  CB        60.3740    4.2580   45.7980 C.3    38  TYR38       0.0534
     87  CG        59.9040    5.6620   45.4800 C.ar   38  TYR38      -0.0201
     88  CD1       58.9120    5.8770   44.5230 C.ar   38  TYR38      -0.0009
     89  CD2       60.4800    6.7720   46.0910 C.ar   38  TYR38      -0.0009
     90  CE1       58.4980    7.1540   44.1910 C.ar   38  TYR38       0.0417
     91  CE2       60.0680    8.0680   45.7650 C.ar   38  TYR38       0.0417
     92  CZ        59.0750    8.2430   44.8140 C.ar   38  TYR38       0.1957
     93  OH        58.6640    9.5050   44.4750 O.3    38  TYR38      -0.2866
     94  N         60.2540   14.7230   45.7900 N.3    46  MET46      -0.1230
     95  CA        59.6950   16.0250   46.1400 C.3    46  MET46       0.1702
     96  C         58.2270   15.8600   46.5270 C.2    46  MET46       0.2592
     97  O         57.5720   14.9110   46.0920 O.2    46  MET46      -0.2718
     98  CB        59.8580   17.0230   44.9850 C.3    46  MET46       0.0401
     99  CG        59.4340   18.4560   45.3140 C.3    46  MET46       0.0596
    100  SD        60.2200   19.1300   46.8210 S.3    46  MET46      -0.1393
    101  CE        61.9580   18.8570   46.4510 C.3    46  MET46       0.0692
    102  N         57.7220   16.7720   47.3540 N.am   47  ASP47      -0.1974
    103  CA        56.3500   16.6930   47.8410 C.3    47  ASP47       0.1709
    104  C         55.8650   18.0830   48.2320 C.2    47  ASP47       0.2293
    105  O         56.6650   18.9980   48.3660 O.2    47  ASP47      -0.2864
    106  CB        56.2810   15.7750   49.0560 C.3    47  ASP47       0.1436
    107  CG        56.9920   16.3620   50.2550 C.2    47  ASP47       0.3671
    108  OD1       58.2380   16.3390   50.2600 O.co2  47  ASP47      -0.2456
    109  OD2       56.3060   16.8750   51.1630 O.co2  47  ASP47      -0.2456
    110  N         57.7990   16.8370   41.5150 N.3    73  MET73      -0.1245
    111  CA        56.8490   16.0330   42.2750 C.3    73  MET73       0.1570
    112  C         55.8690   15.3170   41.3400 C.2    73  MET73       0.2261
    113  O         55.6750   14.0960   41.4270 O.2    73  MET73      -0.2867
    114  CB        56.0580   16.9100   43.2350 C.3    73  MET73       0.0387
    115  CG        55.0660   16.1050   44.0490 C.3    73  MET73       0.0595
    116  SD        54.0160   17.1160   45.1030 S.3    73  MET73      -0.1393
    117  CE        52.9180   17.8150   43.8800 C.3    73  MET73       0.0692
    118  N         57.8120   12.7130   39.0150 N.3    76  ASN76      -0.1225
    119  CA        58.1410   11.4810   39.7430 C.3    76  ASN76       0.1785
    120  C         56.9200   10.5780   39.8550 C.2    76  ASN76       0.2597
    121  O         57.0000    9.3550   39.6750 O.2    76  ASN76      -0.2718
    122  CB        58.6430   11.7800   41.1740 C.3    76  ASN76       0.1169
    123  CG        59.9730   12.5320   41.2040 C.2    76  ASN76       0.2627
    124  OD1       60.7180   12.5720   40.2150 O.2    76  ASN76      -0.2716
    125  ND2       60.2810   13.1240   42.3540 N.am   76  ASN76      -0.0877
    126  N         55.7870   11.1810   40.1960 N.am   77  CYS77      -0.1970
    127  CA        54.5510   10.4140   40.3400 C.3    77  CYS77       0.1712
    128  C         54.1700    9.7160   39.0210 C.2    77  CYS77       0.2296
    129  O         53.8260    8.5190   39.0000 O.2    77  CYS77      -0.2864
    130  CB        53.4270   11.3310   40.8200 C.3    77  CYS77       0.0983
    131  SG        51.8460   10.4890   41.1080 S.3    77  CYS77      -0.0798
    132  N         56.9290    6.8740   38.1780 N.3    80  TYR80      -0.1227
    133  CA        57.0190    5.6880   39.0230 C.3    80  TYR80       0.1736
    134  C         55.7940    4.7900   38.9300 C.2    80  TYR80       0.2595
    135  O         55.9100    3.5640   38.8880 O.2    80  TYR80      -0.2718
    136  CB        57.2850    6.0450   40.5010 C.3    80  TYR80       0.0548
    137  CG        57.4230    4.7840   41.3220 C.ar   80  TYR80      -0.0200
    138  CD1       58.6110    4.0610   41.3130 C.ar   80  TYR80      -0.0009
    139  CD2       56.3540    4.2850   42.0590 C.ar   80  TYR80      -0.0009
    140  CE1       58.7430    2.8880   42.0260 C.ar   80  TYR80       0.0417
    141  CE2       56.4810    3.1050   42.7890 C.ar   80  TYR80       0.0417
    142  CZ        57.6780    2.4140   42.7640 C.ar   80  TYR80       0.1957
    143  OH        57.8110    1.2400   43.4680 O.3    80  TYR80      -0.2866
    144  N         54.6180    5.4060   38.9110 N.am   81  ASN81      -0.1974
    145  CA        53.3640    4.6710   39.0130 C.3    81  ASN81       0.1688
    146  C         52.7980    4.1710   37.6790 C.2    81  ASN81       0.2292
    147  O         53.3290    4.4770   36.6170 O.2    81  ASN81      -0.2864
    148  CB        52.3430    5.5200   39.7690 C.3    81  ASN81       0.1181
    149  CG        52.8250    5.8650   41.1690 C.2    81  ASN81       0.2629
    150  OD1       52.8330    5.0080   42.0480 O.2    81  ASN81      -0.2716
    151  ND2       53.2560    7.1120   41.3740 N.am   81  ASN81      -0.0877
    152  N         45.3230    5.2280   40.7000 N.3    86  ASP86      -0.1225
    153  CA        44.5430    6.3860   41.1130 C.3    86  ASP86       0.1805
    154  C         45.4240    7.5950   41.4330 C.2    86  ASP86       0.2597
    155  O         45.0290    8.7410   41.1930 O.2    86  ASP86      -0.2718
    156  CB        43.6880    6.0450   42.3370 C.3    86  ASP86       0.1424
    157  CG        42.6630    4.9590   42.0540 C.2    86  ASP86       0.3668
    158  OD1       42.1730    4.8740   40.9060 O.co2  86  ASP86      -0.2456
    159  OD2       42.3510    4.1870   42.9850 O.co2  86  ASP86      -0.2456
    160  N         46.6040    7.3430   41.9920 N.am   87  ILE87      -0.1980
    161  CA        47.4990    8.4400   42.3620 C.3    87  ILE87       0.1595
    162  C         47.8200    9.2860   41.1160 C.2    87  ILE87       0.2287
    163  O         47.9560   10.5110   41.1940 O.2    87  ILE87      -0.2864
    164  CB        48.7810    7.9190   43.0830 C.3    87  ILE87       0.0276
    165  CG1       49.5210    9.0530   43.7880 C.3    87  ILE87       0.0022
    166  CG2       49.7090    7.2080   42.1190 C.3    87  ILE87       0.0022
    167  CD1       48.7350    9.7280   44.8660 C.3    87  ILE87       0.0001
    168  N         45.0210   11.6090   40.2770 N.3    90  MET90      -0.1245
    169  CA        45.0180   12.6860   41.2550 C.3    90  MET90       0.1570
    170  C         46.0730   13.7500   40.9070 C.2    90  MET90       0.2261
    171  O         45.8070   14.9560   40.9540 O.2    90  MET90      -0.2867
    172  CB        45.2140   12.1120   42.6610 C.3    90  MET90       0.0387
    173  CG        44.0740   11.1900   43.0840 C.3    90  MET90       0.0595
    174  SD        44.4070   10.2440   44.5780 S.3    90  MET90      -0.1393
    175  CE        44.3040   11.5240   45.8160 C.3    90  MET90       0.0692
@<TRIPOS>BOND
     1   147   146    2
     2   146   145    1
     3   132   133    1
     4   135   134    2
     5   144   134   am
     6   144   145    1
     7   134   133    1
     8   129   128    2
     9   145   148    1
    10   118   119    1
    11   128   127    1
    12   133   136    1
    13   121   120    2
    14   119   120    1
    15   119   122    1
    16   148   149    1
    17   120   126   am
    18   126   127    1
    19   124   123    2
    20   168   169    1
    21   127   130    1
    22   136   137    1
    23   152   153    1
    24   130   131    1
    25   158   157   ar
    26   170   171    2
    27   170   169    1
    28   153   154    1
    29   153   156    1
    30   162   163    2
    31   162   161    1
    32   149   151   am
    33   149   150    2
    34   122   123    1
    35   155   154    2
    36   123   125   am
    37   169   172    1
    38   138   137   ar
    39   138   140   ar
    40   137   139   ar
    41   112   113    2
    42   112   111    1
    43   154   160   am
    44   110   111    1
    45   160   161    1
    46   140   142   ar
    47   157   156    1
    48   157   159   ar
    49   139   141   ar
    50   166   164    1
    51   111   114    1
    52   161   164    1
    53   172   173    1
    54   142   141   ar
    55   142   143    1
    56   164   165    1
    57   173   174    1
    58   114   115    1
    59    85    84    2
    60    32    30   ar
    61    32    31   ar
    62   165   167    1
    63    30    28   ar
    64   117   116    1
    65   115   116    1
    66    90    88   ar
    67    90    92   ar
    68    93    92    1
    69    88    87   ar
    70    84    83    1
    71   174   175    1
    72    83    82    1
    73    83    86    1
    74    31    29   ar
    75    92    91   ar
    76    28    27   ar
    77    98    99    1
    78    98    95    1
    79    99   100    1
    80    87    86    1
    81    87    89   ar
    82    91    89   ar
    83    29    27   ar
    84    94    95    1
    85    27    26    1
    86    97    96    2
    87    95    96    1
    88    81    79    1
    89   101   100    1
    90    96   102   am
    91    80    79    1
    92    78    79    1
    93    78    75    1
    94    26    23    1
    95    48    46    1
    96   102   103    1
    97    77    76    2
    98    76    75    1
    99    75    74    1
   100   103   104    1
   101   103   106    1
   102    47    46    1
   103    20    19    1
   104    20    21    1
   105    46    43    1
   106   104   105    2
   107    23    22    1
   108    23    24    1
   109    19    16    1
   110    21    15    1
   111    22    17   am
   112    17    18    2
   113    17    16    1
   114   106   107    1
   115    25    24    2
   116    16    15    1
   117    69    68    2
   118    43    42    1
   119    43    44    1
   120    72    71    1
   121    15     3   am
   122     9     7   ar
   123     9    10   ar
   124     1     2    1
   125    12    10   ar
   126    12    14   ar
   127     7     6   ar
   128    70    71    1
   129    70    67    1
   130    10     8   ar
   131   107   108   ar
   132   107   109   ar
   133    44    45    2
   134    44    49   am
   135    68    67    1
   136     3     2    1
   137     3     4    2
   138    71    73    1
   139    14    13   ar
   140    36    35    2
   141     2     5    1
   142     6     8   ar
   143     6     5    1
   144     8    11   ar
   145    67    66    1
   146    49    50    1
   147    13    11   ar
   148    35    34    1
   149    51    52    2
   150    51    50    1
   151    33    34    1
   152    50    53    1
   153    66    59   am
   154    34    37    1
   155    41    39   am
   156    53    54    1
   157    59    60    2
   158    59    58    1
   159    39    38    1
   160    39    40    2
   161    38    37    1
   162    57    58    1
   163    55    54   ar
   164    54    56   ar
   165    58    61    1
   166    61    62    1
   167    62    63    1
   168    65    64    1
   169    63    64    1
