@<TRIPOS>MOLECULE
tmp/6mo7A00.pdb
 175 169 0 0 0
SMALL
GASTEIGER

@<TRIPOS>ATOM
      1  N         38.9200   14.6500   72.7800 N.3    24  TRP24      -0.1228
      2  CA        39.5450   14.0630   73.9730 C.3    24  TRP24       0.1722
      3  C         38.7440   12.9850   74.7470 C.2    24  TRP24       0.2437
      4  O         39.3130   11.9700   75.1560 O.2    24  TRP24      -0.2733
      5  CB        40.1590   15.1470   74.8950 C.3    24  TRP24       0.0563
      6  CG        39.1760   16.0430   75.5740 C.ar   24  TRP24       0.0003
      7  CD1       38.7280   17.2590   75.1400 C.ar   24  TRP24       0.0946
      8  CD2       38.5170   15.7910   76.8200 C.ar   24  TRP24       0.0152
      9  NE1       37.8220   17.7740   76.0400 N.ar   24  TRP24      -0.2442
     10  CE2       37.6750   16.8890   77.0780 C.ar   24  TRP24       0.0810
     11  CE3       38.5510   14.7370   77.7370 C.ar   24  TRP24       0.0012
     12  CZ2       36.8830   16.9670   78.2230 C.ar   24  TRP24       0.0191
     13  CZ3       37.7600   14.8150   78.8710 C.ar   24  TRP24       0.0001
     14  CH2       36.9420   15.9200   79.1050 C.ar   24  TRP24       0.0015
     15  N         37.4220   13.1700   74.9180 N.am   25  PRO25      -0.2718
     16  CA        36.6510   12.1070   75.5940 C.3    25  PRO25       0.1535
     17  C         36.5290   10.8210   74.7810 C.2    25  PRO25       0.2598
     18  O         36.1450    9.8000   75.3410 O.2    25  PRO25      -0.2715
     19  CB        35.2520   12.7120   75.7360 C.3    25  PRO25       0.0310
     20  CG        35.4460   14.2030   75.5680 C.3    25  PRO25       0.0237
     21  CD        36.5950   14.3490   74.6190 C.3    25  PRO25       0.0939
     22  N         36.8170   10.8900   73.4820 N.am   26  PHE26      -0.1974
     23  CA        36.6280    9.7640   72.5710 C.3    26  PHE26       0.1639
     24  C         37.9280    9.0330   72.2060 C.2    26  PHE26       0.2290
     25  O         37.8990    8.0350   71.4620 O.2    26  PHE26      -0.2864
     26  CB        35.9390   10.2350   71.2750 C.3    26  PHE26       0.0560
     27  CG        34.6070   10.9100   71.5030 C.ar   26  PHE26      -0.0200
     28  CD1       33.4250   10.1880   71.4300 C.ar   26  PHE26      -0.0042
     29  CD2       34.5420   12.2690   71.7910 C.ar   26  PHE26      -0.0042
     30  CE1       32.2020   10.8140   71.6590 C.ar   26  PHE26      -0.0003
     31  CE2       33.3250   12.9010   72.0160 C.ar   26  PHE26      -0.0003
     32  CZ        32.1560   12.1720   71.9510 C.ar   26  PHE26      -0.0000
     33  N         39.9000    7.2430   74.0180 N.3    28  GLN28      -0.1245
     34  CA        40.1350    6.0120   74.7670 C.3    28  GLN28       0.1566
     35  C         38.7930    5.4570   75.2140 C.2    28  GLN28       0.2260
     36  O         37.7940    6.1820   75.2120 O.2    28  GLN28      -0.2867
     37  CB        41.0330    6.2610   75.9850 C.3    28  GLN28       0.0367
     38  CG        40.4760    7.2500   76.9860 C.3    28  GLN28       0.0905
     39  CD        40.4530    8.6760   76.4500 C.2    28  GLN28       0.2608
     40  OE1       41.4470    9.1560   75.8950 O.2    28  GLN28      -0.2717
     41  NE2       39.3160    9.3590   76.6110 N.am   28  GLN28      -0.0878
     42  N         35.4950    4.3460   77.0950 N.3    30  VAL30      -0.1245
     43  CA        34.7390    4.8800   78.2230 C.3    30  VAL30       0.1561
     44  C         35.1210    4.0570   79.4460 C.2    30  VAL30       0.2260
     45  O         34.9700    2.8430   79.4490 O.2    30  VAL30      -0.2867
     46  CB        33.2210    4.7530   77.9870 C.3    30  VAL30       0.0252
     47  CG1       32.4450    5.2450   79.2130 C.3    30  VAL30       0.0019
     48  CG2       32.8070    5.5280   76.7250 C.3    30  VAL30       0.0019
     49  N         35.9290    4.9990   86.4020 N.3    34  LYS34      -0.1231
     50  CA        36.3280    6.3920   86.5400 C.3    34  LYS34       0.1693
     51  C         35.1430    7.3450   86.5030 C.2    34  LYS34       0.2591
     52  O         35.1020    8.3300   87.2490 O.2    34  LYS34      -0.2718
     53  CB        37.3290    6.8030   85.4460 C.3    34  LYS34       0.0285
     54  CG        37.7440    8.2680   85.5580 C.3    34  LYS34       0.0035
     55  CD        38.9550    8.6050   84.7020 C.3    34  LYS34       0.0206
     56  CE        38.6230    8.6330   83.2240 C.3    34  LYS34       0.1093
     57  NZ        39.8400    8.9880   82.4210 N.3    34  LYS34      -0.1314
     58  N         34.1920    7.0700   85.6160 N.am   35  LEU35      -0.1980
     59  CA        33.0950    8.0090   85.3820 C.3    35  LEU35       0.1596
     60  C         31.8840    7.7800   86.2990 C.2    35  LEU35       0.2287
     61  O         30.9370    8.5730   86.3000 O.2    35  LEU35      -0.2864
     62  CB        32.6880    8.0010   83.9010 C.3    35  LEU35       0.0297
     63  CG        33.7900    8.4150   82.9170 C.3    35  LEU35       0.0022
     64  CD1       33.3590    8.2250   81.4520 C.3    35  LEU35       0.0001
     65  CD2       34.2560    9.8490   83.1530 C.3    35  LEU35       0.0001
     66  N         29.7450    5.0130   86.3490 N.3    37  LEU37      -0.1245
     67  CA        28.6330    4.5630   85.5070 C.3    37  LEU37       0.1561
     68  C         28.5100    3.0440   85.5230 C.2    37  LEU37       0.2260
     69  O         28.8810    2.3730   84.5610 O.2    37  LEU37      -0.2867
     70  CB        28.8310    5.0400   84.0690 C.3    37  LEU37       0.0270
     71  CG        29.1500    6.5160   83.8480 C.3    37  LEU37       0.0019
     72  CD1       29.4860    6.7780   82.3760 C.3    37  LEU37       0.0001
     73  CD2       27.9990    7.4070   84.3030 C.3    37  LEU37       0.0001
     74  N         26.8690    1.2860   82.6010 N.3    40  TYR40      -0.1241
     75  CA        27.3740    1.4870   81.2420 C.3    40  TYR40       0.1605
     76  C         27.4770    0.1900   80.4490 C.2    40  TYR40       0.2264
     77  O         26.9430    0.0830   79.3490 O.2    40  TYR40      -0.2867
     78  CB        28.7280    2.2170   81.2040 C.3    40  TYR40       0.0534
     79  CG        29.1200    2.5360   79.7720 C.ar   40  TYR40      -0.0201
     80  CD1       28.5780    3.6330   79.1170 C.ar   40  TYR40      -0.0009
     81  CD2       29.9890    1.7130   79.0610 C.ar   40  TYR40      -0.0009
     82  CE1       28.8980    3.9250   77.7930 C.ar   40  TYR40       0.0417
     83  CE2       30.3190    1.9980   77.7310 C.ar   40  TYR40       0.0417
     84  CZ        29.7770    3.1150   77.1080 C.ar   40  TYR40       0.1957
     85  OH        30.0950    3.4170   75.7910 O.3    40  TYR40      -0.2866
     86  N         33.3260    1.2010   71.8100 N.3    48  MET48      -0.1230
     87  CA        34.2520    1.5320   70.7330 C.3    48  MET48       0.1702
     88  C         34.7670    2.9380   70.9880 C.2    48  MET48       0.2592
     89  O         34.0890    3.7550   71.6090 O.2    48  MET48      -0.2718
     90  CB        33.5470    1.4550   69.3700 C.3    48  MET48       0.0401
     91  CG        34.4810    1.5680   68.1310 C.3    48  MET48       0.0596
     92  SD        36.0270    0.6090   68.1820 S.3    48  MET48      -0.1393
     93  CE        35.3620   -1.0610   68.3110 C.3    48  MET48       0.0692
     94  N         35.9730    3.2160   70.5230 N.am   49  ASP49      -0.1974
     95  CA        36.5760    4.5170   70.7540 C.3    49  ASP49       0.1709
     96  C         37.6120    4.7750   69.6750 C.2    49  ASP49       0.2293
     97  O         38.0480    3.8480   69.0040 O.2    49  ASP49      -0.2864
     98  CB        37.2470    4.5340   72.1320 C.3    49  ASP49       0.1436
     99  CG        38.4390    3.6020   72.2020 C.2    49  ASP49       0.3671
    100  OD1       38.2280    2.3890   72.4100 O.co2  49  ASP49      -0.2456
    101  OD2       39.5820    4.0780   72.0350 O.co2  49  ASP49      -0.2456
    102  N         30.7960    3.8140   67.7890 N.3    75  MET75      -0.1245
    103  CA        31.2310    4.7220   68.8450 C.3    75  MET75       0.1570
    104  C         30.2110    5.8660   69.0230 C.2    75  MET75       0.2261
    105  O         29.8090    6.1740   70.1350 O.2    75  MET75      -0.2867
    106  CB        32.6130    5.3180   68.5310 C.3    75  MET75       0.0387
    107  CG        33.1010    6.3230   69.6020 C.3    75  MET75       0.0595
    108  SD        34.6190    7.0990   68.9990 S.3    75  MET75      -0.1393
    109  CE        33.9730    8.2130   67.7580 C.3    75  MET75       0.0692
    110  N         26.7260    4.4040   70.2980 N.3    78  ASN78      -0.1225
    111  CA        26.7720    4.0820   71.7300 C.3    78  ASN78       0.1785
    112  C         26.5640    5.3340   72.5730 C.2    78  ASN78       0.2597
    113  O         25.8670    5.3290   73.5880 O.2    78  ASN78      -0.2718
    114  CB        28.1180    3.4920   72.1350 C.3    78  ASN78       0.1169
    115  CG        28.3570    2.0850   71.5710 C.2    78  ASN78       0.2627
    116  OD1       27.4370    1.4200   71.0840 O.2    78  ASN78      -0.2716
    117  ND2       29.6040    1.6260   71.6600 N.am   78  ASN78      -0.0877
    118  N         27.2110    6.4100   72.1520 N.am   79  CYS79      -0.1970
    119  CA        27.1790    7.6530   72.9080 C.3    79  CYS79       0.1712
    120  C         25.7480    8.2090   72.9620 C.2    79  CYS79       0.2296
    121  O         25.2660    8.5750   74.0430 O.2    79  CYS79      -0.2864
    122  CB        28.1630    8.6620   72.2840 C.3    79  CYS79       0.0983
    123  SG        28.2510   10.2700   73.1400 S.3    79  CYS79      -0.0798
    124  N         23.4650    5.7230   75.1730 N.3    82  TYR82      -0.1227
    125  CA        23.6990    5.7080   76.6060 C.3    82  TYR82       0.1736
    126  C         23.3520    7.0090   77.3410 C.2    82  TYR82       0.2595
    127  O         22.7540    6.9780   78.4240 O.2    82  TYR82      -0.2718
    128  CB        25.1430    5.3100   76.9470 C.3    82  TYR82       0.0548
    129  CG        25.3240    5.2800   78.4430 C.ar   82  TYR82      -0.0200
    130  CD1       24.8260    4.2220   79.1980 C.ar   82  TYR82      -0.0009
    131  CD2       25.9400    6.3350   79.1090 C.ar   82  TYR82      -0.0009
    132  CE1       24.9530    4.2020   80.5680 C.ar   82  TYR82       0.0417
    133  CE2       26.0670    6.3270   80.4860 C.ar   82  TYR82       0.0417
    134  CZ        25.5730    5.2610   81.2050 C.ar   82  TYR82       0.1957
    135  OH        25.7020    5.2510   82.5730 O.3    82  TYR82      -0.2866
    136  N         23.7380    8.1470   76.7680 N.am   83  ASN83      -0.1974
    137  CA        23.7040    9.4110   77.5030 C.3    83  ASN83       0.1688
    138  C         22.3450   10.0970   77.4200 C.2    83  ASN83       0.2292
    139  O         21.5210    9.7490   76.5900 O.2    83  ASN83      -0.2864
    140  CB        24.8200   10.3430   77.0120 C.3    83  ASN83       0.1181
    141  CG        26.2150    9.7950   77.3280 C.2    83  ASN83       0.2629
    142  OD1       26.6790    9.8660   78.4640 O.2    83  ASN83      -0.2716
    143  ND2       26.8750    9.2210   76.3230 N.am   83  ASN83      -0.0877
    144  N         23.0190   15.8940   77.7210 N.3    87  ASP87      -0.1225
    145  CA        24.4370   15.8000   78.0810 C.3    87  ASP87       0.1805
    146  C         25.3230   16.4350   77.0210 C.2    87  ASP87       0.2598
    147  O         25.1680   16.1540   75.8310 O.2    87  ASP87      -0.2718
    148  CB        24.8420   14.3430   78.2830 C.3    87  ASP87       0.1424
    149  CG        24.2910   13.7600   79.5610 C.2    87  ASP87       0.3668
    150  OD1       24.0380   14.5400   80.5080 O.co2  87  ASP87      -0.2456
    151  OD2       24.1320   12.5160   79.6220 O.co2  87  ASP87      -0.2456
    152  N         26.2590   17.2870   77.4400 N.am   88  ASP88      -0.1960
    153  CA        27.1660   17.9330   76.4850 C.3    88  ASP88       0.1840
    154  C         27.9050   16.9360   75.5950 C.2    88  ASP88       0.2621
    155  O         28.2290   17.2540   74.4600 O.2    88  ASP88      -0.2715
    156  CB        28.1980   18.8010   77.1970 C.3    88  ASP88       0.1450
    157  CG        27.5760   20.0130   77.8560 C.2    88  ASP88       0.3671
    158  OD1       26.4060   20.3230   77.5380 O.co2  88  ASP88      -0.2456
    159  OD2       28.2580   20.6410   78.6830 O.co2  88  ASP88      -0.2456
    160  N         28.2170   15.7580   76.1330 N.am   89  ILE89      -0.1977
    161  CA        28.9350   14.7530   75.3510 C.3    89  ILE89       0.1596
    162  C         28.2270   14.4630   74.0270 C.2    89  ILE89       0.2287
    163  O         28.8690   14.2150   73.0050 O.2    89  ILE89      -0.2864
    164  CB        29.1720   13.4360   76.1530 C.3    89  ILE89       0.0276
    165  CG1       30.1860   12.5500   75.4250 C.3    89  ILE89       0.0022
    166  CG2       27.8610   12.6980   76.4470 C.3    89  ILE89       0.0022
    167  CD1       31.6240   13.1540   75.4290 C.3    89  ILE89       0.0001
    168  N         29.1590   17.0480   71.5050 N.3    92  MET92      -0.1245
    169  CA        30.5210   16.8330   71.0470 C.3    92  MET92       0.1570
    170  C         30.5780   15.6810   70.0400 C.2    92  MET92       0.2261
    171  O         31.2750   15.7690   69.0210 O.2    92  MET92      -0.2867
    172  CB        31.4630   16.5970   72.2360 C.3    92  MET92       0.0387
    173  CG        31.4980   17.7820   73.2270 C.3    92  MET92       0.0595
    174  SD        32.3290   17.3590   74.7520 S.3    92  MET92      -0.1393
    175  CE        34.0430   17.5160   74.2560 C.3    92  MET92       0.0692
@<TRIPOS>BOND
     1   109   108    1
     2   102   103    1
     3    91    92    1
     4    91    90    1
     5    92    93    1
     6   106   103    1
     7   106   107    1
     8   103   104    1
     9   108   107    1
    10    97    96    2
    11   171   170    2
    12   104   105    2
    13    90    87    1
    14    96    95    1
    15   170   169    1
    16   110   111    1
    17    94    95    1
    18    94    88   am
    19    87    88    1
    20    87    86    1
    21    95    98    1
    22    88    89    2
    23   169   168    1
    24   169   172    1
    25   116   115    2
    26    26    27    1
    27    26    23    1
    28    28    27   ar
    29    28    30   ar
    30    25    24    2
    31    27    29   ar
    32   115   117   am
    33   115   114    1
    34    30    32   ar
    35   111   114    1
    36   111   112    1
    37    29    31   ar
    38    32    31   ar
    39   101    99   ar
    40    98    99    1
    41   118   112   am
    42   118   119    1
    43    99   100   ar
    44    24    23    1
    45   172   173    1
    46   122   119    1
    47   122   123    1
    48    23    22    1
    49   112   113    2
    50     1     2    1
    51   119   120    1
    52   120   121    2
    53   163   162    2
    54   173   174    1
    55    22    17   am
    56     2     3    1
    57     2     5    1
    58    33    34    1
    59   162   161    1
    60   175   174    1
    61   155   154    2
    62    21    15    1
    63    21    20    1
    64     3    15   am
    65     3     4    2
    66    34    35    1
    67    34    37    1
    68    17    18    2
    69    17    16    1
    70     5     6    1
    71    15    16    1
    72     7     6   ar
    73     7     9   ar
    74   124   125    1
    75    36    35    2
    76   161   160    1
    77   161   164    1
    78   165   167    1
    79   165   164    1
    80    20    19    1
    81     6     8   ar
    82    16    19    1
    83   154   160   am
    84   154   153    1
    85    85    84    1
    86   147   146    2
    87    40    39    2
    88    37    38    1
    89     9    10   ar
    90   164   166    1
    91   143   141   am
    92    39    41   am
    93    39    38    1
    94   153   156    1
    95   153   152    1
    96   139   138    2
    97   125   128    1
    98   125   126    1
    99    48    46    1
   100   136   126   am
   101   136   137    1
   102     8    10   ar
   103     8    11   ar
   104   128   129    1
   105   140   141    1
   106   140   137    1
   107   146   152   am
   108   146   145    1
   109    10    12   ar
   110    42    43    1
   111    84    83   ar
   112    84    82   ar
   113   156   157    1
   114   141   142    2
   115   126   127    2
   116   138   137    1
   117   158   157   ar
   118   144   145    1
   119    83    81   ar
   120    11    13   ar
   121    82    80   ar
   122   157   159   ar
   123    46    43    1
   124    46    47    1
   125   145   148    1
   126    12    14   ar
   127    43    44    1
   128   148   149    1
   129   129   131   ar
   130   129   130   ar
   131    13    14   ar
   132    81    79   ar
   133   131   133   ar
   134    80    79   ar
   135   130   132   ar
   136    77    76    2
   137    44    45    2
   138   149   151   ar
   139   149   150   ar
   140    79    78    1
   141    76    75    1
   142   133   134   ar
   143   132   134   ar
   144    78    75    1
   145   134   135    1
   146    75    74    1
   147    64    63    1
   148    72    71    1
   149    57    56    1
   150    63    65    1
   151    63    62    1
   152    56    55    1
   153    71    70    1
   154    71    73    1
   155    62    59    1
   156    70    67    1
   157    69    68    2
   158    55    54    1
   159    59    58    1
   160    59    60    1
   161    53    54    1
   162    53    50    1
   163    67    68    1
   164    67    66    1
   165    58    51   am
   166    60    61    2
   167    49    50    1
   168    51    50    1
   169    51    52    2
