@<TRIPOS>MOLECULE
tmp/6mo8A00.pdb
 143 139 0 0 0
SMALL
GASTEIGER

@<TRIPOS>ATOM
      1  N         71.1690   14.7590   -4.4130 N.3    24  TRP24      -0.1228
      2  CA        70.4690   14.1330   -5.5350 C.3    24  TRP24       0.1722
      3  C         71.2550   13.0320   -6.2940 C.2    24  TRP24       0.2437
      4  O         70.6650   12.0260   -6.6880 O.2    24  TRP24      -0.2733
      5  CB        69.8850   15.1980   -6.4720 C.3    24  TRP24       0.0563
      6  CG        70.9180   16.0480   -7.1000 C.ar   24  TRP24       0.0003
      7  CD1       71.4610   17.1970   -6.5940 C.ar   24  TRP24       0.0946
      8  CD2       71.5580   15.8140   -8.3480 C.ar   24  TRP24       0.0152
      9  NE1       72.4030   17.6950   -7.4640 N.ar   24  TRP24      -0.2442
     10  CE2       72.4840   16.8590   -8.5460 C.ar   24  TRP24       0.0810
     11  CE3       71.4420   14.8180   -9.3230 C.ar   24  TRP24       0.0012
     12  CZ2       73.2820   16.9410   -9.6830 C.ar   24  TRP24       0.0191
     13  CZ3       72.2350   14.9020  -10.4440 C.ar   24  TRP24       0.0001
     14  CH2       73.1410   15.9540  -10.6170 C.ar   24  TRP24       0.0015
     15  N         72.5850   13.1890   -6.4790 N.am   25  PRO25      -0.2718
     16  CA        73.2440   12.0950   -7.2050 C.3    25  PRO25       0.1535
     17  C         73.3450   10.8030   -6.4000 C.2    25  PRO25       0.2598
     18  O         73.6720    9.7710   -6.9890 O.2    25  PRO25      -0.2715
     19  CB        74.6610   12.6250   -7.4650 C.3    25  PRO25       0.0310
     20  CG        74.5840   14.1170   -7.2130 C.3    25  PRO25       0.0237
     21  CD        73.5260   14.2700   -6.1510 C.3    25  PRO25       0.0939
     22  N         73.0820   10.8650   -5.0950 N.am   26  PHE26      -0.1974
     23  CA        73.2300    9.7090   -4.2250 C.3    26  PHE26       0.1639
     24  C         71.8900    9.0810   -3.8310 C.2    26  PHE26       0.2290
     25  O         71.8720    8.1240   -3.0740 O.2    26  PHE26      -0.2864
     26  CB        73.9780   10.1170   -2.9470 C.3    26  PHE26       0.0560
     27  CG        75.3330   10.7020   -3.1980 C.ar   26  PHE26      -0.0200
     28  CD1       76.4440    9.8780   -3.3250 C.ar   26  PHE26      -0.0042
     29  CD2       75.5060   12.0790   -3.2890 C.ar   26  PHE26      -0.0042
     30  CE1       77.7150   10.4260   -3.5560 C.ar   26  PHE26      -0.0003
     31  CE2       76.7740   12.6270   -3.5130 C.ar   26  PHE26      -0.0003
     32  CZ        77.8720   11.8020   -3.6470 C.ar   26  PHE26      -0.0000
     33  N         69.8190    7.3280   -5.5720 N.3    28  GLN28      -0.1245
     34  CA        69.5320    6.0840   -6.2820 C.3    28  GLN28       0.1566
     35  C         70.8580    5.4490   -6.6910 C.2    28  GLN28       0.2260
     36  O         71.8840    6.1280   -6.7030 O.2    28  GLN28      -0.2867
     37  CB        68.6850    6.3670   -7.5310 C.3    28  GLN28       0.0367
     38  CG        69.3270    7.3210   -8.5250 C.3    28  GLN28       0.0905
     39  CD        69.3410    8.7750   -8.0370 C.2    28  GLN28       0.2608
     40  OE1       68.3180    9.3070   -7.5780 O.2    28  GLN28      -0.2717
     41  NE2       70.4990    9.4200   -8.1400 N.am   28  GLN28      -0.0878
     42  N         74.0390    4.2790   -8.6950 N.3    30  VAL30      -0.1231
     43  CA        74.7520    4.7480   -9.8670 C.3    30  VAL30       0.1692
     44  C         74.2960    3.9240  -11.0740 C.2    30  VAL30       0.2592
     45  O         74.3880    2.6990  -11.0730 O.2    30  VAL30      -0.2718
     46  CB        76.2810    4.5940   -9.6890 C.3    30  VAL30       0.0266
     47  CG1       77.0140    4.9320  -10.9960 C.3    30  VAL30       0.0020
     48  CG2       76.7900    5.4690   -8.5280 C.3    30  VAL30       0.0020
     49  N         73.8060    4.6000  -12.1030 N.am   31  ASP31      -0.1974
     50  CA        73.3740    3.9100  -13.3190 C.3    31  ASP31       0.1709
     51  C         74.4850    4.0280  -14.3600 C.2    31  ASP31       0.2293
     52  O         74.6320    5.0600  -14.9900 O.2    31  ASP31      -0.2864
     53  CB        72.0640    4.5360  -13.8260 C.3    31  ASP31       0.1436
     54  CG        71.5140    3.8370  -15.0640 C.2    31  ASP31       0.3671
     55  OD1       72.2880    3.1480  -15.7560 O.co2  31  ASP31      -0.2456
     56  OD2       70.3080    3.9890  -15.3500 O.co2  31  ASP31      -0.2456
     57  N         73.3430    4.9440  -18.0680 N.3    34  LYS34      -0.1231
     58  CA        72.9340    6.3460  -18.1440 C.3    34  LYS34       0.1693
     59  C         74.1240    7.3030  -18.0900 C.2    34  LYS34       0.2591
     60  O         74.1980    8.2640  -18.8640 O.2    34  LYS34      -0.2718
     61  CB        71.9500    6.6510  -17.0100 C.3    34  LYS34       0.0285
     62  CG        71.5180    8.1120  -16.9150 C.3    34  LYS34       0.0035
     63  CD        70.4320    8.2380  -15.8620 C.3    34  LYS34       0.0206
     64  CE        70.5390    9.5340  -15.0890 C.3    34  LYS34       0.1093
     65  NZ        69.5910    9.5310  -13.9400 N.3    34  LYS34      -0.1314
     66  N         75.0670    7.0330  -17.1830 N.am   35  LEU35      -0.1980
     67  CA        76.2360    7.9010  -16.9990 C.3    35  LEU35       0.1596
     68  C         77.4070    7.5780  -17.9200 C.2    35  LEU35       0.2287
     69  O         78.3950    8.3100  -17.9440 O.2    35  LEU35      -0.2864
     70  CB        76.7160    7.8700  -15.5370 C.3    35  LEU35       0.0297
     71  CG        75.6900    8.3260  -14.4930 C.3    35  LEU35       0.0022
     72  CD1       76.1340    7.9650  -13.0710 C.3    35  LEU35       0.0001
     73  CD2       75.4270    9.8150  -14.5920 C.3    35  LEU35       0.0001
     74  N         79.5710    4.8440  -17.9780 N.3    37  LEU37      -0.1245
     75  CA        80.7140    4.3930  -17.1860 C.3    37  LEU37       0.1561
     76  C         80.8370    2.8770  -17.2450 C.2    37  LEU37       0.2260
     77  O         80.5080    2.1880  -16.2870 O.2    37  LEU37      -0.2867
     78  CB        80.5250    4.8210  -15.7270 C.3    37  LEU37       0.0270
     79  CG        80.1170    6.2710  -15.4720 C.3    37  LEU37       0.0019
     80  CD1       79.7500    6.4810  -14.0030 C.3    37  LEU37       0.0001
     81  CD2       81.2140    7.2290  -15.8950 C.3    37  LEU37       0.0001
     82  N         82.4370    1.0340  -14.3040 N.3    40  TYR40      -0.1241
     83  CA        81.9970    1.2810  -12.9240 C.3    40  TYR40       0.1605
     84  C         81.9120    0.0160  -12.0650 C.2    40  TYR40       0.2264
     85  O         82.4410   -0.0260  -10.9550 O.2    40  TYR40      -0.2867
     86  CB        80.6740    2.0680  -12.8510 C.3    40  TYR40       0.0534
     87  CG        80.3350    2.4410  -11.4160 C.ar   40  TYR40      -0.0201
     88  CD1       80.9170    3.5530  -10.8180 C.ar   40  TYR40      -0.0009
     89  CD2       79.4650    1.6680  -10.6540 C.ar   40  TYR40      -0.0009
     90  CE1       80.6350    3.8920   -9.4850 C.ar   40  TYR40       0.0417
     91  CE2       79.1790    1.9990   -9.3250 C.ar   40  TYR40       0.0417
     92  CZ        79.7630    3.1150   -8.7540 C.ar   40  TYR40       0.1957
     93  OH        79.4820    3.4410   -7.4420 O.3    40  TYR40      -0.2866
     94  N         82.5360    6.3830   -3.9580 N.3    79  CYS79      -0.1235
     95  CA        82.6200    7.6340   -4.7030 C.3    79  CYS79       0.1677
     96  C         84.0680    8.1270   -4.7730 C.2    79  CYS79       0.2270
     97  O         84.5610    8.5110   -5.8530 O.2    79  CYS79      -0.2867
     98  CB        81.7020    8.6780   -4.0570 C.3    79  CYS79       0.0956
     99  SG        81.6310   10.2730   -4.9280 S.3    79  CYS79      -0.0801
    100  N         86.2160    5.6530   -7.0440 N.3    82  TYR82      -0.1227
    101  CA        85.9500    5.5940   -8.4800 C.3    82  TYR82       0.1736
    102  C         86.3180    6.8790   -9.2200 C.2    82  TYR82       0.2595
    103  O         86.8950    6.8500  -10.3150 O.2    82  TYR82      -0.2718
    104  CB        84.4880    5.2340   -8.7680 C.3    82  TYR82       0.0548
    105  CG        84.2490    5.2240  -10.2540 C.ar   82  TYR82      -0.0200
    106  CD1       84.7190    4.1740  -11.0340 C.ar   82  TYR82      -0.0009
    107  CD2       83.6160    6.2890  -10.8870 C.ar   82  TYR82      -0.0009
    108  CE1       84.5510    4.1690  -12.4040 C.ar   82  TYR82       0.0417
    109  CE2       83.4410    6.2930  -12.2760 C.ar   82  TYR82       0.0417
    110  CZ        83.9140    5.2240  -13.0180 C.ar   82  TYR82       0.1957
    111  OH        83.7480    5.2120  -14.3860 O.3    82  TYR82      -0.2866
    112  N         85.9900    8.0150   -8.6130 N.am   83  ASN83      -0.1974
    113  CA        86.0620    9.2840   -9.3250 C.3    83  ASN83       0.1688
    114  C         87.4350    9.9460   -9.2780 C.2    83  ASN83       0.2292
    115  O         88.2780    9.5990   -8.4430 O.2    83  ASN83      -0.2864
    116  CB        84.9850   10.2270   -8.7900 C.3    83  ASN83       0.1181
    117  CG        83.5860    9.7590   -9.1410 C.2    83  ASN83       0.2629
    118  OD1       83.1260    9.9460  -10.2700 O.2    83  ASN83      -0.2716
    119  ND2       82.8930    9.1500   -8.1740 N.am   83  ASN83      -0.0877
    120  N         83.5360   17.1660   -9.2750 N.3    88  ASP88      -0.1225
    121  CA        82.5990   17.8070   -8.3500 C.3    88  ASP88       0.1805
    122  C         81.9040   16.8210   -7.4180 C.2    88  ASP88       0.2597
    123  O         81.5830   17.1700   -6.2800 O.2    88  ASP88      -0.2718
    124  CB        81.5330   18.5990   -9.1090 C.3    88  ASP88       0.1424
    125  CG        82.0960   19.8480   -9.7850 C.2    88  ASP88       0.3668
    126  OD1       83.2660   20.1940   -9.5290 O.co2  88  ASP88      -0.2456
    127  OD2       81.3530   20.4680  -10.5750 O.co2  88  ASP88      -0.2456
    128  N         81.6620   15.5970   -7.8930 N.am   89  ILE89      -0.1980
    129  CA        80.9310   14.6330   -7.0770 C.3    89  ILE89       0.1595
    130  C         81.6960   14.3450   -5.7800 C.2    89  ILE89       0.2287
    131  O         81.0950   14.0810   -4.7290 O.2    89  ILE89      -0.2864
    132  CB        80.6190   13.3300   -7.8530 C.3    89  ILE89       0.0276
    133  CG1       79.6050   12.4810   -7.0820 C.3    89  ILE89       0.0022
    134  CG2       81.9080   12.5580   -8.1540 C.3    89  ILE89       0.0022
    135  CD1       78.1910   13.0570   -7.0880 C.3    89  ILE89       0.0001
    136  N         80.8100   17.0140   -3.3040 N.3    92  MET92      -0.1245
    137  CA        79.4610   16.7740   -2.8170 C.3    92  MET92       0.1570
    138  C         79.4600   15.6520   -1.7710 C.2    92  MET92       0.2261
    139  O         78.8740   15.7980   -0.6900 O.2    92  MET92      -0.2867
    140  CB        78.5220   16.4650   -3.9830 C.3    92  MET92       0.0387
    141  CG        78.4880   17.6130   -5.0060 C.3    92  MET92       0.0595
    142  SD        77.6640   17.2090   -6.5520 S.3    92  MET92      -0.1393
    143  CE        75.9580   17.4660   -6.0900 C.3    92  MET92       0.0692
@<TRIPOS>BOND
     1    60    59    2
     2    58    59    1
     3    58    57    1
     4    58    61    1
     5    59    66   am
     6    74    75    1
     7    69    68    2
     8    68    67    1
     9    76    75    1
    10    76    77    2
    11    75    78    1
    12    66    67    1
    13    61    62    1
    14    67    70    1
    15    62    63    1
    16    81    79    1
    17    63    64    1
    18    55    54   ar
    19    78    79    1
    20    70    71    1
    21    79    80    1
    22    56    54   ar
    23    64    65    1
    24    54    53    1
    25    52    51    2
    26    73    71    1
    27    71    72    1
    28   111   110    1
    29    51    50    1
    30    82    83    1
    31    53    50    1
    32    50    49    1
    33   110   108   ar
    34   110   109   ar
    35    83    86    1
    36    83    84    1
    37    86    87    1
    38   108   106   ar
    39   109   107   ar
    40    49    44   am
    41    84    85    2
    42    87    88   ar
    43    87    89   ar
    44    44    45    2
    45    44    43    1
    46   106   105   ar
    47    47    46    1
    48   107   105   ar
    49    88    90   ar
    50    89    91   ar
    51    14    13   ar
    52    14    12   ar
    53   127   125   ar
    54    13    11   ar
    55   103   102    2
    56   118   117    2
    57   105   104    1
    58    43    46    1
    59    43    42    1
    60   125   126   ar
    61   125   124    1
    62    46    48    1
    63    12    10   ar
    64    90    92   ar
    65    91    92   ar
    66   113   114    1
    67   113   116    1
    68   113   112    1
    69    11     8   ar
    70   114   115    2
    71   120   121    1
    72   102   112   am
    73   102   101    1
    74   117   116    1
    75   117   119   am
    76   124   121    1
    77   104   101    1
    78    92    93    1
    79    10     8   ar
    80    10     9   ar
    81    38    39    1
    82    38    37    1
    83   101   100    1
    84   121   122    1
    85     8     6   ar
    86   134   132    1
    87    41    39   am
    88    39    40    2
    89   128   122   am
    90   128   129    1
    91   132   133    1
    92   132   129    1
    93    37    34    1
    94    19    20    1
    95    19    16    1
    96     9     7   ar
    97   122   123    2
    98    20    21    1
    99    16    15    1
   100    16    17    1
   101     6     7   ar
   102     6     5    1
   103   135   133    1
   104   129   130    1
   105    18    17    2
   106    36    35    2
   107    35    34    1
   108     4     3    2
   109   142   143    1
   110   142   141    1
   111    15     3   am
   112    15    21    1
   113     5     2    1
   114    17    22   am
   115     3     2    1
   116    34    33    1
   117    97    96    2
   118   130   131    2
   119     2     1    1
   120    22    23    1
   121   141   140    1
   122    99    98    1
   123    96    95    1
   124    95    98    1
   125    95    94    1
   126    23    24    1
   127    23    26    1
   128   140   137    1
   129    24    25    2
   130    32    30   ar
   131    32    31   ar
   132    30    28   ar
   133    31    29   ar
   134    28    27   ar
   135   136   137    1
   136    29    27   ar
   137    27    26    1
   138   137   138    1
   139   138   139    2
