@<TRIPOS>MOLECULE
tmp/6mo8B00.pdb
 158 156 0 0 0
SMALL
GASTEIGER

@<TRIPOS>ATOM
      1  N        100.4170    0.6210   10.2340 N.3    22  TRP22      -0.1228
      2  CA       101.7350    1.2520   10.1380 C.3    22  TRP22       0.1722
      3  C        101.8920    2.3930    9.0910 C.2    22  TRP22       0.2437
      4  O        102.5890    3.3820    9.3560 O.2    22  TRP22      -0.2733
      5  CB       102.8420    0.1980   10.0060 C.3    22  TRP22       0.0563
      6  CG       102.7540   -0.6370    8.7670 C.ar   22  TRP22       0.0003
      7  CD1      102.0270   -1.7800    8.5860 C.ar   22  TRP22       0.0946
      8  CD2      103.4340   -0.3920    7.5380 C.ar   22  TRP22       0.0152
      9  NE1      102.2160   -2.2620    7.3070 N.ar   22  TRP22      -0.2442
     10  CE2      103.0740   -1.4200    6.6470 C.ar   22  TRP22       0.0810
     11  CE3      104.3090    0.6070    7.1020 C.ar   22  TRP22       0.0012
     12  CZ2      103.5620   -1.4800    5.3430 C.ar   22  TRP22       0.0191
     13  CZ3      104.7950    0.5440    5.8100 C.ar   22  TRP22       0.0001
     14  CH2      104.4200   -0.4920    4.9470 C.ar   22  TRP22       0.0015
     15  N        101.2450    2.2810    7.9130 N.am   23  PRO23      -0.2718
     16  CA       101.4670    3.3790    6.9570 C.3    23  PRO23       0.1535
     17  C        100.7400    4.6490    7.3680 C.2    23  PRO23       0.2598
     18  O        100.9870    5.7170    6.7780 O.2    23  PRO23      -0.2715
     19  CB       100.8530    2.8570    5.6490 C.3    23  PRO23       0.0310
     20  CG       100.6680    1.3530    5.8610 C.3    23  PRO23       0.0237
     21  CD       100.4120    1.2100    7.3390 C.3    23  PRO23       0.0939
     22  N         99.8430    4.5310    8.3400 N.am   24  PHE24      -0.1974
     23  CA        99.0070    5.6600    8.7630 C.3    24  PHE24       0.1639
     24  C         99.4660    6.3740   10.0370 C.2    24  PHE24       0.2290
     25  O         98.8440    7.3510   10.4500 O.2    24  PHE24      -0.2864
     26  CB        97.5500    5.1990    8.9480 C.3    24  PHE24       0.0560
     27  CG        96.9410    4.6230    7.6960 C.ar   24  PHE24      -0.0200
     28  CD1       96.2720    5.4350    6.7980 C.ar   24  PHE24      -0.0042
     29  CD2       97.0370    3.2630    7.4210 C.ar   24  PHE24      -0.0042
     30  CE1       95.7170    4.9020    5.6330 C.ar   24  PHE24      -0.0003
     31  CE2       96.4820    2.7250    6.2580 C.ar   24  PHE24      -0.0003
     32  CZ        95.8240    3.5380    5.3680 C.ar   24  PHE24      -0.0000
     33  N        102.1320    8.1040   10.6630 N.3    26  GLN26      -0.1231
     34  CA       102.8660    9.3500   10.4220 C.3    26  GLN26       0.1683
     35  C        102.4340    9.9320    9.0870 C.2    26  GLN26       0.2434
     36  O        101.8040    9.2450    8.2830 O.2    26  GLN26      -0.2733
     37  CB       104.3810    9.1050   10.4210 C.3    26  GLN26       0.0380
     38  CG       104.8390    8.0520    9.4190 C.3    26  GLN26       0.0905
     39  CD       104.3020    6.6560    9.7460 C.2    26  GLN26       0.2608
     40  OE1      104.4740    6.1540   10.8590 O.2    26  GLN26      -0.2717
     41  NE2      103.6330    6.0350    8.7740 N.am   26  GLN26      -0.0878
     42  N        102.7700   11.2060    8.8360 N.am   27  PRO27      -0.2718
     43  CA       102.3670   11.8070    7.5630 C.3    27  PRO27       0.1535
     44  C        102.9640   11.0590    6.3780 C.2    27  PRO27       0.2598
     45  O        104.0680   10.5050    6.4590 O.2    27  PRO27      -0.2715
     46  CB       102.9590   13.2250    7.6360 C.3    27  PRO27       0.0310
     47  CG       103.0900   13.5000    9.1090 C.3    27  PRO27       0.0237
     48  CD       103.4140   12.1730    9.7410 C.3    27  PRO27       0.0939
     49  N        102.2230   11.0310    5.2840 N.am   28  VAL28      -0.1964
     50  CA       102.7480   10.5390    4.0220 C.3    28  VAL28       0.1727
     51  C        104.0060   11.3380    3.6840 C.2    28  VAL28       0.2616
     52  O        103.9840   12.5670    3.6810 O.2    28  VAL28      -0.2715
     53  CB       101.7110   10.7000    2.8900 C.3    28  VAL28       0.0290
     54  CG1      102.3300   10.3680    1.5300 C.3    28  VAL28       0.0023
     55  CG2      100.4790    9.8170    3.1640 C.3    28  VAL28       0.0023
     56  N        105.1030   10.6340    3.4140 N.am   29  ASP29      -0.1971
     57  CA       106.3610   11.2760    3.0470 C.3    29  ASP29       0.1709
     58  C        106.5530   11.1240    1.5440 C.2    29  ASP29       0.2293
     59  O        107.0510   10.1000    1.0730 O.2    29  ASP29      -0.2864
     60  CB       107.5280   10.6380    3.8090 C.3    29  ASP29       0.1436
     61  CG       108.8430   11.3580    3.5710 C.2    29  ASP29       0.3671
     62  OD1      108.9760   12.0120    2.5210 O.co2  29  ASP29      -0.2456
     63  OD2      109.7400   11.2680    4.4360 O.co2  29  ASP29      -0.2456
     64  N        110.2220   10.4550    0.1400 N.3    32  LYS32      -0.1231
     65  CA       110.6670    9.0920    0.3890 C.3    32  LYS32       0.1693
     66  C        109.9230    8.0780   -0.4790 C.2    32  LYS32       0.2591
     67  O        110.5150    7.1060   -0.9540 O.2    32  LYS32      -0.2718
     68  CB       110.5250    8.7510    1.8720 C.3    32  LYS32       0.0285
     69  CG       111.3730    7.5730    2.3220 C.3    32  LYS32       0.0035
     70  CD       111.4880    7.5380    3.8390 C.3    32  LYS32       0.0206
     71  CE       110.5490    6.5130    4.4570 C.3    32  LYS32       0.1093
     72  NZ       111.2820    5.2850    4.8820 N.3    32  LYS32      -0.1314
     73  N        108.6300    8.3110   -0.6980 N.am   33  LEU33      -0.1980
     74  CA       107.8150    7.3850   -1.4810 C.3    33  LEU33       0.1596
     75  C        107.8380    7.6720   -2.9820 C.2    33  LEU33       0.2287
     76  O        107.2310    6.9460   -3.7690 O.2    33  LEU33      -0.2864
     77  CB       106.3660    7.3750   -0.9720 C.3    33  LEU33       0.0297
     78  CG       106.1460    6.8590    0.4510 C.3    33  LEU33       0.0022
     79  CD1      104.7530    7.1940    0.9490 C.3    33  LEU33       0.0001
     80  CD2      106.4080    5.3570    0.5410 C.3    33  LEU33       0.0001
     81  N        106.4670   10.2320   -4.7240 N.3    35  LEU35      -0.1245
     82  CA       105.1420   10.6370   -5.1860 C.3    35  LEU35       0.1561
     83  C        105.1040   12.1560   -5.3310 C.2    35  LEU35       0.2260
     84  O        104.5180   12.8490   -4.4990 O.2    35  LEU35      -0.2867
     85  CB       104.0850   10.1990   -4.1680 C.3    35  LEU35       0.0270
     86  CG       104.1590    8.7480   -3.6800 C.3    35  LEU35       0.0019
     87  CD1      103.2700    8.5260   -2.4550 C.3    35  LEU35       0.0001
     88  CD2      103.7920    7.7850   -4.7900 C.3    35  LEU35       0.0001
     89  N        101.8080   14.0440   -4.9810 N.3    38  TYR38      -0.1241
     90  CA       100.9700   13.8480   -3.7900 C.3    38  TYR38       0.1605
     91  C        100.3690   15.1470   -3.2610 C.2    38  TYR38       0.2264
     92  O         99.1520   15.2700   -3.0880 O.2    38  TYR38      -0.2867
     93  CB       101.7130   13.1120   -2.6640 C.3    38  TYR38       0.0534
     94  CG       100.7730   12.7670   -1.5310 C.ar   38  TYR38      -0.0201
     95  CD1       99.9370   11.6540   -1.6090 C.ar   38  TYR38      -0.0009
     96  CD2      100.6790   13.5750   -0.4120 C.ar   38  TYR38      -0.0009
     97  CE1       99.0580   11.3450   -0.5750 C.ar   38  TYR38       0.0417
     98  CE2       99.7900   13.2860    0.6150 C.ar   38  TYR38       0.0417
     99  CZ        98.9800   12.1680    0.5230 C.ar   38  TYR38       0.1957
    100  OH        98.1030   11.8790    1.5410 O.3    38  TYR38      -0.2866
    101  N         91.6300   10.9500    1.9300 N.3    76  ASN76      -0.1225
    102  CA        92.8260   11.3080    1.1750 C.3    76  ASN76       0.1785
    103  C         93.3720   10.0550    0.5050 C.2    76  ASN76       0.2597
    104  O         93.7650   10.0570   -0.6650 O.2    76  ASN76      -0.2718
    105  CB        93.9200   11.8720    2.0990 C.3    76  ASN76       0.1169
    106  CG        93.6700   13.3240    2.5230 C.2    76  ASN76       0.2627
    107  OD1       92.8430   14.0500    1.9440 O.2    76  ASN76      -0.2716
    108  ND2       94.3930   13.7500    3.5480 N.am   76  ASN76      -0.0877
    109  N         93.4090    8.9820    1.2810 N.am   77  CYS77      -0.1970
    110  CA        93.9140    7.6980    0.7930 C.3    77  CYS77       0.1712
    111  C         93.0980    7.2020   -0.4110 C.2    77  CYS77       0.2296
    112  O         93.6560    6.7850   -1.4300 O.2    77  CYS77      -0.2864
    113  CB        93.8820    6.6810    1.9320 C.3    77  CYS77       0.0983
    114  SG        94.6470    5.0960    1.4980 S.3    77  CYS77      -0.0798
    115  N         93.6510    9.7290   -3.6210 N.3    80  TYR80      -0.1227
    116  CA        94.9620    9.7710   -4.2620 C.3    80  TYR80       0.1736
    117  C         95.3390    8.4570   -4.9490 C.2    80  TYR80       0.2595
    118  O         95.8820    8.4570   -6.0560 O.2    80  TYR80      -0.2718
    119  CB        96.0680   10.1550   -3.2610 C.3    80  TYR80       0.0548
    120  CG        97.4220   10.0620   -3.9060 C.ar   80  TYR80      -0.0200
    121  CD1       97.8570   11.0490   -4.7790 C.ar   80  TYR80      -0.0009
    122  CD2       98.2440    8.9630   -3.6910 C.ar   80  TYR80      -0.0009
    123  CE1       99.0900   10.9550   -5.4190 C.ar   80  TYR80       0.0417
    124  CE2       99.4770    8.8550   -4.3310 C.ar   80  TYR80       0.0417
    125  CZ        99.8940    9.8620   -5.1830 C.ar   80  TYR80       0.1957
    126  OH       101.1180    9.7630   -5.8170 O.3    80  TYR80      -0.2866
    127  N         95.0440    7.3380   -4.2960 N.am   81  ASN81      -0.1974
    128  CA        95.5480    6.0440   -4.7550 C.3    81  ASN81       0.1688
    129  C         94.7060    5.3680   -5.8330 C.2    81  ASN81       0.2292
    130  O         93.5310    5.6940   -6.0290 O.2    81  ASN81      -0.2864
    131  CB        95.7360    5.1010   -3.5560 C.3    81  ASN81       0.1181
    132  CG        96.8450    5.5600   -2.6320 C.2    81  ASN81       0.2629
    133  OD1       98.0270    5.3700   -2.9230 O.2    81  ASN81      -0.2716
    134  ND2       96.4710    6.1820   -1.5160 N.am   81  ASN81      -0.0877
    135  N         96.9980   -1.8420   -2.5720 N.3    86  ASP86      -0.1225
    136  CA        96.8260   -2.4610   -1.2560 C.3    86  ASP86       0.1805
    137  C         96.4680   -1.4520   -0.1630 C.2    86  ASP86       0.2597
    138  O         95.7090   -1.7700    0.7560 O.2    86  ASP86      -0.2718
    139  CB        98.1010   -3.1870   -0.8020 C.3    86  ASP86       0.1424
    140  CG        98.4200   -4.4170   -1.6330 C.2    86  ASP86       0.3668
    141  OD1       97.5560   -4.8780   -2.4070 O.co2  86  ASP86      -0.2456
    142  OD2       99.5500   -4.9250   -1.4950 O.co2  86  ASP86      -0.2456
    143  N         97.0400   -0.2500   -0.2310 N.am   87  ILE87      -0.1980
    144  CA        96.8150    0.7290    0.8310 C.3    87  ILE87       0.1595
    145  C         95.3220    1.0550    0.9450 C.2    87  ILE87       0.2287
    146  O         94.8220    1.3500    2.0240 O.2    87  ILE87      -0.2864
    147  CB        97.6550    2.0260    0.6100 C.3    87  ILE87       0.0276
    148  CG1       97.6370    2.9100    1.8700 C.3    87  ILE87       0.0022
    149  CG2       97.1430    2.8070   -0.6020 C.3    87  ILE87       0.0022
    150  CD1       98.4050    2.3670    3.0590 C.3    87  ILE87       0.0001
    151  N         93.7390   -1.5680    3.0640 N.3    90  MET90      -0.1245
    152  CA        94.1790   -1.3670    4.4390 C.3    90  MET90       0.1570
    153  C         93.3760   -0.2280    5.0830 C.2    90  MET90       0.2261
    154  O         92.8990   -0.3500    6.2180 O.2    90  MET90      -0.2867
    155  CB        95.6840   -1.0930    4.4600 C.3    90  MET90       0.0387
    156  CG        96.5170   -2.2880    3.9500 C.3    90  MET90       0.0595
    157  SD        98.2430   -1.8720    3.5980 S.3    90  MET90      -0.1393
    158  CE        98.9220   -1.8980    5.2600 C.3    90  MET90       0.0692
@<TRIPOS>BOND
     1   118   117    2
     2   130   129    2
     3   129   128    1
     4   126   125    1
     5   123   125   ar
     6   123   121   ar
     7    83    82    1
     8    83    84    2
     9    82    81    1
    10    82    85    1
    11   125   124   ar
    12    89    90    1
    13   117   127   am
    14   117   116    1
    15    88    86    1
    16   121   120   ar
    17   128   127    1
    18   128   131    1
    19   124   122   ar
    20   116   115    1
    21   116   119    1
    22    85    86    1
    23   120   122   ar
    24   120   119    1
    25    90    91    1
    26    90    93    1
    27    76    75    2
    28    86    87    1
    29   131   132    1
    30    91    92    2
    31    75    74    1
    32   133   132    2
    33    93    94    1
    34   132   134   am
    35   135   136    1
    36   141   140   ar
    37   140   142   ar
    38   140   139    1
    39    95    94   ar
    40    95    97   ar
    41    94    96   ar
    42    74    77    1
    43    74    73    1
    44   112   111    2
    45   136   139    1
    46   136   137    1
    47    77    78    1
    48    67    66    2
    49    73    66   am
    50   104   103    2
    51   149   147    1
    52    97    99   ar
    53    66    65    1
    54    96    98   ar
    55   111   110    1
    56   143   137   am
    57   143   144    1
    58   137   138    2
    59    64    65    1
    60    65    68    1
    61    78    80    1
    62    78    79    1
    63   103   102    1
    64   103   109   am
    65    99    98   ar
    66    99   100    1
    67   147   144    1
    68   147   148    1
    69   110   109    1
    70   110   113    1
    71   144   145    1
    72   145   146    2
    73    59    58    2
    74   102   101    1
    75   102   105    1
    76   114   113    1
    77    54    53    1
    78    58    57    1
    79   148   150    1
    80    68    69    1
    81   107   106    2
    82   105   106    1
    83    69    70    1
    84    62    61   ar
    85   106   108   am
    86    53    55    1
    87    53    50    1
    88    57    56    1
    89    57    60    1
    90   151   152    1
    91    56    51   am
    92    61    60    1
    93    61    63   ar
    94   157   156    1
    95   157   158    1
    96    52    51    2
    97    51    50    1
    98    70    71    1
    99   156   155    1
   100    50    49    1
   101   152   155    1
   102   152   153    1
   103    71    72    1
   104    14    12   ar
   105    14    13   ar
   106   153   154    2
   107    49    44   am
   108    12    10   ar
   109    32    30   ar
   110    32    31   ar
   111    30    28   ar
   112    19    20    1
   113    19    16    1
   114    13    11   ar
   115    20    21    1
   116    31    29   ar
   117    44    45    2
   118    44    43    1
   119    10     9   ar
   120    10     8   ar
   121    18    17    2
   122    28    27   ar
   123    16    17    1
   124    16    15    1
   125    11     8   ar
   126     9     7   ar
   127    21    15    1
   128    17    22   am
   129    29    27   ar
   130     8     6   ar
   131    43    46    1
   132    43    42    1
   133    46    47    1
   134    27    26    1
   135    15     3   am
   136    36    35    2
   137    22    23    1
   138     7     6   ar
   139    23    26    1
   140    23    24    1
   141     6     5    1
   142    41    39   am
   143    42    35   am
   144    42    48    1
   145    35    34    1
   146     3     4    2
   147     3     2    1
   148    47    48    1
   149    38    39    1
   150    38    37    1
   151    39    40    2
   152     5     2    1
   153    24    25    2
   154     2     1    1
   155    37    34    1
   156    34    33    1
