@<TRIPOS>MOLECULE
tmp/6mo9B00.pdb
 158 156 0 0 0
SMALL
GASTEIGER

@<TRIPOS>ATOM
      1  N         70.6100    0.8640   23.9100 N.3    22  TRP22      -0.1228
      2  CA        69.2850    1.4830   23.9680 C.3    22  TRP22       0.1722
      3  C         69.1300    2.6170   25.0010 C.2    22  TRP22       0.2437
      4  O         68.4450    3.6100   24.7280 O.2    22  TRP22      -0.2733
      5  CB        68.1720    0.4320   24.1000 C.3    22  TRP22       0.0563
      6  CG        68.2370   -0.4010   25.3460 C.ar   22  TRP22       0.0003
      7  CD1       68.8940   -1.5860   25.5070 C.ar   22  TRP22       0.0946
      8  CD2       67.6100   -0.1140   26.6010 C.ar   22  TRP22       0.0152
      9  NE1       68.7200   -2.0520   26.7880 N.ar   22  TRP22      -0.2442
     10  CE2       67.9300   -1.1710   27.4770 C.ar   22  TRP22       0.0810
     11  CE3       66.8070    0.9290   27.0660 C.ar   22  TRP22       0.0012
     12  CZ2       67.4820   -1.2090   28.7950 C.ar   22  TRP22       0.0191
     13  CZ3       66.3640    0.8900   28.3720 C.ar   22  TRP22       0.0001
     14  CH2       66.7010   -0.1740   29.2230 C.ar   22  TRP22       0.0015
     15  N         69.7770    2.5010   26.1770 N.am   23  PRO23      -0.2718
     16  CA        69.5880    3.6200   27.1160 C.3    23  PRO23       0.1535
     17  C         70.2990    4.9030   26.6990 C.2    23  PRO23       0.2598
     18  O         70.0650    5.9440   27.3140 O.2    23  PRO23      -0.2715
     19  CB        70.2230    3.1110   28.4130 C.3    23  PRO23       0.0310
     20  CG        70.2940    1.5800   28.2520 C.3    23  PRO23       0.0237
     21  CD        70.5670    1.4080   26.7750 C.3    23  PRO23       0.0939
     22  N         71.1730    4.8070   25.7110 N.am   24  PHE24      -0.1974
     23  CA        72.0340    5.9130   25.3160 C.3    24  PHE24       0.1639
     24  C         71.6330    6.5890   24.0010 C.2    24  PHE24       0.2290
     25  O         72.3240    7.5120   23.5420 O.2    24  PHE24      -0.2864
     26  CB        73.4720    5.4130   25.1720 C.3    24  PHE24       0.0560
     27  CG        74.0520    4.8460   26.4420 C.ar   24  PHE24      -0.0200
     28  CD1       74.7150    5.6590   27.3360 C.ar   24  PHE24      -0.0042
     29  CD2       73.9430    3.4820   26.7240 C.ar   24  PHE24      -0.0042
     30  CE1       75.2560    5.1310   28.5140 C.ar   24  PHE24      -0.0003
     31  CE2       74.4880    2.9450   27.8920 C.ar   24  PHE24      -0.0003
     32  CZ        75.1450    3.7590   28.7840 C.ar   24  PHE24      -0.0000
     33  N         69.0280    8.4040   23.2170 N.3    26  GLN26      -0.1231
     34  CA        68.2750    9.6450   23.3620 C.3    26  GLN26       0.1683
     35  C         68.6510   10.2270   24.7140 C.2    26  GLN26       0.2434
     36  O         69.1930    9.5220   25.5590 O.2    26  GLN26      -0.2733
     37  CB        66.7680    9.3610   23.3090 C.3    26  GLN26       0.0380
     38  CG        66.2870    8.3900   24.3620 C.3    26  GLN26       0.0905
     39  CD        66.7370    6.9660   24.0760 C.2    26  GLN26       0.2608
     40  OE1       66.5380    6.4500   22.9690 O.2    26  GLN26      -0.2717
     41  NE2       67.3570    6.3250   25.0690 N.am   26  GLN26      -0.0878
     42  N         68.3690   11.5160   24.9380 N.am   27  PRO27      -0.2718
     43  CA        68.7840   12.0980   26.2190 C.3    27  PRO27       0.1535
     44  C         68.1190   11.4190   27.4110 C.2    27  PRO27       0.2598
     45  O         67.0170   10.8770   27.2930 O.2    27  PRO27      -0.2715
     46  CB        68.3150   13.5570   26.1140 C.3    27  PRO27       0.0310
     47  CG        68.2630   13.8270   24.6500 C.3    27  PRO27       0.0237
     48  CD        67.8570   12.5250   23.9990 C.3    27  PRO27       0.0939
     49  N         68.8110   11.4210   28.5440 N.am   28  VAL28      -0.1964
     50  CA        68.2270   10.9810   29.8020 C.3    28  VAL28       0.1727
     51  C         67.0200   11.8620   30.1190 C.2    28  VAL28       0.2616
     52  O         67.1350   13.0860   30.1600 O.2    28  VAL28      -0.2715
     53  CB        69.2660   11.0810   30.9410 C.3    28  VAL28       0.0290
     54  CG1       68.6120   10.9170   32.3140 C.3    28  VAL28       0.0023
     55  CG2       70.3800   10.0540   30.7320 C.3    28  VAL28       0.0023
     56  N         65.8580   11.2370   30.3030 N.am   29  ASP29      -0.1971
     57  CA        64.6370   11.9640   30.6580 C.3    29  ASP29       0.1709
     58  C         64.4390   11.8860   32.1610 C.2    29  ASP29       0.2293
     59  O         63.8760   10.9140   32.6770 O.2    29  ASP29      -0.2864
     60  CB        63.4280   11.3730   29.9300 C.3    29  ASP29       0.1436
     61  CG        62.1420   12.1470   30.1960 C.2    29  ASP29       0.3671
     62  OD1       62.0490   12.8480   31.2250 O.co2  29  ASP29      -0.2456
     63  OD2       61.2150   12.0420   29.3700 O.co2  29  ASP29      -0.2456
     64  N         60.6370   11.3920   33.4340 N.3    32  LYS32      -0.1231
     65  CA        60.1200   10.0450   33.2120 C.3    32  LYS32       0.1693
     66  C         60.7660    9.0050   34.1240 C.2    32  LYS32       0.2591
     67  O         60.0820    8.1360   34.6670 O.2    32  LYS32      -0.2718
     68  CB        60.2860    9.6120   31.7550 C.3    32  LYS32       0.0285
     69  CG        60.1510    8.1070   31.5840 C.3    32  LYS32       0.0035
     70  CD        60.0340    7.6820   30.1310 C.3    32  LYS32       0.0206
     71  CE        60.0540    6.1550   30.0240 C.3    32  LYS32       0.1093
     72  NZ        59.9830    5.6530   28.6200 N.3    32  LYS32      -0.1314
     73  N         62.0830    9.0970   34.2870 N.am   33  LEU33      -0.1980
     74  CA        62.8350    8.1000   35.0460 C.3    33  LEU33       0.1596
     75  C         62.7990    8.3560   36.5470 C.2    33  LEU33       0.2287
     76  O         63.2300    7.5170   37.3370 O.2    33  LEU33      -0.2864
     77  CB        64.2900    8.0510   34.5720 C.3    33  LEU33       0.0297
     78  CG        64.5140    7.7610   33.0940 C.3    33  LEU33       0.0022
     79  CD1       66.0030    7.6730   32.8150 C.3    33  LEU33       0.0001
     80  CD2       63.8080    6.4780   32.6780 C.3    33  LEU33       0.0001
     81  N         64.3180   11.0450   38.3460 N.3    35  LEU35      -0.1245
     82  CA        65.6530   11.3950   38.8220 C.3    35  LEU35       0.1561
     83  C         65.7780   12.9090   39.0230 C.2    35  LEU35       0.2260
     84  O         66.4070   13.6070   38.2260 O.2    35  LEU35      -0.2867
     85  CB        66.7100   10.8760   37.8400 C.3    35  LEU35       0.0270
     86  CG        66.6280    9.3780   37.5200 C.3    35  LEU35       0.0019
     87  CD1       67.5210    8.9870   36.3410 C.3    35  LEU35       0.0001
     88  CD2       66.9510    8.5400   38.7470 C.3    35  LEU35       0.0001
     89  N         69.2130   14.6190   38.6500 N.3    38  TYR38      -0.1241
     90  CA        70.0870   14.2880   37.5310 C.3    38  TYR38       0.1605
     91  C         70.7510   15.5390   36.9760 C.2    38  TYR38       0.2264
     92  O         71.9620   15.5740   36.7610 O.2    38  TYR38      -0.2867
     93  CB        69.3480   13.5130   36.4360 C.3    38  TYR38       0.0534
     94  CG        70.2850   13.1050   35.3200 C.ar   38  TYR38      -0.0201
     95  CD1       71.0930   11.9830   35.4420 C.ar   38  TYR38      -0.0009
     96  CD2       70.3960   13.8670   34.1700 C.ar   38  TYR38      -0.0009
     97  CE1       71.9690   11.6190   34.4330 C.ar   38  TYR38       0.0417
     98  CE2       71.2710   13.5100   33.1600 C.ar   38  TYR38       0.0417
     99  CZ        72.0600   12.3870   33.3010 C.ar   38  TYR38       0.1957
    100  OH        72.9470   12.0240   32.3110 O.3    38  TYR38      -0.2866
    101  N         79.4510   11.0870   32.0550 N.3    76  ASN76      -0.1225
    102  CA        78.2270   11.4230   32.7680 C.3    76  ASN76       0.1785
    103  C         77.6480   10.1900   33.4390 C.2    76  ASN76       0.2597
    104  O         77.2210   10.2310   34.5930 O.2    76  ASN76      -0.2718
    105  CB        77.1690   11.9710   31.8010 C.3    76  ASN76       0.1169
    106  CG        77.4360   13.4140   31.3760 C.2    76  ASN76       0.2627
    107  OD1       78.3090   14.1020   31.9270 O.2    76  ASN76      -0.2716
    108  ND2       76.6690   13.8800   30.3860 N.am   76  ASN76      -0.0877
    109  N         77.6280    9.0950   32.6890 N.am   77  CYS77      -0.1970
    110  CA        77.0810    7.8390   33.1940 C.3    77  CYS77       0.1712
    111  C         77.8440    7.3670   34.4450 C.2    77  CYS77       0.2296
    112  O         77.2350    6.9850   35.4560 O.2    77  CYS77      -0.2864
    113  CB        77.1090    6.7930   32.0820 C.3    77  CYS77       0.0983
    114  SG        76.2730    5.2310   32.4920 S.3    77  CYS77      -0.0798
    115  N         77.1920    9.9320   37.5300 N.3    80  TYR80      -0.1227
    116  CA        75.8690    9.9640   38.1450 C.3    80  TYR80       0.1736
    117  C         75.4750    8.6530   38.8340 C.2    80  TYR80       0.2595
    118  O         74.9270    8.6610   39.9480 O.2    80  TYR80      -0.2718
    119  CB        74.7790   10.3500   37.1240 C.3    80  TYR80       0.0548
    120  CG        73.4130   10.3170   37.7620 C.ar   80  TYR80      -0.0200
    121  CD1       72.9800   11.3660   38.5670 C.ar   80  TYR80      -0.0009
    122  CD2       72.5740    9.2250   37.5990 C.ar   80  TYR80      -0.0009
    123  CE1       71.7440   11.3270   39.1820 C.ar   80  TYR80       0.0417
    124  CE2       71.3390    9.1760   38.2100 C.ar   80  TYR80       0.0417
    125  CZ        70.9270   10.2320   38.9990 C.ar   80  TYR80       0.1957
    126  OH        69.6910   10.1910   39.6110 O.3    80  TYR80      -0.2866
    127  N         75.7640    7.5300   38.1830 N.am   81  ASN81      -0.1974
    128  CA        75.2700    6.2440   38.6550 C.3    81  ASN81       0.1688
    129  C         76.1310    5.5870   39.7330 C.2    81  ASN81       0.2292
    130  O         77.2750    5.9790   39.9580 O.2    81  ASN81      -0.2864
    131  CB        75.0430    5.2980   37.4740 C.3    81  ASN81       0.1181
    132  CG        73.9880    5.8190   36.5210 C.2    81  ASN81       0.2629
    133  OD1       72.7880    5.7450   36.8060 O.2    81  ASN81      -0.2716
    134  ND2       74.4280    6.3760   35.3870 N.am   81  ASN81      -0.0877
    135  N         74.0220   -1.7650   36.6620 N.3    86  ASP86      -0.1225
    136  CA        74.2200   -2.3700   35.3520 C.3    86  ASP86       0.1805
    137  C         74.5660   -1.3390   34.2760 C.2    86  ASP86       0.2597
    138  O         75.3500   -1.6250   33.3790 O.2    86  ASP86      -0.2718
    139  CB        72.9740   -3.1220   34.8890 C.3    86  ASP86       0.1424
    140  CG        72.7490   -4.4100   35.6520 C.2    86  ASP86       0.3668
    141  OD1       73.5980   -4.7630   36.4890 O.co2  86  ASP86      -0.2456
    142  OD2       71.7180   -5.0660   35.4130 O.co2  86  ASP86      -0.2456
    143  N         73.9640   -0.1580   34.3550 N.am   87  ILE87      -0.1980
    144  CA        74.1810    0.8530   33.3170 C.3    87  ILE87       0.1595
    145  C         75.6710    1.1880   33.1900 C.2    87  ILE87       0.2287
    146  O         76.1520    1.4830   32.1000 O.2    87  ILE87      -0.2864
    147  CB        73.3110    2.1330   33.5180 C.3    87  ILE87       0.0276
    148  CG1       73.3260    3.0150   32.2590 C.3    87  ILE87       0.0022
    149  CG2       73.7850    2.9480   34.7180 C.3    87  ILE87       0.0022
    150  CD1       72.5020    2.4800   31.1160 C.3    87  ILE87       0.0001
    151  N         77.3250   -1.3940   31.0800 N.3    90  MET90      -0.1245
    152  CA        76.8690   -1.2140   29.7040 C.3    90  MET90       0.1570
    153  C         77.6550   -0.0870   29.0210 C.2    90  MET90       0.2261
    154  O         78.1550   -0.2480   27.9040 O.2    90  MET90      -0.2867
    155  CB        75.3580   -0.9430   29.6960 C.3    90  MET90       0.0387
    156  CG        74.5380   -2.1660   30.1440 C.3    90  MET90       0.0595
    157  SD        72.8320   -1.7770   30.5640 S.3    90  MET90      -0.1393
    158  CE        72.1210   -1.6710   28.9320 C.3    90  MET90       0.0692
@<TRIPOS>BOND
     1    40    39    2
     2    33    34    1
     3    37    34    1
     4    37    38    1
     5    34    35    1
     6    25    24    2
     7     1     2    1
     8     2     5    1
     9     2     3    1
    10    48    47    1
    11    48    42    1
    12    24    23    1
    13    39    38    1
    14    39    41   am
    15     5     6    1
    16    47    46    1
    17    35    42   am
    18    35    36    2
    19     4     3    2
    20    42    43    1
    21     3    15   am
    22    26    23    1
    23    26    27    1
    24    23    22    1
    25     6     7   ar
    26     6     8   ar
    27     7     9   ar
    28    22    17   am
    29    46    43    1
    30    15    21    1
    31    15    16    1
    32    43    44    1
    33    27    29   ar
    34    27    28   ar
    35     8    11   ar
    36     8    10   ar
    37    17    16    1
    38    17    18    2
    39    29    31   ar
    40    21    20    1
    41     9    10   ar
    42    11    13   ar
    43    16    19    1
    44    45    44    2
    45    28    30   ar
    46    44    49   am
    47    10    12   ar
    48    31    32   ar
    49   154   153    2
    50    20    19    1
    51    13    14   ar
    52    30    32   ar
    53    49    50    1
    54    72    71    1
    55    12    14   ar
    56   158   157    1
    57   153   152    1
    58    63    61   ar
    59   155   152    1
    60   155   156    1
    61   152   151    1
    62    50    51    1
    63    50    53    1
    64    60    61    1
    65    60    57    1
    66    71    70    1
    67    51    52    2
    68    51    56   am
    69    70    69    1
    70   156   157    1
    71    61    62   ar
    72    56    57    1
    73   108   106   am
    74    57    58    1
    75    55    53    1
    76    53    54    1
    77   150   148    1
    78   106   105    1
    79   106   107    2
    80    69    68    1
    81    68    65    1
    82   105   102    1
    83   101   102    1
    84   113   114    1
    85   113   110    1
    86   146   145    2
    87    58    59    2
    88   148   147    1
    89   100    99    1
    90    80    78    1
    91   109   110    1
    92   109   103   am
    93   102   103    1
    94    79    78    1
    95    78    77    1
    96    98    99   ar
    97    98    96   ar
    98   145   144    1
    99   110   111    1
   100    65    64    1
   101    65    66    1
   102    99    97   ar
   103   144   147    1
   104   144   143    1
   105   138   137    2
   106   103   104    2
   107   147   149    1
   108    66    73   am
   109    66    67    2
   110    96    94   ar
   111   137   143   am
   112   137   136    1
   113    73    74    1
   114    97    95   ar
   115   111   112    2
   116    77    74    1
   117   139   136    1
   118   139   140    1
   119    74    75    1
   120    94    95   ar
   121    94    93    1
   122   136   135    1
   123   134   132   am
   124   142   140   ar
   125   140   141   ar
   126    87    86    1
   127    93    90    1
   128   132   133    2
   129   132   131    1
   130    75    76    2
   131    92    91    2
   132    91    90    1
   133   119   120    1
   134   119   116    1
   135   131   128    1
   136    86    85    1
   137    86    88    1
   138   115   116    1
   139    90    89    1
   140   122   120   ar
   141   122   124   ar
   142   120   121   ar
   143    85    82    1
   144   116   117    1
   145   127   128    1
   146   127   117   am
   147   124   125   ar
   148    84    83    2
   149    81    82    1
   150   121   123   ar
   151   128   129    1
   152    82    83    1
   153   117   118    2
   154   125   123   ar
   155   125   126    1
   156   129   130    2
