@<TRIPOS>MOLECULE
tmp/6mo9A01.pdb
 135 131 0 0 0
SMALL
GASTEIGER

@<TRIPOS>ATOM
      1  N        100.0690   14.5810   38.4320 N.3    24  TRP24      -0.1228
      2  CA       100.6810   13.9690   39.6090 C.3    24  TRP24       0.1722
      3  C         99.8370   12.9040   40.3490 C.2    24  TRP24       0.2437
      4  O        100.3880   11.8890   40.7800 O.2    24  TRP24      -0.2733
      5  CB       101.2520   15.0190   40.5860 C.3    24  TRP24       0.0563
      6  CG       100.2200   15.8990   41.2070 C.ar   24  TRP24       0.0003
      7  CD1       99.7340   17.0800   40.7040 C.ar   24  TRP24       0.0946
      8  CD2       99.5300   15.6720   42.4400 C.ar   24  TRP24       0.0152
      9  NE1       98.7870   17.5970   41.5570 N.ar   24  TRP24      -0.2442
     10  CE2       98.6400   16.7510   42.6250 C.ar   24  TRP24       0.0810
     11  CE3       99.5720   14.6620   43.4050 C.ar   24  TRP24       0.0012
     12  CZ2       97.8080   16.8460   43.7380 C.ar   24  TRP24       0.0191
     13  CZ3       98.7490   14.7630   44.5080 C.ar   24  TRP24       0.0001
     14  CH2       97.8770   15.8430   44.6640 C.ar   24  TRP24       0.0015
     15  N         98.5130   13.1140   40.5030 N.am   25  PRO25      -0.2718
     16  CA        97.7980   12.0320   41.1970 C.3    25  PRO25       0.1535
     17  C         97.7240   10.7290   40.4080 C.2    25  PRO25       0.2598
     18  O         97.3420    9.7100   40.9980 O.2    25  PRO25      -0.2715
     19  CB        96.3770   12.5790   41.3630 C.3    25  PRO25       0.0310
     20  CG        96.4820   14.0600   41.1080 C.3    25  PRO25       0.0237
     21  CD        97.6070   14.2100   40.1140 C.3    25  PRO25       0.0939
     22  N         98.0810   10.7660   39.1210 N.am   26  PHE26      -0.1974
     23  CA        97.8800    9.6280   38.2320 C.3    26  PHE26       0.1639
     24  C         99.1980    8.9660   37.8420 C.2    26  PHE26       0.2290
     25  O         99.2000    8.0220   37.0680 O.2    26  PHE26      -0.2864
     26  CB        97.1430   10.0690   36.9580 C.3    26  PHE26       0.0560
     27  CG        95.7910   10.6790   37.2170 C.ar   26  PHE26      -0.0200
     28  CD1       94.6700    9.8790   37.3130 C.ar   26  PHE26      -0.0042
     29  CD2       95.6490   12.0530   37.3700 C.ar   26  PHE26      -0.0042
     30  CE1       93.4190   10.4320   37.5570 C.ar   26  PHE26      -0.0003
     31  CE2       94.4020   12.6050   37.6030 C.ar   26  PHE26      -0.0003
     32  CZ        93.2880   11.7900   37.7000 C.ar   26  PHE26      -0.0000
     33  N        101.2410    7.2150   39.6570 N.3    28  GLN28      -0.1245
     34  CA       101.5130    5.9720   40.3660 C.3    28  GLN28       0.1566
     35  C        100.1950    5.3680   40.8070 C.2    28  GLN28       0.2260
     36  O         99.1740    6.0600   40.8610 O.2    28  GLN28      -0.2867
     37  CB       102.4110    6.2150   41.5870 C.3    28  GLN28       0.0367
     38  CG       101.8040    7.1420   42.6190 C.3    28  GLN28       0.0905
     39  CD       101.7270    8.5790   42.1230 C.2    28  GLN28       0.2608
     40  OE1      102.7170    9.1300   41.6300 O.2    28  GLN28      -0.2717
     41  NE2      100.5460    9.1830   42.2290 N.am   28  GLN28      -0.0878
     42  N         96.9900    4.2700   42.7560 N.3    30  VAL30      -0.1245
     43  CA        96.2690    4.6980   43.9390 C.3    30  VAL30       0.1561
     44  C         96.6860    3.8620   45.1510 C.2    30  VAL30       0.2260
     45  O         96.5590    2.6450   45.1470 O.2    30  VAL30      -0.2867
     46  CB        94.7520    4.5450   43.7350 C.3    30  VAL30       0.0252
     47  CG1       94.0110    4.9540   44.9990 C.3    30  VAL30       0.0019
     48  CG2       94.2800    5.3850   42.5180 C.3    30  VAL30       0.0019
     49  N         97.4320    4.8870   52.1240 N.3    34  LYS34      -0.1231
     50  CA        97.8210    6.2810   52.2190 C.3    34  LYS34       0.1693
     51  C         96.6280    7.2190   52.1610 C.2    34  LYS34       0.2591
     52  O         96.5560    8.1950   52.9040 O.2    34  LYS34      -0.2718
     53  CB        98.7950    6.6380   51.0910 C.3    34  LYS34       0.0285
     54  CG        99.2420    8.0870   51.1200 C.3    34  LYS34       0.0035
     55  CD       100.4170    8.3270   50.1840 C.3    34  LYS34       0.0206
     56  CE        99.9510    8.7340   48.8040 C.3    34  LYS34       0.1093
     57  NZ       101.0850    9.2430   47.9820 N.3    34  LYS34      -0.1314
     58  N         95.6910    6.9300   51.2630 N.am   35  LEU35      -0.1980
     59  CA        94.5820    7.8490   51.0220 C.3    35  LEU35       0.1596
     60  C         93.3930    7.6340   51.9650 C.2    35  LEU35       0.2287
     61  O         92.4790    8.4600   52.0220 O.2    35  LEU35      -0.2864
     62  CB        94.1440    7.7690   49.5570 C.3    35  LEU35       0.0297
     63  CG        95.2460    8.1700   48.5740 C.3    35  LEU35       0.0022
     64  CD1       94.7590    8.0780   47.1200 C.3    35  LEU35       0.0001
     65  CD2       95.7330    9.5820   48.8770 C.3    35  LEU35       0.0001
     66  N         91.2210    4.8130   52.0220 N.3    37  LEU37      -0.1245
     67  CA        90.1060    4.3210   51.2110 C.3    37  LEU37       0.1561
     68  C         90.0400    2.8120   51.2770 C.2    37  LEU37       0.2260
     69  O         90.4680    2.1340   50.3470 O.2    37  LEU37      -0.2867
     70  CB        90.2920    4.7400   49.7520 C.3    37  LEU37       0.0270
     71  CG        90.6810    6.2010   49.5340 C.3    37  LEU37       0.0019
     72  CD1       91.0030    6.4870   48.0700 C.3    37  LEU37       0.0001
     73  CD2       89.5960    7.1360   50.0280 C.3    37  LEU37       0.0001
     74  N         88.4250    1.0620   48.2630 N.3    40  TYR40      -0.1241
     75  CA        88.8640    1.3490   46.8980 C.3    40  TYR40       0.1605
     76  C         88.9560    0.0970   46.0440 C.2    40  TYR40       0.2264
     77  O         88.4520    0.0590   44.9260 O.2    40  TYR40      -0.2867
     78  CB        90.1960    2.1080   46.8450 C.3    40  TYR40       0.0534
     79  CG        90.5500    2.4860   45.4190 C.ar   40  TYR40      -0.0201
     80  CD1       89.9870    3.6120   44.8220 C.ar   40  TYR40      -0.0009
     81  CD2       91.4180    1.7070   44.6640 C.ar   40  TYR40      -0.0009
     82  CE1       90.2890    3.9570   43.5030 C.ar   40  TYR40       0.0417
     83  CE2       91.7240    2.0400   43.3560 C.ar   40  TYR40       0.0417
     84  CZ        91.1630    3.1700   42.7810 C.ar   40  TYR40       0.1957
     85  OH        91.4670    3.4930   41.4730 O.3    40  TYR40      -0.2866
     86  N         88.5670    6.5110   37.9140 N.3    79  CYS79      -0.1235
     87  CA        88.4720    7.7650   38.6500 C.3    79  CYS79       0.1677
     88  C         87.0170    8.2650   38.6910 C.2    79  CYS79       0.2270
     89  O         86.5180    8.6570   39.7550 O.2    79  CYS79      -0.2867
     90  CB        89.4190    8.7730   38.0130 C.3    79  CYS79       0.0956
     91  SG        89.4930   10.3680   38.8680 S.3    79  CYS79      -0.0801
     92  N         84.8010    5.7750   40.9670 N.3    82  TYR82      -0.1227
     93  CA        85.0610    5.7570   42.4000 C.3    82  TYR82       0.1736
     94  C         84.7040    7.0620   43.1140 C.2    82  TYR82       0.2595
     95  O         84.1040    7.0460   44.2000 O.2    82  TYR82      -0.2718
     96  CB        86.5140    5.3980   42.7170 C.3    82  TYR82       0.0548
     97  CG        86.7180    5.3250   44.2120 C.ar   82  TYR82      -0.0200
     98  CD1       86.2750    4.2180   44.9350 C.ar   82  TYR82      -0.0009
     99  CD2       87.2920    6.3730   44.9010 C.ar   82  TYR82      -0.0009
    100  CE1       86.4170    4.1520   46.2950 C.ar   82  TYR82       0.0417
    101  CE2       87.4410    6.3190   46.2800 C.ar   82  TYR82       0.0417
    102  CZ        87.0020    5.1950   46.9650 C.ar   82  TYR82       0.1957
    103  OH        87.1390    5.1170   48.3320 O.3    82  TYR82      -0.2866
    104  N         85.0980    8.1870   42.5180 N.am   83  ASN83      -0.1974
    105  CA        85.0470    9.4550   43.2330 C.3    83  ASN83       0.1688
    106  C         83.6640   10.1100   43.1620 C.2    83  ASN83       0.2292
    107  O         82.8260    9.7430   42.3300 O.2    83  ASN83      -0.2864
    108  CB        86.1580   10.3820   42.7320 C.3    83  ASN83       0.1181
    109  CG        87.5410    9.8470   43.0580 C.2    83  ASN83       0.2629
    110  OD1       87.9900    9.9340   44.1930 O.2    83  ASN83      -0.2716
    111  ND2       88.2090    9.2450   42.0630 N.am   83  ASN83      -0.0877
    112  N         87.5680   17.3400   43.0930 N.3    88  ASP88      -0.1225
    113  CA        88.5160   17.9580   42.1740 C.3    88  ASP88       0.1805
    114  C         89.2110   16.9440   41.2760 C.2    88  ASP88       0.2597
    115  O         89.5770   17.2700   40.1530 O.2    88  ASP88      -0.2718
    116  CB        89.5760   18.7490   42.9390 C.3    88  ASP88       0.1424
    117  CG        89.0200   20.0120   43.5620 C.2    88  ASP88       0.3668
    118  OD1       87.8180   20.3010   43.3450 O.co2  88  ASP88      -0.2456
    119  OD2       89.7930   20.7000   44.2630 O.co2  88  ASP88      -0.2456
    120  N         89.4020   15.7170   41.7650 N.am   89  ILE89      -0.1980
    121  CA        90.1700   14.7480   40.9870 C.3    89  ILE89       0.1595
    122  C         89.4560   14.4320   39.6690 C.2    89  ILE89       0.2287
    123  O         90.0960   14.1770   38.6430 O.2    89  ILE89      -0.2864
    124  CB        90.4610   13.4620   41.7960 C.3    89  ILE89       0.0276
    125  CG1       91.4500   12.5690   41.0490 C.3    89  ILE89       0.0022
    126  CG2       89.1750   12.7160   42.1140 C.3    89  ILE89       0.0022
    127  CD1       92.8720   13.0750   41.0770 C.3    89  ILE89       0.0001
    128  N         90.3980   17.0180   37.1700 N.3    92  MET92      -0.1245
    129  CA        91.7610   16.8030   36.7180 C.3    92  MET92       0.1570
    130  C         91.8000   15.6700   35.6960 C.2    92  MET92       0.2261
    131  O         92.4290   15.7920   34.6460 O.2    92  MET92      -0.2867
    132  CB        92.6880   16.5420   37.9140 C.3    92  MET92       0.0387
    133  CG        92.7310   17.7410   38.8940 C.3    92  MET92       0.0595
    134  SD        93.4960   17.2820   40.4580 S.3    92  MET92      -0.1393
    135  CE        95.2170   17.2970   39.9870 C.3    92  MET92       0.0692
@<TRIPOS>BOND
     1   131   130    2
     2   130   129    1
     3   129   128    1
     4   129   132    1
     5    26    27    1
     6    26    23    1
     7    25    24    2
     8    27    28   ar
     9    27    29   ar
    10    28    30   ar
    11    29    31   ar
    12    30    32   ar
    13    31    32   ar
    14    24    23    1
    15   132   133    1
    16    86    87    1
    17    90    87    1
    18    90    91    1
    19    23    22    1
    20     1     2    1
    21   123   122    2
    22    87    88    1
    23    88    89    2
    24   133   134    1
    25    22    17   am
    26     2     3    1
    27     2     5    1
    28    33    34    1
    29   122   121    1
    30   135   134    1
    31    21    15    1
    32    21    20    1
    33   115   114    2
    34     3    15   am
    35     3     4    2
    36    34    35    1
    37    34    37    1
    38    17    18    2
    39    17    16    1
    40    15    16    1
    41     5     6    1
    42     7     6   ar
    43     7     9   ar
    44    35    36    2
    45    92    93    1
    46   121   120    1
    47   121   124    1
    48   125   127    1
    49   125   124    1
    50    20    19    1
    51    16    19    1
    52     6     8   ar
    53   114   120   am
    54   114   113    1
    55    85    84    1
    56     9    10   ar
    57    37    38    1
    58    40    39    2
    59   124   126    1
    60   111   109   am
    61    39    41   am
    62    39    38    1
    63   113   116    1
    64   113   112    1
    65   107   106    2
    66    93    96    1
    67    93    94    1
    68     8    10   ar
    69     8    11   ar
    70   104    94   am
    71   104   105    1
    72    48    46    1
    73    10    12   ar
    74    96    97    1
    75   108   109    1
    76   108   105    1
    77    42    43    1
    78    84    83   ar
    79    84    82   ar
    80   116   117    1
    81   109   110    2
    82    94    95    2
    83   106   105    1
    84   118   117   ar
    85    83    81   ar
    86    11    13   ar
    87    82    80   ar
    88   117   119   ar
    89    46    43    1
    90    46    47    1
    91    12    14   ar
    92    43    44    1
    93    97    99   ar
    94    97    98   ar
    95    13    14   ar
    96    81    79   ar
    97    80    79   ar
    98    99   101   ar
    99    77    76    2
   100    98   100   ar
   101    45    44    2
   102    79    78    1
   103    76    75    1
   104   101   102   ar
   105   100   102   ar
   106    78    75    1
   107    75    74    1
   108   102   103    1
   109    64    63    1
   110    57    56    1
   111    72    71    1
   112    63    65    1
   113    63    62    1
   114    56    55    1
   115    71    70    1
   116    71    73    1
   117    62    59    1
   118    70    67    1
   119    55    54    1
   120    69    68    2
   121    59    58    1
   122    59    60    1
   123    53    54    1
   124    53    50    1
   125    67    68    1
   126    67    66    1
   127    58    51   am
   128    60    61    2
   129    49    50    1
   130    51    50    1
   131    51    52    2
