@<TRIPOS>MOLECULE
tmp/6moaA00.pdb
 159 155 0 0 0
SMALL
GASTEIGER

@<TRIPOS>ATOM
      1  N          6.6750   62.7080    4.2270 N.3    25  TRP25      -0.1228
      2  CA         7.1190   61.3510    3.9180 C.3    25  TRP25       0.1722
      3  C          7.7840   61.1800    2.5530 C.2    25  TRP25       0.2437
      4  O          8.7160   60.3630    2.4670 O.2    25  TRP25      -0.2733
      5  CB         6.0030   60.3220    4.1690 C.3    25  TRP25       0.0563
      6  CG         4.8590   60.4340    3.2230 C.ar   25  TRP25       0.0003
      7  CD1        3.6790   61.0770    3.4490 C.ar   25  TRP25       0.0946
      8  CD2        4.7800   59.9000    1.8920 C.ar   25  TRP25       0.0152
      9  NE1        2.8710   60.9790    2.3460 N.ar   25  TRP25      -0.2442
     10  CE2        3.5260   60.2770    1.3690 C.ar   25  TRP25       0.0810
     11  CE3        5.6510   59.1580    1.0860 C.ar   25  TRP25       0.0012
     12  CZ2        3.1120   59.9170    0.0860 C.ar   25  TRP25       0.0191
     13  CZ3        5.2400   58.8120   -0.1930 C.ar   25  TRP25       0.0001
     14  CH2        3.9840   59.1860   -0.6750 C.ar   25  TRP25       0.0015
     15  N          7.3880   61.8660    1.4730 N.am   26  PRO26      -0.2718
     16  CA         8.1030   61.6560    0.2030 C.3    26  PRO26       0.1535
     17  C          9.5650   62.0560    0.2680 C.2    26  PRO26       0.2598
     18  O         10.3450   61.6430   -0.6000 O.2    26  PRO26      -0.2715
     19  CB         7.3290   62.5260   -0.7990 C.3    26  PRO26       0.0310
     20  CG         5.9810   62.7160   -0.1890 C.3    26  PRO26       0.0237
     21  CD         6.2550   62.7960    1.2890 C.3    26  PRO26       0.0939
     22  N          9.9570   62.8460    1.2650 N.am   27  PHE27      -0.1974
     23  CA        11.3050   63.3830    1.3810 C.3    27  PHE27       0.1639
     24  C         12.1670   62.5950    2.3510 C.2    27  PHE27       0.2290
     25  O         13.3250   62.9650    2.5790 O.2    27  PHE27      -0.2864
     26  CB        11.2140   64.8580    1.7880 C.3    27  PHE27       0.0560
     27  CG        10.3180   65.6390    0.8760 C.ar   27  PHE27      -0.0200
     28  CD1       10.7920   66.0880   -0.3510 C.ar   27  PHE27      -0.0042
     29  CD2        8.9840   65.8550    1.1950 C.ar   27  PHE27      -0.0042
     30  CE1        9.9590   66.7770   -1.2200 C.ar   27  PHE27      -0.0003
     31  CE2        8.1460   66.5370    0.3180 C.ar   27  PHE27      -0.0003
     32  CZ         8.6350   66.9870   -0.8840 C.ar   27  PHE27      -0.0000
     33  N         13.4920   59.5620    2.1490 N.3    29  LYS29      -0.1245
     34  CA        14.4970   58.6870    1.5680 C.3    29  LYS29       0.1561
     35  C         14.8030   59.1890    0.1680 C.2    29  LYS29       0.2260
     36  O         13.9870   59.8940   -0.4320 O.2    29  LYS29      -0.2867
     37  CB        13.9300   57.2600    1.4840 C.3    29  LYS29       0.0271
     38  CG        13.6960   56.5830    2.8370 C.3    29  LYS29       0.0035
     39  CD        14.9220   56.6880    3.7220 C.3    29  LYS29       0.0206
     40  CE        15.9580   55.6620    3.3230 C.3    29  LYS29       0.1093
     41  NZ        17.3500   56.2090    3.3970 N.3    29  LYS29      -0.1314
     42  N         14.8630   59.6130   -3.7140 N.3    31  VAL31      -0.1231
     43  CA        13.9800   59.1840   -4.7920 C.3    31  VAL31       0.1692
     44  C         14.5620   57.9310   -5.4270 C.2    31  VAL31       0.2592
     45  O         15.6970   57.9360   -5.9170 O.2    31  VAL31      -0.2718
     46  CB        13.8180   60.3010   -5.8300 C.3    31  VAL31       0.0266
     47  CG1       13.0240   59.7950   -7.0260 C.3    31  VAL31       0.0020
     48  CG2       13.1440   61.5170   -5.2220 C.3    31  VAL31       0.0020
     49  N         13.7870   56.8470   -5.4170 N.am   32  ASP32      -0.1974
     50  CA        14.1810   55.6130   -6.0970 C.3    32  ASP32       0.1709
     51  C         13.5410   55.6680   -7.4750 C.2    32  ASP32       0.2293
     52  O         12.4140   55.2100   -7.6850 O.2    32  ASP32      -0.2864
     53  CB        13.7400   54.3870   -5.3060 C.3    32  ASP32       0.1436
     54  CG        14.2940   53.0960   -5.8760 C.2    32  ASP32       0.3671
     55  OD1       14.5940   53.0500   -7.0850 O.co2  32  ASP32      -0.2456
     56  OD2       14.4200   52.1140   -5.1100 O.co2  32  ASP32      -0.2456
     57  N         10.0190   53.8900   -8.8950 N.3    36  LEU36      -0.1245
     58  CA         8.8550   54.7270   -9.1320 C.3    36  LEU36       0.1561
     59  C          8.5180   54.8780  -10.6070 C.2    36  LEU36       0.2260
     60  O          7.5440   55.5600  -10.9320 O.2    36  LEU36      -0.2867
     61  CB         9.0650   56.1090   -8.4990 C.3    36  LEU36       0.0270
     62  CG         9.1810   56.1000   -6.9700 C.3    36  LEU36       0.0019
     63  CD1        9.6550   57.4540   -6.4520 C.3    36  LEU36       0.0001
     64  CD2        7.8470   55.7060   -6.3360 C.3    36  LEU36       0.0001
     65  N         10.3060   56.4890  -12.8020 N.3    38  LEU38      -0.1245
     66  CA        10.7030   57.8300  -13.2330 C.3    38  LEU38       0.1561
     67  C         12.0620   57.7620  -13.9200 C.2    38  LEU38       0.2260
     68  O         13.0870   58.2020  -13.4030 O.2    38  LEU38      -0.2867
     69  CB        10.7270   58.7790  -12.0400 C.3    38  LEU38       0.0270
     70  CG         9.4970   58.7140  -11.1400 C.3    38  LEU38       0.0019
     71  CD1        9.6940   59.6150   -9.9300 C.3    38  LEU38       0.0001
     72  CD2        8.2630   59.0990  -11.9180 C.3    38  LEU38       0.0001
     73  N         14.5010   60.6930  -14.2570 N.3    41  TYR41      -0.1241
     74  CA        14.7640   61.5030  -13.0700 C.3    41  TYR41       0.1605
     75  C         16.2180   61.9540  -13.0110 C.2    41  TYR41       0.2264
     76  O         16.5100   63.1340  -12.7810 O.2    41  TYR41      -0.2867
     77  CB        14.3940   60.7190  -11.8130 C.3    41  TYR41       0.0534
     78  CG        14.5220   61.5600  -10.5620 C.ar   41  TYR41      -0.0201
     79  CD1       15.6590   61.5000   -9.7700 C.ar   41  TYR41      -0.0009
     80  CD2       13.5160   62.4480  -10.2000 C.ar   41  TYR41      -0.0009
     81  CE1       15.7850   62.3020   -8.6400 C.ar   41  TYR41       0.0417
     82  CE2       13.6300   63.2500   -9.0740 C.ar   41  TYR41       0.0417
     83  CZ        14.7660   63.1650   -8.3010 C.ar   41  TYR41       0.1957
     84  OH        14.8840   63.9570   -7.1830 O.3    41  TYR41      -0.2866
     85  N         16.8680   69.9240   -1.9900 N.3    76  MET76      -0.1245
     86  CA        15.8500   68.8830   -1.9790 C.3    76  MET76       0.1570
     87  C         14.5190   69.4130   -2.4970 C.2    76  MET76       0.2261
     88  O         13.8640   68.7810   -3.3340 O.2    76  MET76      -0.2867
     89  CB        15.7070   68.3630   -0.5530 C.3    76  MET76       0.0387
     90  CG        14.6640   67.2960   -0.3620 C.3    76  MET76       0.0595
     91  SD        14.4660   66.8860    1.3830 S.3    76  MET76      -0.1393
     92  CE        13.5210   68.3040    1.9270 C.3    76  MET76       0.0692
     93  N         14.7440   70.3580   -6.3260 N.3    79  ASN79      -0.1225
     94  CA        14.6690   69.1930   -7.2050 C.3    79  ASN79       0.1785
     95  C         13.2210   68.7810   -7.4270 C.2    79  ASN79       0.2597
     96  O         12.8180   68.4350   -8.5440 O.2    79  ASN79      -0.2718
     97  CB        15.4300   68.0210   -6.5940 C.3    79  ASN79       0.1169
     98  CG        16.9250   68.2040   -6.6180 C.2    79  ASN79       0.2627
     99  OD1       17.4570   69.0200   -7.3590 O.2    79  ASN79      -0.2716
    100  ND2       17.6160   67.4120   -5.8200 N.am   79  ASN79      -0.0877
    101  N         12.4210   68.8210   -6.3640 N.am   80  CYS80      -0.1970
    102  CA        11.0060   68.4920   -6.4730 C.3    80  CYS80       0.1712
    103  C         10.2820   69.4710   -7.3910 C.2    80  CYS80       0.2296
    104  O          9.4890   69.0590   -8.2450 O.2    80  CYS80      -0.2864
    105  CB        10.3960   68.4780   -5.0720 C.3    80  CYS80       0.0983
    106  SG         8.7000   67.9260   -4.9840 S.3    80  CYS80      -0.0798
    107  N         11.4500   68.7610  -11.1560 N.3    83  TYR83      -0.1227
    108  CA        11.0970   67.5310  -11.8530 C.3    83  TYR83       0.1736
    109  C          9.5950   67.4230  -12.0940 C.2    83  TYR83       0.2595
    110  O          9.1680   66.9260  -13.1450 O.2    83  TYR83      -0.2718
    111  CB        11.5940   66.3120  -11.0600 C.3    83  TYR83       0.0548
    112  CG        11.2150   65.0420  -11.7800 C.ar   83  TYR83      -0.0200
    113  CD1       10.0860   64.3200  -11.4180 C.ar   83  TYR83      -0.0009
    114  CD2       11.9470   64.6080  -12.8800 C.ar   83  TYR83      -0.0009
    115  CE1        9.7090   63.1940  -12.1180 C.ar   83  TYR83       0.0417
    116  CE2       11.5820   63.4770  -13.5880 C.ar   83  TYR83       0.0417
    117  CZ        10.4640   62.7790  -13.2000 C.ar   83  TYR83       0.1957
    118  OH        10.0760   61.6570  -13.8980 O.3    83  TYR83      -0.2866
    119  N          8.7880   67.8620  -11.1440 N.am   84  ASN84      -0.1974
    120  CA         7.3660   67.5390  -11.1660 C.3    84  ASN84       0.1688
    121  C          6.5460   68.7030  -11.7070 C.2    84  ASN84       0.2292
    122  O          6.9180   69.8650  -11.5290 O.2    84  ASN84      -0.2864
    123  CB         6.8820   67.2420   -9.7430 C.3    84  ASN84       0.1181
    124  CG         7.5750   66.0560   -9.1340 C.2    84  ASN84       0.2629
    125  OD1        7.2370   64.9090   -9.4400 O.2    84  ASN84      -0.2716
    126  ND2        8.5480   66.3120   -8.2680 N.am   84  ASN84      -0.0877
    127  N          1.2850   68.6910   -9.1500 N.3    88  HIS88      -0.1226
    128  CA         1.4500   67.3610   -8.5760 C.3    88  HIS88       0.1752
    129  C          1.3020   67.4260   -7.0570 C.2    88  HIS88       0.2596
    130  O          1.7240   68.3900   -6.4150 O.2    88  HIS88      -0.2718
    131  CB         2.8420   66.8340   -8.9490 C.3    88  HIS88       0.0759
    132  CG         3.0360   65.3580   -8.7460 C.ar   88  HIS88       0.0818
    133  ND1        2.9310   64.7460   -7.5150 N.ar   88  HIS88      -0.2268
    134  CD2        3.3650   64.3780   -9.6220 C.ar   88  HIS88       0.1154
    135  CE1        3.1710   63.4530   -7.6440 C.ar   88  HIS88       0.1986
    136  NE2        3.4350   63.2030   -8.9140 N.ar   88  HIS88      -0.2212
    137  N          0.6920   66.3840   -6.4800 N.am   89  ASP89      -0.1960
    138  CA         0.5280   66.3280   -5.0300 C.3    89  ASP89       0.1840
    139  C          1.8590   66.4450   -4.3020 C.2    89  ASP89       0.2621
    140  O          1.9200   67.0400   -3.2200 O.2    89  ASP89      -0.2715
    141  CB        -0.1660   65.0280   -4.6250 C.3    89  ASP89       0.1450
    142  CG        -1.6190   64.9960   -5.0350 C.2    89  ASP89       0.3671
    143  OD1       -2.2570   66.0720   -5.0440 O.co2  89  ASP89      -0.2456
    144  OD2       -2.1170   63.8940   -5.3510 O.co2  89  ASP89      -0.2456
    145  N          2.9340   65.8980   -4.8750 N.am   90  VAL90      -0.1977
    146  CA         4.2020   65.9490   -4.1560 C.3    90  VAL90       0.1596
    147  C          4.7040   67.3790   -4.0550 C.2    90  VAL90       0.2287
    148  O          5.3970   67.7350   -3.0950 O.2    90  VAL90      -0.2864
    149  CB         5.2440   64.9750   -4.7380 C.3    90  VAL90       0.0276
    150  CG1        5.8430   65.5100   -6.0390 C.3    90  VAL90       0.0022
    151  CG2        6.3250   64.7180   -3.7000 C.3    90  VAL90       0.0022
    152  N          3.0060   69.0370   -1.1720 N.3    93  MET93      -0.1245
    153  CA         3.6530   68.6010    0.0570 C.3    93  MET93       0.1570
    154  C          4.9850   69.3010    0.2580 C.2    93  MET93       0.2261
    155  O          5.3000   69.7210    1.3770 O.2    93  MET93      -0.2867
    156  CB         3.8540   67.0900    0.0540 C.3    93  MET93       0.0387
    157  CG         2.5510   66.3220    0.0840 C.3    93  MET93       0.0595
    158  SD         2.7900   64.5750   -0.2280 S.3    93  MET93      -0.1393
    159  CE         2.8260   63.8340    1.3450 C.3    93  MET93       0.0692
@<TRIPOS>BOND
     1    73    74    1
     2    67    68    2
     3    67    66    1
     4   118   117    1
     5   116   117   ar
     6   116   114   ar
     7    66    65    1
     8    66    69    1
     9   117   115   ar
    10   110   109    2
    11    74    75    1
    12    74    77    1
    13    75    76    2
    14   114   112   ar
    15   115   113   ar
    16   109   108    1
    17   109   119   am
    18    69    70    1
    19    72    70    1
    20   108   107    1
    21   108   111    1
    22    77    78    1
    23   112   113   ar
    24   112   111    1
    25   121   122    2
    26   121   120    1
    27   120   119    1
    28   120   123    1
    29    70    71    1
    30    60    59    2
    31    59    58    1
    32    78    80   ar
    33    78    79   ar
    34    80    82   ar
    35    79    81   ar
    36   123   124    1
    37   134   136   ar
    38   134   132   ar
    39   125   124    2
    40   127   128    1
    41   124   126   am
    42    58    57    1
    43    58    61    1
    44    82    83   ar
    45   131   132    1
    46   131   128    1
    47   136   135   ar
    48   132   133   ar
    49    81    83   ar
    50   128   129    1
    51    96    95    2
    52    61    62    1
    53    83    84    1
    54   104   103    2
    55    52    51    2
    56   135   133   ar
    57    51    50    1
    58    95    94    1
    59    95   101   am
    60   103   102    1
    61    99    98    2
    62    94    97    1
    63    94    93    1
    64    55    54   ar
    65   129   137   am
    66   129   130    2
    67    47    46    1
    68    62    63    1
    69    62    64    1
    70    98    97    1
    71    98   100   am
    72   137   138    1
    73   102   101    1
    74   102   105    1
    75    50    49    1
    76    50    53    1
    77   150   149    1
    78    45    44    2
    79    54    53    1
    80    54    56   ar
    81    46    48    1
    82    46    43    1
    83    44    49   am
    84    44    43    1
    85   144   142   ar
    86   105   106    1
    87   143   142   ar
    88   142   141    1
    89   138   141    1
    90   138   139    1
    91   145   139   am
    92   145   146    1
    93    43    42    1
    94   149   146    1
    95   149   151    1
    96   139   140    2
    97   146   147    1
    98   147   148    2
    99    88    87    2
   100    87    86    1
   101    85    86    1
   102    86    89    1
   103    30    32   ar
   104    30    28   ar
   105   152   153    1
   106    32    31   ar
   107    19    20    1
   108    19    16    1
   109    14    13   ar
   110    14    12   ar
   111    18    17    2
   112    89    90    1
   113    36    35    2
   114    90    91    1
   115    28    27   ar
   116   158   157    1
   117   158   159    1
   118    13    11   ar
   119    20    21    1
   120   156   153    1
   121   156   157    1
   122   153   154    1
   123    12    10   ar
   124    35    34    1
   125    16    17    1
   126    16    15    1
   127   154   155    2
   128    17    22   am
   129    31    29   ar
   130    27    29   ar
   131    27    26    1
   132    11     8   ar
   133    22    23    1
   134    21    15    1
   135    10     8   ar
   136    10     9   ar
   137    23    26    1
   138    23    24    1
   139    91    92    1
   140    15     3   am
   141    37    34    1
   142    37    38    1
   143    34    33    1
   144     8     6   ar
   145     9     7   ar
   146    24    25    2
   147     4     3    2
   148     3     2    1
   149    38    39    1
   150     6     7   ar
   151     6     5    1
   152    40    41    1
   153    40    39    1
   154     2     5    1
   155     2     1    1
