@<TRIPOS>MOLECULE
tmp/6mp8A00.pdb
 117 107 0 0 0
SMALL
GASTEIGER

@<TRIPOS>ATOM
      1  N         -5.2050   -2.8770   80.1300 N.3   126  VAL126     -0.1245
      2  CA        -5.6950   -2.0270   81.2040 C.3   126  VAL126      0.1561
      3  C         -5.3480   -2.7070   82.5260 C.2   126  VAL126      0.2260
      4  O         -5.8960   -3.7610   82.8600 O.2   126  VAL126     -0.2867
      5  CB        -7.2200   -1.8340   81.1160 C.3   126  VAL126      0.0252
      6  CG1       -7.7410   -1.0480   82.3140 C.3   126  VAL126      0.0019
      7  CG2       -7.5970   -1.1460   79.8090 C.3   126  VAL126      0.0019
      8  N         -5.8820    4.8470   81.7710 N.3   138  SER138     -0.1217
      9  CA        -6.5200    3.6020   82.1800 C.3   138  SER138      0.1889
     10  C         -5.6980    2.8020   83.1890 C.2   138  SER138      0.2288
     11  O         -6.2250    1.8810   83.8140 O.2   138  SER138     -0.2866
     12  CB        -6.7950    2.7340   80.9540 C.3   138  SER138      0.2089
     13  OG        -5.5830    2.3760   80.3200 O.3   138  SER138     -0.2183
     14  N        -11.3110    6.9630   87.1230 N.3   145  LEU145     -0.1245
     15  CA       -11.1450    7.3610   85.7320 C.3   145  LEU145      0.1561
     16  C        -12.4580    7.9880   85.2660 C.2   145  LEU145      0.2260
     17  O        -13.4450    7.2850   85.0370 O.2   145  LEU145     -0.2867
     18  CB       -10.7690    6.1650   84.8550 C.3   145  LEU145      0.0270
     19  CG       -10.4550    6.5050   83.3950 C.3   145  LEU145      0.0019
     20  CD1       -9.1660    7.3100   83.2990 C.3   145  LEU145      0.0001
     21  CD2      -10.3670    5.2430   82.5470 C.3   145  LEU145      0.0001
     22  N        -15.7950    9.5600   79.7310 N.3   148  HIS148     -0.1241
     23  CA       -15.3130   10.1320   78.4770 C.3   148  HIS148      0.1621
     24  C        -15.6780    9.3040   77.2490 C.2   148  HIS148      0.2264
     25  O        -15.8700    8.0910   77.3250 O.2   148  HIS148     -0.2867
     26  CB       -13.7890   10.2710   78.5170 C.3   148  HIS148      0.0745
     27  CG       -13.0770    8.9620   78.6570 C.ar  148  HIS148      0.0817
     28  ND1      -12.8740    8.3530   79.8760 N.ar  148  HIS148     -0.2268
     29  CD2      -12.5360    8.1390   77.7300 C.ar  148  HIS148      0.1154
     30  CE1      -12.2290    7.2150   79.6940 C.ar  148  HIS148      0.1986
     31  NE2      -12.0160    7.0590   78.4010 N.ar  148  HIS148     -0.2212
     32  N        -14.0550    7.7360   74.1670 N.3   150  GLU150     -0.1245
     33  CA       -12.6970    7.3020   73.8250 C.3   150  GLU150      0.1567
     34  C        -12.1320    8.1340   72.6790 C.2   150  GLU150      0.2260
     35  O        -12.7680    8.2710   71.6370 O.2   150  GLU150     -0.2867
     36  CB       -12.6730    5.8270   73.4320 C.3   150  GLU150      0.0388
     37  CG       -11.3070    5.1830   73.5840 C.3   150  GLU150      0.1160
     38  CD       -10.9080    4.9840   75.0380 C.2   150  GLU150      0.3649
     39  OE1      -11.7800    5.0710   75.9300 O.co2 150  GLU150     -0.2457
     40  OE2       -9.7130    4.7230   75.2880 O.co2 150  GLU150     -0.2457
     41  N        -15.5590    0.2920   71.7550 N.3   161  VAL161     -0.1245
     42  CA       -14.4100   -0.0480   72.5840 C.3   161  VAL161      0.1561
     43  C        -14.7060   -1.3750   73.2790 C.2   161  VAL161      0.2260
     44  O        -15.6780   -1.4830   74.0310 O.2   161  VAL161     -0.2867
     45  CB       -14.1210    1.0330   73.6430 C.3   161  VAL161      0.0252
     46  CG1      -12.9450    0.6220   74.5220 C.3   161  VAL161      0.0019
     47  CG2      -13.8430    2.3710   72.9750 C.3   161  VAL161      0.0019
     48  N        -13.7470   -4.4970   75.8520 N.3   163  LEU163     -0.1245
     49  CA       -13.0480   -4.7580   77.1090 C.3   163  LEU163      0.1561
     50  C        -13.3150   -6.1880   77.5350 C.2   163  LEU163      0.2260
     51  O        -14.4690   -6.5600   77.7430 O.2   163  LEU163     -0.2867
     52  CB       -13.5370   -3.8190   78.2090 C.3   163  LEU163      0.0270
     53  CG       -13.3230   -2.3270   77.9790 C.3   163  LEU163      0.0019
     54  CD1      -14.0870   -1.5150   79.0190 C.3   163  LEU163      0.0001
     55  CD2      -11.8370   -2.0000   78.0030 C.3   163  LEU163      0.0001
     56  N        -16.9300   -0.7410   85.9390 N.3   174  THR174     -0.1218
     57  CA       -16.8220    0.1780   84.8180 C.3   174  THR174      0.1862
     58  C        -18.0470    1.0840   84.9090 C.2   174  THR174      0.2287
     59  O        -19.1180    0.6310   85.3030 O.2   174  THR174     -0.2866
     60  CB       -16.8000   -0.5930   83.4790 C.3   174  THR174      0.1770
     61  OG1      -15.6890   -1.5000   83.4740 O.3   174  THR174     -0.2211
     62  CG2      -16.6730    0.3440   82.2840 C.3   174  THR174      0.0375
     63  N        -17.8270    6.4380   79.0350 N.3   266  HIS266     -0.1226
     64  CA       -17.4970    5.4480   80.0520 C.3   266  HIS266      0.1752
     65  C        -16.2830    5.8460   80.8810 C.2   266  HIS266      0.2597
     66  O        -15.5020    6.7230   80.4980 O.2   266  HIS266     -0.2718
     67  CB       -17.2380    4.0990   79.3940 C.3   266  HIS266      0.0759
     68  CG       -15.9790    4.0610   78.5960 C.ar  266  HIS266      0.0818
     69  ND1      -15.9020    4.5460   77.3080 N.ar  266  HIS266     -0.2268
     70  CD2      -14.7370    3.6240   78.9100 C.ar  266  HIS266      0.1154
     71  CE1      -14.6710    4.3980   76.8590 C.ar  266  HIS266      0.1986
     72  NE2      -13.9430    3.8450   77.8130 N.ar  266  HIS266     -0.2212
     73  N        -16.1370    5.1740   82.0160 N.am  267  GLY267     -0.1942
     74  CA       -15.0010    5.3630   82.9030 C.3   267  GLY267      0.2014
     75  C        -14.8060    4.1450   83.7790 C.2   267  GLY267      0.2638
     76  O        -15.2440    3.0440   83.4320 O.2   267  GLY267     -0.2714
     77  N        -14.1600    4.3470   84.9250 N.am  268  ARG268     -0.1977
     78  CA       -13.9100    3.2740   85.8780 C.3   268  ARG268      0.1597
     79  C        -13.8410    3.8540   87.2810 C.2   268  ARG268      0.2287
     80  O        -13.1610    4.8560   87.5080 O.2   268  ARG268     -0.2864
     81  CB       -12.5940    2.5700   85.5580 C.3   268  ARG268      0.0334
     82  CG       -12.3250    1.3330   86.4000 C.3   268  ARG268      0.0492
     83  CD       -10.8660    1.2340   86.8230 C.3   268  ARG268      0.2205
     84  NE       -10.4990    2.3120   87.7430 N.pl3 268  ARG268     -0.0865
     85  CZ        -9.6100    3.2830   87.5050 C.cat 268  ARG268      0.5346
     86  NH1       -8.9310    3.3530   86.3610 N.pl3 268  ARG268      0.1354
     87  NH2       -9.3870    4.1990   88.4430 N.pl3 268  ARG268      0.1354
     88  N         -6.7090   -6.3130   89.0960 N.3   280  ARG280     -0.1245
     89  CA        -7.6530   -6.2120   87.9850 C.3   280  ARG280      0.1563
     90  C         -6.9070   -5.9580   86.6780 C.2   280  ARG280      0.2260
     91  O         -6.0020   -5.1200   86.6180 O.2   280  ARG280     -0.2867
     92  CB        -8.6420   -5.0770   88.2760 C.3   280  ARG280      0.0307
     93  CG        -9.7000   -4.8050   87.2150 C.3   280  ARG280      0.0489
     94  CD       -10.5500   -3.6190   87.6550 C.3   280  ARG280      0.2205
     95  NE       -11.6810   -3.3270   86.7730 N.pl3 280  ARG280     -0.0865
     96  CZ       -11.6490   -2.5180   85.7120 C.cat 280  ARG280      0.5346
     97  NH1      -10.5300   -1.8990   85.3400 N.pl3 280  ARG280      0.1354
     98  NH2      -12.7560   -2.3320   85.0010 N.pl3 280  ARG280      0.1354
     99  N         -7.6250   -6.0030   82.2680 N.3   282  LEU282     -0.1245
    100  CA        -8.4460   -6.1590   81.0700 C.3   282  LEU282      0.1561
    101  C         -7.5760   -6.0840   79.8170 C.2   282  LEU282      0.2260
    102  O         -6.5540   -5.3940   79.7980 O.2   282  LEU282     -0.2867
    103  CB        -9.5230   -5.0660   80.9840 C.3   282  LEU282      0.0270
    104  CG       -10.2160   -4.5210   82.2390 C.3   282  LEU282      0.0019
    105  CD1      -11.0430   -3.2970   81.8810 C.3   282  LEU282      0.0001
    106  CD2      -11.0950   -5.5670   82.8920 C.3   282  LEU282      0.0001
    107  N         -8.0120   -4.8760   75.7690 N.3   284  ARG284     -0.1245
    108  CA        -8.7750   -3.7740   75.2050 C.3   284  ARG284      0.1563
    109  C         -8.5170   -3.6360   73.7070 C.2   284  ARG284      0.2260
    110  O         -7.4290   -3.9580   73.2230 O.2   284  ARG284     -0.2867
    111  CB        -8.3970   -2.4870   75.9400 C.3   284  ARG284      0.0307
    112  CG        -9.0630   -1.2190   75.4370 C.3   284  ARG284      0.0489
    113  CD        -8.6970   -0.0480   76.3320 C.3   284  ARG284      0.2205
    114  NE        -8.8450    1.2290   75.6420 N.pl3 284  ARG284     -0.0865
    115  CZ        -7.9430    1.7540   74.8110 C.cat 284  ARG284      0.5346
    116  NH1       -6.8010    1.1210   74.5470 N.pl3 284  ARG284      0.1354
    117  NH2       -8.1820    2.9230   74.2320 N.pl3 284  ARG284      0.1354
@<TRIPOS>BOND
     1    35    34    2
     2    41    42    1
     3    42    43    1
     4    42    45    1
     5    34    33    1
     6    47    45    1
     7   110   109    2
     8    43    44    2
     9    36    37    1
    10    36    33    1
    11    37    38    1
    12    45    46    1
    13   109   108    1
    14    33    32    1
    15   117   115    1
    16   116   115    1
    17   115   114    2
    18    38    40   ar
    19    38    39   ar
    20   108   107    1
    21   108   111    1
    22   112   111    1
    23   112   113    1
    24   114   113    1
    25    48    49    1
    26    71    69   ar
    27    71    72   ar
    28    49    50    1
    29    49    52    1
    30    24    25    2
    31    24    23    1
    32    69    68   ar
    33    50    51    2
    34    29    31   ar
    35    29    27   ar
    36    72    70   ar
    37    53    55    1
    38    53    52    1
    39    53    54    1
    40    31    30   ar
    41    23    26    1
    42    23    22    1
    43    26    27    1
    44    68    70   ar
    45    68    67    1
    46    27    28   ar
    47    63    64    1
    48    67    64    1
    49    30    28   ar
    50   102   101    2
    51     7     5    1
    52   101   100    1
    53    64    65    1
    54     1     2    1
    55    13    12    1
    56    66    65    2
    57    65    73   am
    58    12     9    1
    59   103   100    1
    60   103   104    1
    61   100    99    1
    62     5     2    1
    63     5     6    1
    64     2     3    1
    65     8     9    1
    66   105   104    1
    67    73    74    1
    68     9    10    1
    69   104   106    1
    70    62    60    1
    71     3     4    2
    72    21    19    1
    73    74    75    1
    74    10    11    2
    75    20    19    1
    76    19    18    1
    77    76    75    2
    78    61    60    1
    79    60    57    1
    80    75    77   am
    81    57    58    1
    82    57    56    1
    83    18    15    1
    84    58    59    2
    85    77    78    1
    86    98    96    1
    87    17    16    2
    88    16    15    1
    89    97    96    1
    90    81    78    1
    91    81    82    1
    92    96    95    2
    93    15    14    1
    94    78    79    1
    95    86    85    1
    96    82    83    1
    97    91    90    2
    98    90    89    1
    99    95    94    1
   100    83    84    1
   101    93    94    1
   102    93    92    1
   103    79    80    2
   104    85    84    2
   105    85    87    1
   106    89    92    1
   107    89    88    1
