@<TRIPOS>MOLECULE
tmp/6mp8A01.pdb
 121 118 0 0 0
SMALL
GASTEIGER

@<TRIPOS>ATOM
      1  N         -0.1420    5.2980   71.4280 N.3   117  GLN117     -0.1245
      2  CA        -0.6810    4.5640   72.5790 C.3   117  GLN117      0.1566
      3  C         -0.1680    3.1320   72.6580 C.2   117  GLN117      0.2260
      4  O         -0.3790    2.3390   71.7430 O.2   117  GLN117     -0.2867
      5  CB        -2.2060    4.5550   72.5320 C.3   117  GLN117      0.0367
      6  CG        -2.8100    5.9450   72.6050 C.3   117  GLN117      0.0905
      7  CD        -4.3140    5.9270   72.7620 C.2   117  GLN117      0.2608
      8  OE1       -4.8780    5.0080   73.3650 O.2   117  GLN117     -0.2717
      9  NE2       -4.9770    6.9510   72.2290 N.am  117  GLN117     -0.0878
     10  N         -4.7320   10.3410   84.6360 N.3   136  LEU136     -0.1231
     11  CA        -5.9610   10.3720   83.8450 C.3   136  LEU136      0.1693
     12  C         -5.9760    9.2890   82.7590 C.2   136  LEU136      0.2592
     13  O         -6.7070    9.4050   81.7760 O.2   136  LEU136     -0.2718
     14  CB        -6.1320   11.7580   83.2060 C.3   136  LEU136      0.0284
     15  CG        -6.0780   12.9460   84.1710 C.3   136  LEU136      0.0019
     16  CD1       -6.0090   14.2600   83.4060 C.3   136  LEU136      0.0001
     17  CD2       -7.2700   12.9270   85.1160 C.3   136  LEU136      0.0001
     18  N         -5.1820    8.2340   82.9400 N.am  137  VAL137     -0.1966
     19  CA        -5.1370    7.1360   81.9790 C.3   137  VAL137      0.1727
     20  C         -5.6760    5.8560   82.6090 C.2   137  VAL137      0.2616
     21  O         -5.8850    5.7830   83.8260 O.2   137  VAL137     -0.2715
     22  CB        -3.7110    6.9170   81.4090 C.3   137  VAL137      0.0290
     23  CG1       -3.2840    8.1270   80.5880 C.3   137  VAL137      0.0023
     24  CG2       -2.7020    6.6470   82.5120 C.3   137  VAL137      0.0023
     25  N         -5.8820    4.8470   81.7710 N.am  138  SER138     -0.1950
     26  CA        -6.5200    3.6020   82.1800 C.3   138  SER138      0.1924
     27  C         -5.6980    2.8020   83.1890 C.2   138  SER138      0.2314
     28  O         -6.2250    1.8810   83.8140 O.2   138  SER138     -0.2863
     29  CB        -6.7950    2.7340   80.9540 C.3   138  SER138      0.2116
     30  OG        -5.5830    2.3760   80.3200 O.3   138  SER138     -0.2180
     31  N        -11.3110    6.9630   87.1230 N.3   145  LEU145     -0.1231
     32  CA       -11.1450    7.3610   85.7320 C.3   145  LEU145      0.1693
     33  C        -12.4580    7.9880   85.2660 C.2   145  LEU145      0.2593
     34  O        -13.4450    7.2850   85.0370 O.2   145  LEU145     -0.2718
     35  CB       -10.7690    6.1650   84.8550 C.3   145  LEU145      0.0284
     36  CG       -10.4550    6.5050   83.3950 C.3   145  LEU145      0.0019
     37  CD1       -9.1660    7.3100   83.2990 C.3   145  LEU145      0.0001
     38  CD2      -10.3670    5.2430   82.5470 C.3   145  LEU145      0.0001
     39  N        -12.4570    9.3150   85.1430 N.am  146  GLY146     -0.1942
     40  CA       -13.6500   10.0790   84.7940 C.3   146  GLY146      0.2014
     41  C        -14.2490    9.6750   83.4610 C.2   146  GLY146      0.2639
     42  O        -13.5460    9.1670   82.5850 O.2   146  GLY146     -0.2714
     43  N        -15.5530    9.8940   83.3170 N.am  147  TRP147     -0.1959
     44  CA       -16.2680    9.4900   82.1020 C.3   147  TRP147      0.1771
     45  C        -15.7840   10.2460   80.8700 C.2   147  TRP147      0.2619
     46  O        -15.4020   11.4170   80.9550 O.2   147  TRP147     -0.2715
     47  CB       -17.7910    9.6200   82.2520 C.3   147  TRP147      0.0590
     48  CG       -18.2980   10.9400   82.7750 C.ar  147  TRP147      0.0006
     49  CD1      -18.7130   11.2050   84.0490 C.ar  147  TRP147      0.0946
     50  CD2      -18.4850   12.1510   82.0350 C.ar  147  TRP147      0.0152
     51  NE1      -19.1260   12.5070   84.1510 N.ar  147  TRP147     -0.2442
     52  CE2      -18.9960   13.1110   82.9290 C.ar  147  TRP147      0.0810
     53  CE3      -18.2600   12.5230   80.7020 C.ar  147  TRP147      0.0012
     54  CZ2      -19.2840   14.4180   82.5370 C.ar  147  TRP147      0.0191
     55  CZ3      -18.5490   13.8230   80.3160 C.ar  147  TRP147      0.0001
     56  CH2      -19.0540   14.7530   81.2270 C.ar  147  TRP147      0.0015
     57  N        -15.7950    9.5600   79.7310 N.am  148  HIS148     -0.1973
     58  CA       -15.3130   10.1320   78.4770 C.3   148  HIS148      0.1656
     59  C        -15.6780    9.3040   77.2490 C.2   148  HIS148      0.2291
     60  O        -15.8700    8.0910   77.3250 O.2   148  HIS148     -0.2864
     61  CB       -13.7890   10.2710   78.5170 C.3   148  HIS148      0.0771
     62  CG       -13.0770    8.9620   78.6570 C.ar  148  HIS148      0.0820
     63  ND1      -12.8740    8.3530   79.8760 N.ar  148  HIS148     -0.2267
     64  CD2      -12.5360    8.1390   77.7300 C.ar  148  HIS148      0.1154
     65  CE1      -12.2290    7.2150   79.6940 C.ar  148  HIS148      0.1986
     66  NE2      -12.0160    7.0590   78.4010 N.ar  148  HIS148     -0.2212
     67  N        -14.0550    7.7360   74.1670 N.3   150  GLU150     -0.1231
     68  CA       -12.6970    7.3020   73.8250 C.3   150  GLU150      0.1699
     69  C        -12.1320    8.1340   72.6790 C.2   150  GLU150      0.2592
     70  O        -12.7680    8.2710   71.6370 O.2   150  GLU150     -0.2718
     71  CB       -12.6730    5.8270   73.4320 C.3   150  GLU150      0.0402
     72  CG       -11.3070    5.1830   73.5840 C.3   150  GLU150      0.1161
     73  CD       -10.9080    4.9840   75.0380 C.2   150  GLU150      0.3649
     74  OE1      -11.7800    5.0710   75.9300 O.co2 150  GLU150     -0.2457
     75  OE2       -9.7130    4.7230   75.2880 O.co2 150  GLU150     -0.2457
     76  N        -10.9490    8.7010   72.8970 N.am  151  ASP151     -0.1974
     77  CA       -10.2530    9.5160   71.8950 C.3   151  ASP151      0.1709
     78  C        -11.1390   10.6170   71.3250 C.2   151  ASP151      0.2293
     79  O        -11.1860   10.8270   70.1120 O.2   151  ASP151     -0.2864
     80  CB        -9.7070    8.6310   70.7740 C.3   151  ASP151      0.1436
     81  CG        -8.7370    7.6080   71.2830 C.2   151  ASP151      0.3671
     82  OD1       -7.7300    8.0200   71.8940 O.co2 151  ASP151     -0.2456
     83  OD2       -8.9820    6.3970   71.0890 O.co2 151  ASP151     -0.2456
     84  N        -15.5120   14.7310   76.8250 N.3   218  ASP218     -0.1239
     85  CA       -14.5890   14.2040   77.8210 C.3   218  ASP218      0.1674
     86  C        -14.7460   15.0230   79.0900 C.2   218  ASP218      0.2266
     87  O        -14.5200   16.2310   79.0830 O.2   218  ASP218     -0.2867
     88  CB       -13.1460   14.2610   77.3090 C.3   218  ASP218      0.1410
     89  CG       -12.1690   13.5610   78.2370 C.2   218  ASP218      0.3668
     90  OD1      -11.4370   12.6610   77.7750 O.co2 218  ASP218     -0.2456
     91  OD2      -12.1310   13.9030   79.4350 O.co2 218  ASP218     -0.2456
     92  N        -13.0250   15.4960   81.6820 N.3   220  ASP220     -0.1225
     93  CA       -11.8650   16.2620   82.1320 C.3   220  ASP220      0.1805
     94  C        -11.3630   17.2520   81.0770 C.2   220  ASP220      0.2597
     95  O        -11.0270   18.3900   81.4100 O.2   220  ASP220     -0.2718
     96  CB       -10.7430   15.3120   82.5620 C.3   220  ASP220      0.1424
     97  CG       -11.1520   14.4170   83.7230 C.2   220  ASP220      0.3668
     98  OD1      -11.5560   14.9480   84.7780 O.co2 220  ASP220     -0.2456
     99  OD2      -11.0780   13.1810   83.5820 O.co2 220  ASP220     -0.2456
    100  N        -11.3470   16.8360   79.8130 N.am  221  PHE221     -0.1976
    101  CA       -10.6700   17.5900   78.7520 C.3   221  PHE221      0.1639
    102  C        -11.5640   18.5200   77.9160 C.2   221  PHE221      0.2290
    103  O        -11.0530   19.3840   77.2030 O.2   221  PHE221     -0.2864
    104  CB        -9.9100   16.6230   77.8350 C.3   221  PHE221      0.0560
    105  CG        -8.7820   15.9000   78.5250 C.ar  221  PHE221     -0.0200
    106  CD1       -7.7060   16.6080   79.0410 C.ar  221  PHE221     -0.0042
    107  CD2       -8.7930   14.5170   78.6580 C.ar  221  PHE221     -0.0042
    108  CE1       -6.6660   15.9520   79.6750 C.ar  221  PHE221     -0.0003
    109  CE2       -7.7590   13.8530   79.2940 C.ar  221  PHE221     -0.0003
    110  CZ        -6.6930   14.5710   79.8060 C.ar  221  PHE221     -0.0000
    111  N         -8.0120   -4.8760   75.7690 N.3   284  ARG284     -0.1245
    112  CA        -8.7750   -3.7740   75.2050 C.3   284  ARG284      0.1563
    113  C         -8.5170   -3.6360   73.7070 C.2   284  ARG284      0.2260
    114  O         -7.4290   -3.9580   73.2230 O.2   284  ARG284     -0.2867
    115  CB        -8.3970   -2.4870   75.9400 C.3   284  ARG284      0.0307
    116  CG        -9.0630   -1.2190   75.4370 C.3   284  ARG284      0.0489
    117  CD        -8.6970   -0.0480   76.3320 C.3   284  ARG284      0.2205
    118  NE        -8.8450    1.2290   75.6420 N.pl3 284  ARG284     -0.0865
    119  CZ        -7.9430    1.7540   74.8110 C.cat 284  ARG284      0.5346
    120  NH1       -6.8010    1.1210   74.5470 N.pl3 284  ARG284      0.1354
    121  NH2       -8.1820    2.9230   74.2320 N.pl3 284  ARG284      0.1354
@<TRIPOS>BOND
     1    79    78    2
     2    80    81    1
     3    80    77    1
     4    83    81   ar
     5    81    82   ar
     6    78    77    1
     7     1     2    1
     8    70    69    2
     9     4     3    2
    10    77    76    1
    11     9     7   am
    12     5     2    1
    13     5     6    1
    14     2     3    1
    15     6     7    1
    16    69    76   am
    17    69    68    1
    18     7     8    2
    19   114   113    2
    20    71    72    1
    21    71    68    1
    22    72    73    1
    23   113   112    1
    24    68    67    1
    25   121   119    1
    26   120   119    1
    27   119   118    2
    28    73    75   ar
    29    73    74   ar
    30   112   111    1
    31   112   115    1
    32   116   115    1
    33   116   117    1
    34   118   117    1
    35    84    85    1
    36   103   102    2
    37    59    60    2
    38    59    58    1
    39    88    85    1
    40    88    89    1
    41    64    66   ar
    42    64    62   ar
    43    90    89   ar
    44    85    86    1
    45   104   105    1
    46   104   101    1
    47   102   101    1
    48    89    91   ar
    49    66    65   ar
    50    58    61    1
    51    58    57    1
    52    61    62    1
    53   105   107   ar
    54   105   106   ar
    55    62    63   ar
    56   107   109   ar
    57   101   100    1
    58   106   108   ar
    59    87    86    2
    60   109   110   ar
    61   108   110   ar
    62    65    63   ar
    63    57    45   am
    64   100    94   am
    65    55    53   ar
    66    55    56   ar
    67    30    29    1
    68    23    22    1
    69    53    50   ar
    70    45    46    2
    71    45    44    1
    72    29    26    1
    73    94    95    2
    74    94    93    1
    75    56    54   ar
    76    22    19    1
    77    22    24    1
    78    92    93    1
    79    25    26    1
    80    25    20   am
    81    13    12    2
    82    19    20    1
    83    19    18    1
    84    50    48   ar
    85    50    52   ar
    86    44    47    1
    87    44    43    1
    88    93    96    1
    89    26    27    1
    90    47    48    1
    91    54    52   ar
    92    38    36    1
    93    96    97    1
    94    42    41    2
    95    20    21    2
    96    12    18   am
    97    12    11    1
    98    48    49   ar
    99    52    51   ar
   100    27    28    2
   101    14    11    1
   102    14    15    1
   103    37    36    1
   104    43    41   am
   105    36    35    1
   106    16    15    1
   107    41    40    1
   108    99    97   ar
   109    97    98   ar
   110    11    10    1
   111    49    51   ar
   112    15    17    1
   113    40    39    1
   114    35    32    1
   115    34    33    2
   116    39    33   am
   117    33    32    1
   118    32    31    1
