@<TRIPOS>MOLECULE
tmp/6mp9A01.pdb
 117 107 0 0 0
SMALL
GASTEIGER

@<TRIPOS>ATOM
      1  N         13.7770   -2.5670   21.2700 N.3   125  VAL125     -0.1245
      2  CA        13.2930   -1.7160   22.3420 C.3   125  VAL125      0.1561
      3  C         13.6450   -2.4320   23.6410 C.2   125  VAL125      0.2260
      4  O         13.1290   -3.5160   23.9180 O.2   125  VAL125     -0.2867
      5  CB        11.7720   -1.5040   22.2440 C.3   125  VAL125      0.0252
      6  CG1       11.2560   -0.7220   23.4450 C.3   125  VAL125      0.0019
      7  CG2       11.4170   -0.8050   20.9380 C.3   125  VAL125      0.0019
      8  N         12.9790    5.0870   23.0260 N.3   137  SER137     -0.1217
      9  CA        12.3410    3.8510   23.4730 C.3   137  SER137      0.1889
     10  C         13.1840    3.0210   24.4510 C.2   137  SER137      0.2288
     11  O         12.6770    2.0710   25.0500 O.2   137  SER137     -0.2866
     12  CB        11.9710    2.9920   22.2610 C.3   137  SER137      0.2089
     13  OG        13.1250    2.6710   21.5010 O.3   137  SER137     -0.2183
     14  N          7.5790    7.1450   28.2910 N.3   144  LEU144     -0.1245
     15  CA         7.7430    7.5480   26.8990 C.3   144  LEU144      0.1561
     16  C          6.4210    8.1810   26.4530 C.2   144  LEU144      0.2260
     17  O          5.4110    7.4900   26.3190 O.2   144  LEU144     -0.2867
     18  CB         8.0980    6.3530   26.0140 C.3   144  LEU144      0.0270
     19  CG         8.4240    6.6750   24.5520 C.3   144  LEU144      0.0019
     20  CD1        9.7950    7.3190   24.4310 C.3   144  LEU144      0.0001
     21  CD2        8.3510    5.4240   23.6830 C.3   144  LEU144      0.0001
     22  N          3.1260    9.7130   20.8440 N.3   147  HIS147     -0.1241
     23  CA         3.6250   10.2670   19.5910 C.3   147  HIS147      0.1621
     24  C          3.2440    9.4200   18.3810 C.2   147  HIS147      0.2264
     25  O          3.0320    8.2150   18.4830 O.2   147  HIS147     -0.2867
     26  CB         5.1490   10.3690   19.6480 C.3   147  HIS147      0.0745
     27  CG         5.8250    9.0490   19.8510 C.ar  147  HIS147      0.0817
     28  ND1        5.9870    8.4800   21.0950 N.ar  147  HIS147     -0.2268
     29  CD2        6.3610    8.1770   18.9650 C.ar  147  HIS147      0.1154
     30  CE1        6.6050    7.3180   20.9690 C.ar  147  HIS147      0.1986
     31  NE2        6.8420    7.1110   19.6860 N.ar  147  HIS147     -0.2212
     32  N          4.9000    7.8150   15.2990 N.3   149  GLU149     -0.1245
     33  CA         6.2710    7.3890   14.9940 C.3   149  GLU149      0.1567
     34  C          6.8250    8.2340   13.8510 C.2   149  GLU149      0.2260
     35  O          6.1690    8.3970   12.8230 O.2   149  GLU149     -0.2867
     36  CB         6.3330    5.9080   14.6170 C.3   149  GLU149      0.0388
     37  CG         7.7330    5.3060   14.6910 C.3   149  GLU149      0.1160
     38  CD         8.1840    4.9880   16.1130 C.2   149  GLU149      0.3649
     39  OE1        7.3900    5.1860   17.0600 O.co2 149  GLU149     -0.2457
     40  OE2        9.3340    4.5210   16.2820 O.co2 149  GLU149     -0.2457
     41  N          3.4540    0.4070   12.7630 N.3   160  VAL160     -0.1245
     42  CA         4.6190    0.0770   13.5720 C.3   160  VAL160      0.1561
     43  C          4.3430   -1.2550   14.2560 C.2   160  VAL160      0.2260
     44  O          3.3760   -1.3800   15.0060 O.2   160  VAL160     -0.2867
     45  CB         4.9140    1.1650   14.6210 C.3   160  VAL160      0.0252
     46  CG1        6.0730    0.7490   15.5230 C.3   160  VAL160      0.0019
     47  CG2        5.2200    2.4910   13.9330 C.3   160  VAL160      0.0019
     48  N          5.3350   -4.3100   16.8390 N.3   162  LEU162     -0.1245
     49  CA         6.0280   -4.5410   18.1060 C.3   162  LEU162      0.1561
     50  C          5.7740   -5.9690   18.5420 C.2   162  LEU162      0.2260
     51  O          4.6220   -6.3470   18.7600 O.2   162  LEU162     -0.2867
     52  CB         5.5110   -3.6050   19.1970 C.3   162  LEU162      0.0270
     53  CG         5.6900   -2.1030   19.0020 C.3   162  LEU162      0.0019
     54  CD1        4.8960   -1.3450   20.0580 C.3   162  LEU162      0.0001
     55  CD2        7.1620   -1.7170   19.0520 C.3   162  LEU162      0.0001
     56  N          2.1360   -0.5410   26.9200 N.3   173  THR173     -0.1218
     57  CA         2.2100    0.3890   25.8100 C.3   173  THR173      0.1862
     58  C          0.9680    1.2690   25.9190 C.2   173  THR173      0.2287
     59  O         -0.0920    0.7870   26.3160 O.2   173  THR173     -0.2866
     60  CB         2.2000   -0.3810   24.4730 C.3   173  THR173      0.1770
     61  OG1        3.3230   -1.2660   24.4260 O.3   173  THR173     -0.2211
     62  CG2        2.2420    0.5510   23.2670 C.3   173  THR173      0.0375
     63  N          1.1640    6.5730   20.1210 N.3   290  HIS290     -0.1226
     64  CA         1.4870    5.5780   21.1330 C.3   290  HIS290      0.1752
     65  C          2.6890    6.0130   21.9620 C.2   290  HIS290      0.2597
     66  O          3.4390    6.9120   21.5740 O.2   290  HIS290     -0.2718
     67  CB         1.7800    4.2330   20.4690 C.3   290  HIS290      0.0759
     68  CG         3.0730    4.2140   19.7230 C.ar  290  HIS290      0.0818
     69  ND1        3.2050    4.7290   18.4520 N.ar  290  HIS290     -0.2268
     70  CD2        4.3040    3.7810   20.0830 C.ar  290  HIS290      0.1154
     71  CE1        4.4570    4.6020   18.0560 C.ar  290  HIS290      0.1986
     72  NE2        5.1450    4.0350   19.0300 N.ar  290  HIS290     -0.2212
     73  N          2.8540    5.3560   23.1040 N.am  291  GLY291     -0.1942
     74  CA         3.9940    5.5640   23.9840 C.3   291  GLY291      0.2014
     75  C          4.2070    4.3380   24.8500 C.2   291  GLY291      0.2638
     76  O          3.8440    3.2190   24.4680 O.2   291  GLY291     -0.2714
     77  N          4.7850    4.5510   26.0250 N.am  292  ARG292     -0.1977
     78  CA         5.0560    3.4700   26.9570 C.3   292  ARG292      0.1597
     79  C          5.1100    4.0300   28.3700 C.2   292  ARG292      0.2287
     80  O          5.7570    5.0500   28.6130 O.2   292  ARG292     -0.2864
     81  CB         6.3840    2.7950   26.6150 C.3   292  ARG292      0.0334
     82  CG         6.6330    1.4970   27.3690 C.3   292  ARG292      0.0492
     83  CD         8.0710    1.3830   27.8570 C.3   292  ARG292      0.2205
     84  NE         8.3830    2.4410   28.8180 N.pl3 292  ARG292     -0.0865
     85  CZ         9.2430    3.4440   28.6240 C.cat 292  ARG292      0.5346
     86  NH1        9.9400    3.5640   27.4930 N.pl3 292  ARG292      0.1354
     87  NH2        9.4170    4.3370   29.5860 N.pl3 292  ARG292      0.1354
     88  N         12.1650   -6.0970   30.1380 N.3   304  ARG304     -0.1245
     89  CA        11.2630   -5.9970   29.0060 C.3   304  ARG304      0.1563
     90  C         12.0440   -5.7250   27.7300 C.2   304  ARG304      0.2260
     91  O         12.9240   -4.8560   27.6990 O.2   304  ARG304     -0.2867
     92  CB        10.2810   -4.8540   29.2690 C.3   304  ARG304      0.0307
     93  CG         9.2650   -4.5690   28.1710 C.3   304  ARG304      0.0489
     94  CD         8.4530   -3.3420   28.5580 C.3   304  ARG304      0.2205
     95  NE         7.3230   -3.0710   27.6670 N.pl3 304  ARG304     -0.0865
     96  CZ         7.3440   -2.2550   26.6100 C.cat 304  ARG304      0.5346
     97  NH1        8.4540   -1.6140   26.2520 N.pl3 304  ARG304      0.1354
     98  NH2        6.2390   -2.0930   25.8870 N.pl3 304  ARG304      0.1354
     99  N         11.4190   -5.7200   23.3220 N.3   306  LEU306     -0.1245
    100  CA        10.6170   -5.8710   22.1080 C.3   306  LEU306      0.1561
    101  C         11.5020   -5.8180   20.8760 C.2   306  LEU306      0.2260
    102  O         12.5280   -5.1280   20.8670 O.2   306  LEU306     -0.2867
    103  CB         9.5650   -4.7590   21.9820 C.3   306  LEU306      0.0270
    104  CG         8.8400   -4.2130   23.2150 C.3   306  LEU306      0.0019
    105  CD1        7.9780   -3.0210   22.8170 C.3   306  LEU306      0.0001
    106  CD2        7.9850   -5.2870   23.8630 C.3   306  LEU306      0.0001
    107  N         11.0710   -4.5380   16.9030 N.3   308  ARG308     -0.1245
    108  CA        10.2490   -3.5010   16.2890 C.3   308  ARG308      0.1563
    109  C         10.5690   -3.3660   14.8110 C.2   308  ARG308      0.2260
    110  O         11.6860   -3.6360   14.3910 O.2   308  ARG308     -0.2867
    111  CB        10.4770   -2.1670   16.9990 C.3   308  ARG308      0.0307
    112  CG         9.6430   -1.0050   16.4760 C.3   308  ARG308      0.0489
    113  CD         9.8830    0.2500   17.2930 C.3   308  ARG308      0.2205
    114  NE        11.2730    0.6950   17.2050 N.pl3 308  ARG308     -0.0865
    115  CZ        11.8050    1.6830   17.9250 C.cat 308  ARG308      0.5346
    116  NH1       11.0720    2.3500   18.8160 N.pl3 308  ARG308      0.1354
    117  NH2       13.0870    2.0040   17.7570 N.pl3 308  ARG308      0.1354
@<TRIPOS>BOND
     1    41    42    1
     2    35    34    2
     3    42    43    1
     4    42    45    1
     5    34    33    1
     6    47    45    1
     7    43    44    2
     8   110   109    2
     9    36    37    1
    10    36    33    1
    11    45    46    1
    12    37    38    1
    13   109   108    1
    14    33    32    1
    15    38    40   ar
    16    38    39   ar
    17   108   107    1
    18   108   111    1
    19   112   111    1
    20   112   113    1
    21    48    49    1
    22   114   113    1
    23   114   115    2
    24   117   115    1
    25   115   116    1
    26    71    69   ar
    27    71    72   ar
    28    49    50    1
    29    49    52    1
    30    24    25    2
    31    24    23    1
    32    69    68   ar
    33    50    51    2
    34    29    31   ar
    35    29    27   ar
    36    53    55    1
    37    53    52    1
    38    53    54    1
    39    72    70   ar
    40    23    26    1
    41    23    22    1
    42    26    27    1
    43    31    30   ar
    44    68    70   ar
    45    68    67    1
    46    27    28   ar
    47    63    64    1
    48    67    64    1
    49   102   101    2
    50   101   100    1
    51     7     5    1
    52    30    28   ar
    53    64    65    1
    54     1     2    1
    55    13    12    1
    56    66    65    2
    57    65    73   am
    58   103   100    1
    59   103   104    1
    60   100    99    1
    61     5     2    1
    62     5     6    1
    63    12     9    1
    64     2     3    1
    65   105   104    1
    66     8     9    1
    67    73    74    1
    68   104   106    1
    69    62    60    1
    70     9    10    1
    71     3     4    2
    72    21    19    1
    73    74    75    1
    74    61    60    1
    75    20    19    1
    76    10    11    2
    77    76    75    2
    78    60    57    1
    79    19    18    1
    80    75    77   am
    81    57    58    1
    82    57    56    1
    83    98    96    1
    84    58    59    2
    85    18    15    1
    86    77    78    1
    87    97    96    1
    88    17    16    2
    89    16    15    1
    90    96    95    2
    91    81    78    1
    92    81    82    1
    93    15    14    1
    94    78    79    1
    95    82    83    1
    96    86    85    1
    97    95    94    1
    98    91    90    2
    99    90    89    1
   100    83    84    1
   101    93    94    1
   102    93    92    1
   103    79    80    2
   104    85    84    2
   105    85    87    1
   106    89    92    1
   107    89    88    1
