@<TRIPOS>MOLECULE
tmp/6mp9A00.pdb
 137 132 0 0 0
SMALL
GASTEIGER

@<TRIPOS>ATOM
      1  N         18.9090    5.7190   12.5210 N.3   116  GLN116     -0.1245
      2  CA        18.3580    5.0270   13.6880 C.3   116  GLN116      0.1566
      3  C         18.8530    3.5800   13.7750 C.2   116  GLN116      0.2260
      4  O         18.7030    2.8000   12.8330 O.2   116  GLN116     -0.2867
      5  CB        16.8280    5.0840   13.6630 C.3   116  GLN116      0.0367
      6  CG        16.1650    4.4820   14.8960 C.3   116  GLN116      0.0905
      7  CD        14.7090    4.8890   15.0620 C.2   116  GLN116      0.2608
      8  OE1       14.1460    4.7660   16.1480 O.2   116  GLN116     -0.2717
      9  NE2       14.0930    5.3790   13.9860 N.am  116  GLN116     -0.0878
     10  N         14.2200   10.5350   25.8500 N.3   135  LEU135     -0.1231
     11  CA        12.9720   10.6170   25.0900 C.3   135  LEU135      0.1693
     12  C         12.8890    9.5260   24.0180 C.2   135  LEU135      0.2592
     13  O         12.0990    9.6280   23.0790 O.2   135  LEU135     -0.2718
     14  CB        12.8590   12.0030   24.4420 C.3   135  LEU135      0.0284
     15  CG        12.9700   13.1750   25.4250 C.3   135  LEU135      0.0019
     16  CD1       13.0840   14.5020   24.6890 C.3   135  LEU135      0.0001
     17  CD2       11.7810   13.1800   26.3730 C.3   135  LEU135      0.0001
     18  N         13.6970    8.4790   24.1670 N.am  136  VAL136     -0.1966
     19  CA        13.7330    7.3900   23.1920 C.3   136  VAL136      0.1727
     20  C         13.2370    6.1030   23.8490 C.2   136  VAL136      0.2616
     21  O         13.1020    6.0360   25.0750 O.2   136  VAL136     -0.2715
     22  CB        15.1410    7.2210   22.5760 C.3   136  VAL136      0.0290
     23  CG1       15.5350    8.4890   21.8280 C.3   136  VAL136      0.0023
     24  CG2       16.1810    6.9020   23.6370 C.3   136  VAL136      0.0023
     25  N         12.9790    5.0870   23.0260 N.am  137  SER137     -0.1950
     26  CA        12.3410    3.8510   23.4730 C.3   137  SER137      0.1924
     27  C         13.1840    3.0210   24.4510 C.2   137  SER137      0.2314
     28  O         12.6770    2.0710   25.0500 O.2   137  SER137     -0.2863
     29  CB        11.9710    2.9920   22.2610 C.3   137  SER137      0.2116
     30  OG        13.1250    2.6710   21.5010 O.3   137  SER137     -0.2180
     31  N          7.5790    7.1450   28.2910 N.3   144  LEU144     -0.1231
     32  CA         7.7430    7.5480   26.8990 C.3   144  LEU144      0.1693
     33  C          6.4210    8.1810   26.4530 C.2   144  LEU144      0.2593
     34  O          5.4110    7.4900   26.3190 O.2   144  LEU144     -0.2718
     35  CB         8.0980    6.3530   26.0140 C.3   144  LEU144      0.0284
     36  CG         8.4240    6.6750   24.5520 C.3   144  LEU144      0.0019
     37  CD1        9.7950    7.3190   24.4310 C.3   144  LEU144      0.0001
     38  CD2        8.3510    5.4240   23.6830 C.3   144  LEU144      0.0001
     39  N          6.4420    9.4960   26.2460 N.am  145  GLY145     -0.1942
     40  CA         5.2430   10.2690   25.9130 C.3   145  GLY145      0.2014
     41  C          4.6480    9.8850   24.5720 C.2   145  GLY145      0.2639
     42  O          5.3530    9.3830   23.6920 O.2   145  GLY145     -0.2714
     43  N          3.3460   10.1130   24.4190 N.am  146  TRP146     -0.1959
     44  CA         2.6420    9.6750   23.2090 C.3   146  TRP146      0.1771
     45  C          3.1210   10.4170   21.9710 C.2   146  TRP146      0.2619
     46  O          3.4700   11.5950   22.0380 O.2   146  TRP146     -0.2715
     47  CB         1.1160    9.7920   23.3360 C.3   146  TRP146      0.0590
     48  CG         0.5960   11.0890   23.8870 C.ar  146  TRP146      0.0006
     49  CD1        0.1670   11.3110   25.1590 C.ar  146  TRP146      0.0946
     50  CD2        0.4100   12.3190   23.1810 C.ar  146  TRP146      0.0152
     51  NE1       -0.2580   12.6060   25.3000 N.ar  146  TRP146     -0.2442
     52  CE2       -0.1150   13.2500   24.1010 C.ar  146  TRP146      0.0810
     53  CE3        0.6500   12.7330   21.8670 C.ar  146  TRP146      0.0012
     54  CZ2       -0.4090   14.5640   23.7480 C.ar  146  TRP146      0.0191
     55  CZ3        0.3530   14.0430   21.5170 C.ar  146  TRP146      0.0001
     56  CH2       -0.1690   14.9420   22.4520 C.ar  146  TRP146      0.0015
     57  N          3.1260    9.7130   20.8440 N.am  147  HIS147     -0.1973
     58  CA         3.6250   10.2670   19.5910 C.3   147  HIS147      0.1656
     59  C          3.2440    9.4200   18.3810 C.2   147  HIS147      0.2291
     60  O          3.0320    8.2150   18.4830 O.2   147  HIS147     -0.2864
     61  CB         5.1490   10.3690   19.6480 C.3   147  HIS147      0.0771
     62  CG         5.8250    9.0490   19.8510 C.ar  147  HIS147      0.0820
     63  ND1        5.9870    8.4800   21.0950 N.ar  147  HIS147     -0.2267
     64  CD2        6.3610    8.1770   18.9650 C.ar  147  HIS147      0.1154
     65  CE1        6.6050    7.3180   20.9690 C.ar  147  HIS147      0.1986
     66  NE2        6.8420    7.1110   19.6860 N.ar  147  HIS147     -0.2212
     67  N          4.9000    7.8150   15.2990 N.3   149  GLU149     -0.1245
     68  CA         6.2710    7.3890   14.9940 C.3   149  GLU149      0.1567
     69  C          6.8250    8.2340   13.8510 C.2   149  GLU149      0.2260
     70  O          6.1690    8.3970   12.8230 O.2   149  GLU149     -0.2867
     71  CB         6.3330    5.9080   14.6170 C.3   149  GLU149      0.0388
     72  CG         7.7330    5.3060   14.6910 C.3   149  GLU149      0.1160
     73  CD         8.1840    4.9880   16.1130 C.2   149  GLU149      0.3649
     74  OE1        7.3900    5.1860   17.0600 O.co2 149  GLU149     -0.2457
     75  OE2        9.3340    4.5210   16.2820 O.co2 149  GLU149     -0.2457
     76  N         12.7280   13.4450   16.3860 N.3   201  ASP201     -0.1239
     77  CA        12.9220   13.0170   17.7640 C.3   201  ASP201      0.1674
     78  C         14.3690   12.5900   17.9970 C.2   201  ASP201      0.2266
     79  O         15.1430   12.4380   17.0480 O.2   201  ASP201     -0.2867
     80  CB        11.9580   11.8800   18.1080 C.3   201  ASP201      0.1410
     81  CG        12.3140   10.5790   17.4180 C.2   201  ASP201      0.3668
     82  OD1       13.1830    9.8570   17.9470 O.co2 201  ASP201     -0.2456
     83  OD2       11.7220   10.2760   16.3590 O.co2 201  ASP201     -0.2456
     84  N         15.8420    9.8270   18.7640 N.3   203  SER203     -0.1217
     85  CA        16.3360    8.5520   18.2300 C.3   203  SER203      0.1889
     86  C         17.1260    8.7090   16.9180 C.2   203  SER203      0.2288
     87  O         17.8890    7.8110   16.5480 O.2   203  SER203     -0.2866
     88  CB        15.1880    7.5540   18.0330 C.3   203  SER203      0.2089
     89  OG        14.3460    7.9340   16.9600 O.3   203  SER203     -0.2183
     90  N          3.4830   14.8410   17.9370 N.3   242  ASP242     -0.1239
     91  CA         4.4000   14.2920   18.9110 C.3   242  ASP242      0.1674
     92  C          4.3240   15.1820   20.1330 C.2   242  ASP242      0.2266
     93  O          4.6580   16.3680   20.0630 O.2   242  ASP242     -0.2867
     94  CB         5.8180   14.2520   18.3460 C.3   242  ASP242      0.1410
     95  CG         6.8110   13.6250   19.3040 C.2   242  ASP242      0.3668
     96  OD1        7.6090   12.7710   18.8680 O.co2 242  ASP242     -0.2456
     97  OD2        6.7990   13.9930   20.4960 O.co2 242  ASP242     -0.2456
     98  N          6.1020   15.5980   22.7240 N.3   244  ASP244     -0.1225
     99  CA         7.3350   16.2700   23.1660 C.3   244  ASP244      0.1805
    100  C          8.1080   17.0010   22.0600 C.2   244  ASP244      0.2597
    101  O          9.1140   17.6520   22.3490 O.2   244  ASP244     -0.2718
    102  CB         8.2800   15.2580   23.8180 C.3   244  ASP244      0.1424
    103  CG         7.6810   14.6050   25.0390 C.2   244  ASP244      0.3668
    104  OD1        7.2550   15.3260   25.9670 O.co2 244  ASP244     -0.2456
    105  OD2        7.6410   13.3620   25.0690 O.co2 244  ASP244     -0.2456
    106  N          7.6750   16.8790   20.8060 N.am  245  PHE245     -0.1976
    107  CA         8.3950   17.4960   19.6900 C.3   245  PHE245      0.1639
    108  C          7.5240   18.3670   18.7720 C.2   245  PHE245      0.2290
    109  O          8.0150   18.8730   17.7550 O.2   245  PHE245     -0.2864
    110  CB         9.1350   16.4130   18.8890 C.3   245  PHE245      0.0560
    111  CG        10.3010   15.8160   19.6290 C.ar  245  PHE245     -0.0200
    112  CD1       11.5450   16.4410   19.6070 C.ar  245  PHE245     -0.0042
    113  CD2       10.1560   14.6520   20.3730 C.ar  245  PHE245     -0.0042
    114  CE1       12.6200   15.9070   20.2990 C.ar  245  PHE245     -0.0003
    115  CE2       11.2290   14.1130   21.0690 C.ar  245  PHE245     -0.0003
    116  CZ        12.4610   14.7410   21.0340 C.ar  245  PHE245     -0.0000
    117  N          1.1640    6.5730   20.1210 N.3   290  HIS290     -0.1241
    118  CA         1.4870    5.5780   21.1330 C.3   290  HIS290      0.1621
    119  C          2.6890    6.0130   21.9620 C.2   290  HIS290      0.2264
    120  O          3.4390    6.9120   21.5740 O.2   290  HIS290     -0.2867
    121  CB         1.7800    4.2330   20.4690 C.3   290  HIS290      0.0745
    122  CG         3.0730    4.2140   19.7230 C.ar  290  HIS290      0.0817
    123  ND1        3.2050    4.7290   18.4520 N.ar  290  HIS290     -0.2268
    124  CD2        4.3040    3.7810   20.0830 C.ar  290  HIS290      0.1154
    125  CE1        4.4570    4.6020   18.0560 C.ar  290  HIS290      0.1986
    126  NE2        5.1450    4.0350   19.0300 N.ar  290  HIS290     -0.2212
    127  N         11.0710   -4.5380   16.9030 N.3   308  ARG308     -0.1245
    128  CA        10.2490   -3.5010   16.2890 C.3   308  ARG308      0.1563
    129  C         10.5690   -3.3660   14.8110 C.2   308  ARG308      0.2260
    130  O         11.6860   -3.6360   14.3910 O.2   308  ARG308     -0.2867
    131  CB        10.4770   -2.1670   16.9990 C.3   308  ARG308      0.0307
    132  CG         9.6430   -1.0050   16.4760 C.3   308  ARG308      0.0489
    133  CD         9.8830    0.2500   17.2930 C.3   308  ARG308      0.2205
    134  NE        11.2730    0.6950   17.2050 N.pl3 308  ARG308     -0.0865
    135  CZ        11.8050    1.6830   17.9250 C.cat 308  ARG308      0.5346
    136  NH1       11.0720    2.3500   18.8160 N.pl3 308  ARG308      0.1354
    137  NH2       13.0870    2.0040   17.7570 N.pl3 308  ARG308      0.1354
@<TRIPOS>BOND
     1     1     2    1
     2    70    69    2
     3     4     3    2
     4     5     2    1
     5     5     6    1
     6     2     3    1
     7    69    68    1
     8     9     7   am
     9   130   129    2
    10    71    72    1
    11    71    68    1
    12    72    73    1
    13   129   128    1
    14     6     7    1
    15    68    67    1
    16     7     8    2
    17    73    75   ar
    18    73    74   ar
    19   128   127    1
    20   128   131    1
    21    83    81   ar
    22    76    77    1
    23   132   131    1
    24   132   133    1
    25    87    86    2
    26    86    85    1
    27    89    88    1
    28    79    78    2
    29   134   133    1
    30   134   135    2
    31    81    82   ar
    32    81    80    1
    33   109   108    2
    34   137   135    1
    35    77    78    1
    36    77    80    1
    37   135   136    1
    38    90    91    1
    39    88    85    1
    40   125   123   ar
    41   125   126   ar
    42    85    84    1
    43    94    91    1
    44    94    95    1
    45    59    60    2
    46    59    58    1
    47   123   122   ar
    48   108   107    1
    49    96    95   ar
    50   110   111    1
    51   110   107    1
    52    91    92    1
    53    64    66   ar
    54    64    62   ar
    55   126   124   ar
    56    95    97   ar
    57    58    61    1
    58    58    57    1
    59   112   111   ar
    60   112   114   ar
    61   111   113   ar
    62    61    62    1
    63    66    65   ar
    64   107   106    1
    65   122   124   ar
    66   122   121    1
    67    62    63   ar
    68    93    92    2
    69   117   118    1
    70   114   116   ar
    71   113   115   ar
    72   121   118    1
    73   106   100   am
    74    57    45   am
    75    65    63   ar
    76   116   115   ar
    77   118   119    1
    78    30    29    1
    79    55    53   ar
    80    55    56   ar
    81   120   119    2
    82    23    22    1
    83    53    50   ar
    84    45    46    2
    85    45    44    1
    86   100   101    2
    87   100    99    1
    88    29    26    1
    89    56    54   ar
    90    22    19    1
    91    22    24    1
    92    98    99    1
    93    25    26    1
    94    25    20   am
    95    13    12    2
    96    99   102    1
    97    50    48   ar
    98    50    52   ar
    99    19    20    1
   100    19    18    1
   101    44    47    1
   102    44    43    1
   103    47    48    1
   104    26    27    1
   105    38    36    1
   106    42    41    2
   107    54    52   ar
   108   102   103    1
   109    20    21    2
   110    48    49   ar
   111    12    18   am
   112    12    11    1
   113    52    51   ar
   114    43    41   am
   115    37    36    1
   116    14    11    1
   117    14    15    1
   118    27    28    2
   119    36    35    1
   120    41    40    1
   121    16    15    1
   122   103   105   ar
   123   103   104   ar
   124    11    10    1
   125    49    51   ar
   126    15    17    1
   127    40    39    1
   128    35    32    1
   129    39    33   am
   130    34    33    2
   131    33    32    1
   132    32    31    1
