@<TRIPOS>MOLECULE
tmp/6mpaB01.pdb
 146 140 0 0 0
SMALL
GASTEIGER

@<TRIPOS>ATOM
      1  N          3.9020   23.9400  -21.7400 N.3    88  HIS88      -0.1241
      2  CA         4.9170   24.7010  -21.0240 C.3    88  HIS88       0.1621
      3  C          6.2180   24.7570  -21.8080 C.2    88  HIS88       0.2264
      4  O          6.7360   23.7180  -22.2310 O.2    88  HIS88      -0.2867
      5  CB         5.1890   24.1060  -19.6440 C.3    88  HIS88       0.0745
      6  CG         6.0970   24.9510  -18.8170 C.ar   88  HIS88       0.0817
      7  ND1        5.6970   26.1490  -18.2680 N.ar   88  HIS88      -0.2268
      8  CD2        7.4040   24.8060  -18.5000 C.ar   88  HIS88       0.1154
      9  CE1        6.7110   26.6900  -17.6160 C.ar   88  HIS88       0.1986
     10  NE2        7.7600   25.8970  -17.7450 N.ar   88  HIS88      -0.2212
     11  N          9.9970   27.1610  -21.4350 N.3    90  SER90      -0.1202
     12  CA        10.9350   28.2230  -21.0360 C.3    90  SER90       0.2020
     13  C         10.3160   29.2790  -20.1190 C.2    90  SER90       0.2619
     14  O         10.5080   30.4810  -20.3150 O.2    90  SER90      -0.2717
     15  CB        11.5400   28.8820  -22.2750 C.3    90  SER90       0.2103
     16  OG        12.2420   27.9260  -23.0600 O.3    90  SER90      -0.2182
     17  N          9.5750   28.8210  -19.1080 N.am   91  SER91      -0.1951
     18  CA         8.9170   29.5790  -18.0200 C.3    91  SER91       0.1924
     19  C          7.5450   30.1250  -18.4120 C.2    91  SER91       0.2314
     20  O          6.8900   30.7490  -17.5670 O.2    91  SER91      -0.2863
     21  CB         9.7700   30.7410  -17.4680 C.3    91  SER91       0.2116
     22  OG         9.5750   31.9320  -18.2130 O.3    91  SER91      -0.2180
     23  N          5.7860   18.6840  -23.2460 N.3   141  ASN141     -0.1225
     24  CA         6.9800   19.0580  -22.4930 C.3   141  ASN141      0.1785
     25  C          6.6050   19.3360  -21.0410 C.2   141  ASN141      0.2597
     26  O          5.8720   20.2900  -20.7530 O.2   141  ASN141     -0.2718
     27  CB         7.6470   20.2800  -23.1130 C.3   141  ASN141      0.1169
     28  CG         8.9330   20.6550  -22.3960 C.2   141  ASN141      0.2627
     29  OD1        9.8240   19.8220  -22.2200 O.2   141  ASN141     -0.2716
     30  ND2        9.0210   21.9060  -21.9570 N.am  141  ASN141     -0.0877
     31  N          7.0940   18.4910  -20.1320 N.am  142  GLU142     -0.1979
     32  CA         7.0160   18.7400  -18.6890 C.3   142  GLU142      0.1602
     33  C          5.5960   19.0960  -18.2590 C.2   142  GLU142      0.2287
     34  O          5.3790   20.0400  -17.4960 O.2   142  GLU142     -0.2864
     35  CB         8.0030   19.8410  -18.2790 C.3   142  GLU142      0.0415
     36  CG         9.4490   19.5390  -18.6790 C.3   142  GLU142      0.1163
     37  CD        10.4070   20.6870  -18.3770 C.2   142  GLU142      0.3649
     38  OE1        9.9470   21.7420  -17.8880 O.co2 142  GLU142     -0.2457
     39  OE2       11.6160   20.5360  -18.6520 O.co2 142  GLU142     -0.2457
     40  N          4.2640   19.9710  -14.6440 N.3   145  GLN145     -0.1245
     41  CA         4.3970   21.2540  -13.9550 C.3   145  GLN145      0.1566
     42  C          3.0370   21.8950  -13.6990 C.2   145  GLN145      0.2260
     43  O          2.8760   22.6380  -12.7250 O.2   145  GLN145     -0.2867
     44  CB         5.3120   22.2000  -14.7400 C.3   145  GLN145      0.0367
     45  CG         4.7660   22.7270  -16.0810 C.3   145  GLN145      0.0905
     46  CD         4.2900   24.1730  -15.9990 C.2   145  GLN145      0.2608
     47  OE1        4.9190   25.0170  -15.3470 O.2   145  GLN145     -0.2717
     48  NE2        3.1810   24.4670  -16.6710 N.am  145  GLN145     -0.0878
     49  N          9.1690   17.2610  -15.7080 N.3   189  ASN189     -0.1225
     50  CA        10.3340   17.8790  -15.0880 C.3   189  ASN189      0.1785
     51  C         10.7360   17.0610  -13.8610 C.2   189  ASN189      0.2597
     52  O         10.0990   16.0620  -13.5190 O.2   189  ASN189     -0.2718
     53  CB        10.0640   19.3500  -14.7550 C.3   189  ASN189      0.1169
     54  CG         8.9940   19.5430  -13.6870 C.2   189  ASN189      0.2627
     55  OD1        8.7720   18.6890  -12.8290 O.2   189  ASN189     -0.2716
     56  ND2        8.3330   20.6920  -13.7350 N.am  189  ASN189     -0.0877
     57  N         11.8000   17.4870  -13.1790 N.am  190  ASP190     -0.1974
     58  CA        12.3860   16.6390  -12.1450 C.3   190  ASP190      0.1709
     59  C         11.5940   16.6110  -10.8390 C.2   190  ASP190      0.2293
     60  O         12.0370   15.9560   -9.8930 O.2   190  ASP190     -0.2864
     61  CB        13.8380   17.0570  -11.8610 C.3   190  ASP190      0.1436
     62  CG        13.9700   18.4950  -11.3790 C.2   190  ASP190      0.3671
     63  OD1       12.9740   19.0870  -10.9010 O.co2 190  ASP190     -0.2456
     64  OD2       15.0960   19.0340  -11.4730 O.co2 190  ASP190     -0.2456
     65  N         14.9330   15.2920  -17.8430 N.3   215  HIS215     -0.1241
     66  CA        15.4150   16.6270  -18.1910 C.3   215  HIS215      0.1621
     67  C         16.3250   17.0950  -17.0610 C.2   215  HIS215      0.2264
     68  O         15.8630   17.2730  -15.9290 O.2   215  HIS215     -0.2867
     69  CB        14.2550   17.6160  -18.3840 C.3   215  HIS215      0.0745
     70  CG        13.3720   17.3130  -19.5610 C.ar  215  HIS215      0.0817
     71  ND1       12.2950   18.1050  -19.9010 N.ar  215  HIS215     -0.2268
     72  CD2       13.4060   16.3140  -20.4780 C.ar  215  HIS215      0.1154
     73  CE1       11.7000   17.6050  -20.9710 C.ar  215  HIS215      0.1986
     74  NE2       12.3530   16.5170  -21.3400 N.ar  215  HIS215     -0.2212
     75  N         18.7140   19.6810  -15.2350 N.3   217  TRP217     -0.1241
     76  CA        18.9400   21.1210  -15.1060 C.3   217  TRP217      0.1605
     77  C         19.5130   21.4110  -13.7240 C.2   217  TRP217      0.2264
     78  O         18.7920   21.3280  -12.7240 O.2   217  TRP217     -0.2867
     79  CB        17.6440   21.8960  -15.3350 C.3   217  TRP217      0.0550
     80  CG        17.2200   21.8730  -16.7590 C.ar  217  TRP217      0.0003
     81  CD1       16.2070   21.1420  -17.3060 C.ar  217  TRP217      0.0946
     82  CD2       17.8130   22.6090  -17.8300 C.ar  217  TRP217      0.0152
     83  NE1       16.1260   21.3860  -18.6590 N.ar  217  TRP217     -0.2442
     84  CE2       17.1070   22.2800  -19.0030 C.ar  217  TRP217      0.0810
     85  CE3       18.8750   23.5150  -17.9100 C.ar  217  TRP217      0.0012
     86  CZ2       17.4280   22.8250  -20.2440 C.ar  217  TRP217      0.0191
     87  CZ3       19.1910   24.0580  -19.1420 C.ar  217  TRP217      0.0001
     88  CH2       18.4690   23.7100  -20.2940 C.ar  217  TRP217      0.0015
     89  N         20.3170   24.0720  -12.3080 N.3   219  PHE219     -0.1241
     90  CA        19.8280   25.2030  -11.5270 C.3   219  PHE219      0.1605
     91  C         18.7910   24.7810  -10.4930 C.2   219  PHE219      0.2264
     92  O         18.2580   25.6440   -9.7820 O.2   219  PHE219     -0.2867
     93  CB        19.2500   26.3230  -12.4160 C.3   219  PHE219      0.0534
     94  CG        18.1960   25.8790  -13.4060 C.ar  219  PHE219     -0.0203
     95  CD1       17.0280   25.2620  -12.9890 C.ar  219  PHE219     -0.0042
     96  CD2       18.3370   26.1780  -14.7530 C.ar  219  PHE219     -0.0042
     97  CE1       16.0580   24.8880  -13.8940 C.ar  219  PHE219     -0.0003
     98  CE2       17.3600   25.8120  -15.6690 C.ar  219  PHE219     -0.0003
     99  CZ        16.2210   25.1660  -15.2400 C.ar  219  PHE219     -0.0000
    100  N         16.4890   16.4320  -22.2920 N.3   259  GLU259     -0.1245
    101  CA        17.0060   17.7870  -22.1820 C.3   259  GLU259      0.1567
    102  C         18.2220   17.7900  -21.2760 C.2   259  GLU259      0.2260
    103  O         18.1920   17.2030  -20.1910 O.2   259  GLU259     -0.2867
    104  CB        15.9590   18.7510  -21.6150 C.3   259  GLU259      0.0388
    105  CG        14.7640   19.0110  -22.4990 C.3   259  GLU259      0.1160
    106  CD        13.8810   20.0890  -21.9110 C.2   259  GLU259      0.3649
    107  OE1       12.8120   20.3730  -22.4870 O.co2 259  GLU259     -0.2457
    108  OE2       14.2780   20.6590  -20.8710 O.co2 259  GLU259     -0.2457
    109  N         18.3740   32.0590  -20.1990 N.3   311  GLU311     -0.1245
    110  CA        17.7220   31.3380  -21.2890 C.3   311  GLU311      0.1567
    111  C         18.1960   31.8380  -22.6420 C.2   311  GLU311      0.2260
    112  O         18.2730   31.0580  -23.5980 O.2   311  GLU311     -0.2867
    113  CB        16.1940   31.4740  -21.2040 C.3   311  GLU311      0.0388
    114  CG        15.5280   30.7980  -20.0150 C.3   311  GLU311      0.1160
    115  CD        15.0750   29.3820  -20.3160 C.2   311  GLU311      0.3649
    116  OE1       15.2960   28.9080  -21.4520 O.co2 311  GLU311     -0.2457
    117  OE2       14.4930   28.7410  -19.4110 O.co2 311  GLU311     -0.2457
    118  N         12.2490   24.1180   -6.8440 N.3   420  ALA420     -0.1231
    119  CA        11.3740   23.7010   -7.9350 C.3   420  ALA420      0.1694
    120  C         11.2620   24.7080   -9.0750 C.2   420  ALA420      0.2592
    121  O         10.5230   24.4330  -10.0270 O.2   420  ALA420     -0.2718
    122  CB         9.9800   23.4130   -7.3780 C.3   420  ALA420      0.0304
    123  N         11.9430   25.8530   -9.0170 N.am  421  VAL421     -0.1966
    124  CA        11.8690   26.8570  -10.0710 C.3   421  VAL421      0.1727
    125  C         13.2740   27.1910  -10.5590 C.2   421  VAL421      0.2616
    126  O         14.2760   26.8590   -9.9240 O.2   421  VAL421     -0.2715
    127  CB        11.1280   28.1320   -9.6150 C.3   421  VAL421      0.0290
    128  CG1        9.6570   27.8260   -9.3750 C.3   421  VAL421      0.0023
    129  CG2       11.7740   28.7050   -8.3640 C.3   421  VAL421      0.0023
    130  N         13.3300   27.8920  -11.6960 N.am  422  SER422     -0.1950
    131  CA        14.5940   28.2400  -12.3310 C.3   422  SER422      0.1924
    132  C         14.9690   29.7060  -12.1840 C.2   422  SER422      0.2314
    133  O         16.0740   30.0850  -12.5870 O.2   422  SER422     -0.2863
    134  CB        14.5410   27.9060  -13.8300 C.3   422  SER422      0.2116
    135  OG        13.7880   28.8750  -14.5410 O.3   422  SER422     -0.2180
    136  N          9.9480   33.4130   -9.8600 N.3   426  PHE426     -0.1241
    137  CA         8.8490   32.4600   -9.9520 C.3   426  PHE426      0.1605
    138  C          8.5770   31.7380   -8.6370 C.2   426  PHE426      0.2264
    139  O          7.7860   30.7910   -8.6160 O.2   426  PHE426     -0.2867
    140  CB         9.1340   31.4370  -11.0550 C.3   426  PHE426      0.0534
    141  CG         9.4620   32.0520  -12.3870 C.ar  426  PHE426     -0.0203
    142  CD1        8.7780   33.1670  -12.8410 C.ar  426  PHE426     -0.0042
    143  CD2       10.4630   31.5190  -13.1800 C.ar  426  PHE426     -0.0042
    144  CE1        9.0830   33.7320  -14.0650 C.ar  426  PHE426     -0.0003
    145  CE2       10.7720   32.0810  -14.4010 C.ar  426  PHE426     -0.0003
    146  CZ        10.0820   33.1890  -14.8450 C.ar  426  PHE426     -0.0000
@<TRIPOS>BOND
     1   112   111    2
     2    23    24    1
     3    27    24    1
     4    27    28    1
     5    16    15    1
     6   111   110    1
     7   105   106    1
     8   105   104    1
     9    24    25    1
    10   107   106   ar
    11    28    29    2
    12    28    30   am
    13   100   101    1
    14    15    12    1
    15     4     3    2
    16   101   104    1
    17   101   102    1
    18   106   108   ar
    19     3     2    1
    20     1     2    1
    21   116   115   ar
    22    11    12    1
    23    74    73   ar
    24    74    72   ar
    25   110   113    1
    26   110   109    1
    27   102   103    2
    28   113   114    1
    29    25    26    2
    30    25    31   am
    31    12    13    1
    32     2     5    1
    33    73    71   ar
    34    72    70   ar
    35   115   114    1
    36   115   117   ar
    37    14    13    2
    38    88    86   ar
    39    88    87   ar
    40    86    84   ar
    41    31    32    1
    42    13    17   am
    43    71    70   ar
    44     5     6    1
    45    70    69    1
    46    87    85   ar
    47    17    18    1
    48    84    83   ar
    49    84    82   ar
    50     6     8   ar
    51     6     7   ar
    52    32    35    1
    53    32    33    1
    54    36    37    1
    55    36    35    1
    56    83    81   ar
    57    39    37   ar
    58     8    10   ar
    59    19    18    1
    60    19    20    2
    61    69    66    1
    62    37    38   ar
    63     7     9   ar
    64    33    34    2
    65    22    21    1
    66    66    65    1
    67    66    67    1
    68    18    21    1
    69    85    82   ar
    70    82    80   ar
    71    10     9   ar
    72    81    80   ar
    73    67    68    2
    74    80    79    1
    75    48    46   am
    76    45    46    1
    77    45    44    1
    78    46    47    2
    79    49    50    1
    80    98    99   ar
    81    98    96   ar
    82    79    76    1
    83    99    97   ar
    84    75    76    1
    85    76    77    1
    86    50    53    1
    87    50    51    1
    88   146   145   ar
    89   146   144   ar
    90    53    54    1
    91    96    94   ar
    92    44    41    1
    93    40    41    1
    94   135   134    1
    95   145   143   ar
    96   144   142   ar
    97    41    42    1
    98    97    95   ar
    99    51    52    2
   100    51    57   am
   101   134   131    1
   102    56    54   am
   103    77    78    2
   104    42    43    2
   105    54    55    2
   106    94    95   ar
   107    94    93    1
   108   143   141   ar
   109    57    58    1
   110   142   141   ar
   111   133   132    2
   112    93    90    1
   113   141   140    1
   114   131   132    1
   115   131   130    1
   116    89    90    1
   117    58    61    1
   118    58    59    1
   119    61    62    1
   120   130   125   am
   121    90    91    1
   122    64    62   ar
   123    62    63   ar
   124   140   137    1
   125    59    60    2
   126   125   124    1
   127   125   126    2
   128    91    92    2
   129   124   127    1
   130   124   123    1
   131   121   120    2
   132   137   136    1
   133   137   138    1
   134   127   128    1
   135   127   129    1
   136   120   123   am
   137   120   119    1
   138   138   139    2
   139   119   122    1
   140   119   118    1
