@<TRIPOS>MOLECULE
tmp/6mpqA00.pdb
 126 123 0 0 0
SMALL
GASTEIGER

@<TRIPOS>ATOM
      1  N         26.2870    3.3840    4.1620 N.3    50  ALA50      -0.1231
      2  CA        27.1080    2.3700    4.8430 C.3    50  ALA50       0.1694
      3  C         26.4890    2.0750    6.1980 C.2    50  ALA50       0.2592
      4  O         25.2520    1.9760    6.2720 O.2    50  ALA50      -0.2718
      5  CB        28.5680    2.7980    4.8960 C.3    50  ALA50       0.0304
      6  N         27.2740    2.0060    7.2580 N.am   51  SER51      -0.1952
      7  CA        26.7410    1.6140    8.5660 C.3    51  SER51       0.1924
      8  C         25.8040    2.6080    9.2540 C.2    51  SER51       0.2314
      9  O         25.2190    2.2630   10.3040 O.2    51  SER51      -0.2863
     10  CB        27.8870    1.3100    9.5320 C.3    51  SER51       0.2116
     11  OG        28.7650    0.2900    9.0340 O.3    51  SER51      -0.2180
     12  N         36.5580   -8.6950   12.1350 N.3    81  TYR81      -0.1241
     13  CA        37.1250   -8.2430   13.4110 C.3    81  TYR81       0.1605
     14  C         36.8070   -9.2790   14.4930 C.2    81  TYR81       0.2264
     15  O         35.6680   -9.7910   14.5500 O.2    81  TYR81      -0.2867
     16  CB        36.5620   -6.8690   13.8140 C.3    81  TYR81       0.0534
     17  CG        36.7320   -5.8560   12.7200 C.ar   81  TYR81      -0.0201
     18  CD1       35.7440   -5.6960   11.7450 C.ar   81  TYR81      -0.0009
     19  CD2       37.9240   -5.0930   12.6000 C.ar   81  TYR81      -0.0009
     20  CE1       35.8910   -4.7780   10.7070 C.ar   81  TYR81       0.0417
     21  CE2       38.0920   -4.1840   11.5500 C.ar   81  TYR81       0.0417
     22  CZ        37.0720   -4.0260   10.6100 C.ar   81  TYR81       0.1957
     23  OH        37.1850   -3.1500    9.5610 O.3    81  TYR81      -0.2866
     24  N         33.6970   -9.0780   16.6810 N.3    84  TRP84      -0.1241
     25  CA        32.4130   -9.5300   16.1240 C.3    84  TRP84       0.1605
     26  C         32.1730  -11.0150   16.3260 C.2    84  TRP84       0.2264
     27  O         31.0980  -11.4800   16.0480 O.2    84  TRP84      -0.2867
     28  CB        32.3310   -9.2270   14.6210 C.3    84  TRP84       0.0550
     29  CG        32.3220   -7.7650   14.2650 C.ar   84  TRP84       0.0003
     30  CD1       32.2450   -6.7010   15.1150 C.ar   84  TRP84       0.0946
     31  CD2       32.3500   -7.2170   12.9350 C.ar   84  TRP84       0.0152
     32  NE1       32.2390   -5.5250   14.3970 N.ar   84  TRP84      -0.2442
     33  CE2       32.2930   -5.8190   13.0590 C.ar   84  TRP84       0.0810
     34  CE3       32.4060   -7.7840   11.6480 C.ar   84  TRP84       0.0012
     35  CZ2       32.3080   -4.9760   11.9630 C.ar   84  TRP84       0.0191
     36  CZ3       32.4090   -6.9410   10.5460 C.ar   84  TRP84       0.0001
     37  CH2       32.3560   -5.5400   10.7180 C.ar   84  TRP84       0.0015
     38  N         29.3910   -1.8760   18.2930 N.3    96  LEU96      -0.1231
     39  CA        30.5080   -2.5060   17.6220 C.3    96  LEU96       0.1693
     40  C         30.4170   -2.3950   16.1360 C.2    96  LEU96       0.2592
     41  O         31.3430   -2.7840   15.4270 O.2    96  LEU96      -0.2718
     42  CB        30.6120   -3.9670   18.0150 C.3    96  LEU96       0.0284
     43  CG        30.9210   -4.1810   19.4900 C.3    96  LEU96       0.0019
     44  CD1       30.7320   -5.6550   19.8190 C.3    96  LEU96       0.0001
     45  CD2       32.3280   -3.7240   19.8510 C.3    96  LEU96       0.0001
     46  N         29.3130   -1.8420   15.6560 N.am   97  SER97      -0.1952
     47  CA        28.9880   -1.7730   14.2410 C.3    97  SER97       0.1924
     48  C         29.2170   -3.1160   13.5100 C.2    97  SER97       0.2314
     49  O         29.7780   -3.1890   12.4190 O.2    97  SER97      -0.2863
     50  CB        29.6860   -0.5730   13.5830 C.3    97  SER97       0.2116
     51  OG        29.1190   -0.3060   12.2840 O.3    97  SER97      -0.2180
     52  N         28.2500   -5.6670   11.2830 N.3    99  VAL99      -0.1245
     53  CA        27.4780   -5.8210   10.0800 C.3    99  VAL99       0.1561
     54  C         26.7570   -7.1650   10.0070 C.2    99  VAL99       0.2260
     55  O         25.6060   -7.2110    9.5410 O.2    99  VAL99      -0.2867
     56  CB        28.3840   -5.7500    8.8190 C.3    99  VAL99       0.0252
     57  CG1       27.5510   -5.8250    7.5340 C.3    99  VAL99       0.0019
     58  CG2       29.2020   -4.4970    8.8320 C.3    99  VAL99       0.0019
     59  N         25.5180   -0.8250    1.6140 N.3   137  LEU137     -0.1245
     60  CA        26.9560   -0.8920    1.6820 C.3   137  LEU137      0.1561
     61  C         27.5640   -0.5870    0.3340 C.2   137  LEU137      0.2260
     62  O         28.5510    0.1340    0.2680 O.2   137  LEU137     -0.2867
     63  CB        27.4230   -2.2720    2.2020 C.3   137  LEU137      0.0270
     64  CG        26.9710   -2.6550    3.6390 C.3   137  LEU137      0.0019
     65  CD1       27.2170   -4.1170    4.0010 C.3   137  LEU137      0.0001
     66  CD2       27.6260   -1.7960    4.7030 C.3   137  LEU137      0.0001
     67  N         25.8120    7.6170   14.8220 N.3   187  LYS187     -0.1231
     68  CA        26.2980    6.4330   14.1910 C.3   187  LYS187      0.1693
     69  C         27.3200    6.7530   13.0980 C.2   187  LYS187      0.2593
     70  O         27.0510    7.5990   12.2240 O.2   187  LYS187     -0.2718
     71  CB        25.1470    5.6620   13.5840 C.3   187  LYS187      0.0285
     72  CG        25.5750    4.3170   13.0120 C.3   187  LYS187      0.0035
     73  CD        26.1200    3.3890   14.0950 C.3   187  LYS187      0.0206
     74  CE        26.7100    2.1250   13.4850 C.3   187  LYS187      0.1093
     75  NZ        28.0960    2.3610   13.0140 N.3   187  LYS187     -0.1314
     76  N         28.4460    6.0250   13.1120 N.am  188  SER188     -0.1938
     77  CA        29.4640    6.1680   12.0840 C.3   188  SER188      0.2055
     78  C         29.1520    5.2900   10.8770 C.2   188  SER188      0.2644
     79  O         28.3470    4.3510   10.9280 O.2   188  SER188     -0.2714
     80  CB        30.8360    5.8220   12.6290 C.3   188  SER188      0.2130
     81  OG        30.8450    4.4860   13.1060 O.3   188  SER188     -0.2179
     82  N         29.8350    5.5770    9.7850 N.am  189  GLY189     -0.1939
     83  CA        29.6240    4.8390    8.5480 C.3   189  GLY189      0.2014
     84  C         30.8940    4.9210    7.7390 C.2   189  GLY189      0.2639
     85  O         31.5910    5.9430    7.7850 O.2   189  GLY189     -0.2714
     86  N         31.2390    3.8330    7.0570 N.am  190  TRP190     -0.1959
     87  CA        32.4740    3.7830    6.2580 C.3   190  TRP190      0.1771
     88  C         32.2020    2.9170    5.0540 C.2   190  TRP190      0.2620
     89  O         32.1540    1.6860    5.1660 O.2   190  TRP190     -0.2715
     90  CB        33.6230    3.2240    7.0840 C.3   190  TRP190      0.0590
     91  CG        35.0200    3.3080    6.4760 C.ar  190  TRP190      0.0006
     92  CD1       35.3590    3.4280    5.1400 C.ar  190  TRP190      0.0946
     93  CD2       36.2590    3.2250    7.1920 C.ar  190  TRP190      0.0152
     94  NE1       36.7180    3.4460    5.0160 N.ar  190  TRP190     -0.2442
     95  CE2       37.2910    3.3090    6.2540 C.ar  190  TRP190      0.0810
     96  CE3       36.5890    3.0790    8.5440 C.ar  190  TRP190      0.0012
     97  CZ2       38.6360    3.2600    6.6180 C.ar  190  TRP190      0.0191
     98  CZ3       37.9370    3.0410    8.9130 C.ar  190  TRP190      0.0001
     99  CH2       38.9370    3.1320    7.9560 C.ar  190  TRP190      0.0015
    100  N         32.0000    3.5540    3.9000 N.am  191  GLY191     -0.1940
    101  CA        31.7570    2.8450    2.6650 C.3   191  GLY191      0.2014
    102  C         33.0580    2.3450    2.0560 C.2   191  GLY191      0.2639
    103  O         33.7050    3.0710    1.3210 O.2   191  GLY191     -0.2714
    104  N         33.4320    1.1080    2.3600 N.am  192  MET192     -0.1963
    105  CA        34.6630    0.4870    1.8380 C.3   192  MET192      0.1736
    106  C         34.4860   -0.1870    0.4950 C.2   192  MET192      0.2617
    107  O         35.4380   -0.3500   -0.2320 O.2   192  MET192     -0.2715
    108  CB        35.2140   -0.5470    2.8210 C.3   192  MET192      0.0427
    109  CG        36.1890    0.0440    3.7990 C.3   192  MET192      0.0599
    110  SD        37.1830   -1.2400    4.5650 S.3   192  MET192     -0.1393
    111  CE        37.8090   -0.3760    6.0190 C.3   192  MET192      0.0692
    112  N         33.2790   -0.5950    0.1550 N.am  193  GLY193     -0.1955
    113  CA        33.0470   -1.2740   -1.1200 C.3   193  GLY193      0.1869
    114  C         32.6900   -0.3520   -2.2620 C.2   193  GLY193      0.2309
    115  O         32.0730   -0.7960   -3.2430 O.2   193  GLY193     -0.2863
    116  N         36.9210   10.6270   12.0970 N.3   230  ARG230     -0.1245
    117  CA        35.5430   11.0890   11.9230 C.3   230  ARG230      0.1563
    118  C         34.9980   11.6860   13.2210 C.2   230  ARG230      0.2260
    119  O         34.4200   12.7710   13.2290 O.2   230  ARG230     -0.2867
    120  CB        34.6350    9.9480   11.4430 C.3   230  ARG230      0.0307
    121  CG        35.0190    9.3860   10.0760 C.3   230  ARG230      0.0489
    122  CD        34.3170    8.0860    9.7590 C.3   230  ARG230      0.2205
    123  NE        34.6530    7.0620   10.7440 N.pl3 230  ARG230     -0.0865
    124  CZ        34.1450    5.8260   10.7970 C.cat 230  ARG230      0.5346
    125  NH1       34.5470    5.0080   11.7480 N.pl3 230  ARG230      0.1354
    126  NH2       33.2670    5.3980    9.9140 N.pl3 230  ARG230      0.1354
@<TRIPOS>BOND
     1   115   114    2
     2   114   113    1
     3   113   112    1
     4   107   106    2
     5   112   106   am
     6    62    61    2
     7    61    60    1
     8   106   105    1
     9   103   102    2
    10    59    60    1
    11    60    63    1
    12   105   104    1
    13   105   108    1
    14   102   104   am
    15   102   101    1
    16    63    64    1
    17   101   100    1
    18   108   109    1
    19    64    65    1
    20    64    66    1
    21   109   110    1
    22   100    88   am
    23     1     2    1
    24   110   111    1
    25     2     5    1
    26     2     3    1
    27    94    92   ar
    28    94    95   ar
    29    88    89    2
    30    88    87    1
    31    92    91   ar
    32     3     4    2
    33     3     6   am
    34    95    97   ar
    35    95    93   ar
    36    87    86    1
    37    87    90    1
    38    91    90    1
    39    91    93   ar
    40    97    99   ar
    41    86    84   am
    42    93    96   ar
    43     6     7    1
    44    57    56    1
    45    84    85    2
    46    84    83    1
    47    99    98   ar
    48    96    98   ar
    49    83    82    1
    50     7     8    1
    51     7    10    1
    52    56    58    1
    53    56    53    1
    54    11    10    1
    55     8     9    2
    56    55    54    2
    57    23    22    1
    58   122   121    1
    59   122   123    1
    60    82    78   am
    61   126   124    1
    62    54    53    1
    63   121   120    1
    64    53    52    1
    65    36    37   ar
    66    36    34   ar
    67    22    20   ar
    68    22    21   ar
    69    20    18   ar
    70    37    35   ar
    71   123   124    2
    72   124   125    1
    73    78    79    2
    74    78    77    1
    75   120   117    1
    76    21    19   ar
    77    34    31   ar
    78    18    17   ar
    79   117   116    1
    80   117   118    1
    81    35    33   ar
    82    77    80    1
    83    77    76    1
    84    12    13    1
    85    70    69    2
    86    51    50    1
    87    49    48    2
    88    19    17   ar
    89    80    81    1
    90    17    16    1
    91    31    33   ar
    92    31    29   ar
    93    72    71    1
    94    72    73    1
    95    75    74    1
    96    33    32   ar
    97    69    76   am
    98    69    68    1
    99   118   119    2
   100    13    16    1
   101    13    14    1
   102    74    73    1
   103    48    47    1
   104    50    47    1
   105    71    68    1
   106    68    67    1
   107    47    46    1
   108    29    28    1
   109    29    30   ar
   110    32    30   ar
   111    14    15    2
   112    28    25    1
   113    41    40    2
   114    46    40   am
   115    27    26    2
   116    25    26    1
   117    25    24    1
   118    40    39    1
   119    39    42    1
   120    39    38    1
   121    42    43    1
   122    43    44    1
   123    43    45    1
