@<TRIPOS>MOLECULE
tmp/6mr5A00.pdb
 153 150 0 0 0
SMALL
GASTEIGER

@<TRIPOS>ATOM
      1  N        164.0340   -8.0910   10.3240 N.3    19  ASP19      -0.1239
      2  CA       163.9250   -6.8370   11.0640 C.3    19  ASP19       0.1674
      3  C        164.9740   -5.8970   10.4770 C.2    19  ASP19       0.2266
      4  O        166.1190   -5.8600   10.9300 O.2    19  ASP19      -0.2867
      5  CB       164.1290   -7.0630   12.5680 C.3    19  ASP19       0.1410
      6  CG       164.0350   -5.7790   13.3810 C.2    19  ASP19       0.3668
      7  OD1      163.6940   -4.7240   12.8130 O.co2  19  ASP19      -0.2456
      8  OD2      164.3090   -5.8260   14.5990 O.co2  19  ASP19      -0.2456
      9  N        165.1810   -2.8600   10.8460 N.3    21  HIS21      -0.1226
     10  CA       165.4830   -1.8090   11.8080 C.3    21  HIS21       0.1752
     11  C        166.3190   -2.3120   12.9790 C.2    21  HIS21       0.2596
     12  O        166.4220   -1.6200   13.9970 O.2    21  HIS21      -0.2718
     13  CB       164.1880   -1.1770   12.3230 C.3    21  HIS21       0.0759
     14  CG       163.4540   -0.3800   11.2910 C.ar   21  HIS21       0.0818
     15  ND1      163.0690    0.9280   11.4970 N.ar   21  HIS21      -0.2268
     16  CD2      163.0370   -0.7020   10.0430 C.ar   21  HIS21       0.1154
     17  CE1      162.4450    1.3760   10.4220 C.ar   21  HIS21       0.1986
     18  NE2      162.4120    0.4060    9.5250 N.ar   21  HIS21      -0.2212
     19  N        166.9030   -3.4980   12.8610 N.am   22  HIS22      -0.1962
     20  CA       167.7830   -4.0070   13.9020 C.3    22  HIS22       0.1772
     21  C        168.9650   -3.0560   14.0750 C.2    22  HIS22       0.2462
     22  O        169.5750   -2.6480   13.0760 O.2    22  HIS22      -0.2730
     23  CB       168.2670   -5.4070   13.5330 C.3    22  HIS22       0.0785
     24  CG       169.0590   -6.0790   14.6080 C.ar   22  HIS22       0.0821
     25  ND1      170.3530   -5.7150   14.9140 N.ar   22  HIS22      -0.2267
     26  CD2      168.7480   -7.1010   15.4390 C.ar   22  HIS22       0.1154
     27  CE1      170.8020   -6.4810   15.8920 C.ar   22  HIS22       0.1986
     28  NE2      169.8480   -7.3300   16.2290 N.ar   22  HIS22      -0.2212
     29  N        169.3190   -2.6830   15.3080 N.am   23  PRO23      -0.2727
     30  CA       170.2750   -1.5770   15.4960 C.3    23  PRO23       0.1402
     31  C        171.6490   -1.8230   14.8950 C.2    23  PRO23       0.2269
     32  O        172.3680   -0.8530   14.6300 O.2    23  PRO23      -0.2865
     33  CB       170.3500   -1.4360   17.0240 C.3    23  PRO23       0.0296
     34  CG       169.9040   -2.7640   17.5550 C.3    23  PRO23       0.0237
     35  CD       168.8580   -3.2400   16.5900 C.3    23  PRO23       0.0939
     36  N        170.2540  -13.6530   20.4850 N.3    90  SER90      -0.1217
     37  CA       170.3120  -12.3820   19.7600 C.3    90  SER90       0.1889
     38  C        171.3110  -12.4560   18.5990 C.2    90  SER90       0.2288
     39  O        172.4050  -11.8880   18.6350 O.2    90  SER90      -0.2866
     40  CB       170.6570  -11.2310   20.7110 C.3    90  SER90       0.2089
     41  OG       169.7530  -11.1750   21.8010 O.3    90  SER90      -0.2183
     42  N        180.3340   -7.2170   15.0360 N.3   130  PRO130     -0.2116
     43  CA       181.2300   -7.2300   16.2030 C.3   130  PRO130      0.1372
     44  C        181.6050   -8.6410   16.6270 C.2   130  PRO130      0.2244
     45  O        181.1590   -9.6130   16.0120 O.2   130  PRO130     -0.2868
     46  CB       180.4080   -6.5110   17.2800 C.3   130  PRO130      0.0268
     47  CG       178.9930   -6.7390   16.8800 C.3   130  PRO130      0.0207
     48  CD       178.9910   -6.7140   15.3780 C.3   130  PRO130      0.0892
     49  N        182.9820   -9.5590   20.3880 N.3   132  HIS132     -0.1226
     50  CA       183.4160   -9.8820   21.7450 C.3   132  HIS132      0.1752
     51  C        182.4330  -10.7590   22.5200 C.2   132  HIS132      0.2596
     52  O        182.7970  -11.2610   23.5890 O.2   132  HIS132     -0.2718
     53  CB       183.7230   -8.6010   22.5370 C.3   132  HIS132      0.0759
     54  CG       182.5310   -7.7410   22.8260 C.ar  132  HIS132      0.0818
     55  ND1      182.4610   -6.9320   23.9410 N.ar  132  HIS132     -0.2268
     56  CD2      181.3780   -7.5420   22.1440 C.ar  132  HIS132      0.1154
     57  CE1      181.3110   -6.2830   23.9400 C.ar  132  HIS132      0.1986
     58  NE2      180.6350   -6.6340   22.8600 N.ar  132  HIS132     -0.2212
     59  N        181.2180  -10.9770   22.0160 N.am  133  HIS133     -0.1975
     60  CA       180.3130  -11.9370   22.6390 C.3   133  HIS133      0.1656
     61  C        180.4900  -13.3520   22.1100 C.2   133  HIS133      0.2291
     62  O        179.9310  -14.2860   22.6940 O.2   133  HIS133     -0.2864
     63  CB       178.8540  -11.5220   22.4340 C.3   133  HIS133      0.0771
     64  CG       178.4760  -10.2600   23.1390 C.ar  133  HIS133      0.0820
     65  ND1      178.8210  -10.0060   24.4490 N.ar  133  HIS133     -0.2267
     66  CD2      177.7710   -9.1850   22.7190 C.ar  133  HIS133      0.1154
     67  CE1      178.3480   -8.8250   24.8030 C.ar  133  HIS133      0.1986
     68  NE2      177.7080   -8.3050   23.7710 N.ar  133  HIS133     -0.2212
     69  N        174.9090  -12.2980   20.7760 N.3   141  GLY141     -0.1210
     70  CA       174.8910  -10.8490   20.8420 C.3   141  GLY141      0.1956
     71  C        175.4610  -10.1200   19.6430 C.2   141  GLY141      0.2611
     72  O        176.3150   -9.2400   19.7970 O.2   141  GLY141     -0.2717
     73  N        174.9990  -10.4830   18.4470 N.am  142  PHE142     -0.1976
     74  CA       175.3520   -9.9160   17.1440 C.3   142  PHE142      0.1639
     75  C        176.7420  -10.3590   16.6930 C.2   142  PHE142      0.2290
     76  O        177.2050   -9.8940   15.6430 O.2   142  PHE142     -0.2864
     77  CB       175.3060   -8.3770   17.0960 C.3   142  PHE142      0.0560
     78  CG       174.1050   -7.7630   17.7720 C.ar  142  PHE142     -0.0200
     79  CD1      172.9350   -8.4830   17.9720 C.ar  142  PHE142     -0.0042
     80  CD2      174.1470   -6.4450   18.1990 C.ar  142  PHE142     -0.0042
     81  CE1      171.8460   -7.9060   18.5980 C.ar  142  PHE142     -0.0003
     82  CE2      173.0620   -5.8590   18.8170 C.ar  142  PHE142     -0.0003
     83  CZ       171.9060   -6.5910   19.0170 C.ar  142  PHE142     -0.0000
     84  N        183.5380   -1.3090   25.2050 N.3   171  ASP171     -0.1239
     85  CA       182.1470   -1.5010   24.8240 C.3   171  ASP171      0.1674
     86  C        181.2760   -1.5490   26.0760 C.2   171  ASP171      0.2266
     87  O        181.7060   -2.0170   27.1340 O.2   171  ASP171     -0.2867
     88  CB       182.0290   -2.7970   24.0160 C.3   171  ASP171      0.1410
     89  CG       180.6590   -3.0020   23.4270 C.2   171  ASP171      0.3668
     90  OD1      179.7420   -3.3990   24.1760 O.co2 171  ASP171     -0.2456
     91  OD2      180.5090   -2.7630   22.2120 O.co2 171  ASP171     -0.2456
     92  N        178.8700   -3.3620   26.8260 N.3   173  HIS173     -0.1241
     93  CA       178.5340   -4.7220   27.2160 C.3   173  HIS173      0.1621
     94  C        179.7980   -5.5050   27.5400 C.2   173  HIS173      0.2264
     95  O        180.8620   -5.2690   26.9640 O.2   173  HIS173     -0.2867
     96  CB       177.7590   -5.4380   26.1060 C.3   173  HIS173      0.0745
     97  CG       176.5280   -4.7120   25.6630 C.ar  173  HIS173      0.0817
     98  ND1      176.5130   -3.8710   24.5720 N.ar  173  HIS173     -0.2268
     99  CD2      175.2710   -4.6990   26.1640 C.ar  173  HIS173      0.1154
    100  CE1      175.3010   -3.3690   24.4200 C.ar  173  HIS173      0.1986
    101  NE2      174.5280   -3.8550   25.3750 N.ar  173  HIS173     -0.2212
    102  N        172.6130   -7.1640   29.3540 N.3   202  PHE202     -0.1241
    103  CA       173.1570   -8.1550   28.4380 C.3   202  PHE202      0.1605
    104  C        174.6730   -8.2420   28.5980 C.2   202  PHE202      0.2264
    105  O        175.3430   -7.2060   28.6960 O.2   202  PHE202     -0.2867
    106  CB       172.7940   -7.7920   26.9930 C.3   202  PHE202      0.0534
    107  CG       173.1110   -8.8740   26.0010 C.ar  202  PHE202     -0.0203
    108  CD1      174.3810   -8.9860   25.4570 C.ar  202  PHE202     -0.0042
    109  CD2      172.1380   -9.7850   25.6180 C.ar  202  PHE202     -0.0042
    110  CE1      174.6770   -9.9870   24.5490 C.ar  202  PHE202     -0.0003
    111  CE2      172.4260  -10.7870   24.7110 C.ar  202  PHE202     -0.0003
    112  CZ       173.6950  -10.8880   24.1750 C.ar  202  PHE202     -0.0000
    113  N        178.8980    2.0150   22.3060 N.3   264  ASP264     -0.1239
    114  CA       177.5390    2.0180   22.8270 C.3   264  ASP264      0.1674
    115  C        177.4570    2.5270   24.2620 C.2   264  ASP264      0.2266
    116  O        176.3550    2.6200   24.8080 O.2   264  ASP264     -0.2867
    117  CB       176.9100    0.6160   22.7160 C.3   264  ASP264      0.1410
    118  CG       177.8940   -0.5040   23.0040 C.2   264  ASP264      0.3668
    119  OD1      179.0500   -0.2050   23.3640 O.co2 264  ASP264     -0.2456
    120  OD2      177.5020   -1.6880   22.8690 O.co2 264  ASP264     -0.2456
    121  N        171.0470    1.8620   23.0430 N.3   271  LEU271     -0.1245
    122  CA       171.1550    0.6260   23.8110 C.3   271  LEU271      0.1561
    123  C        171.8970    0.7960   25.1290 C.2   271  LEU271      0.2260
    124  O        171.5170    0.1800   26.1290 O.2   271  LEU271     -0.2867
    125  CB       171.8500   -0.4610   22.9830 C.3   271  LEU271      0.0270
    126  CG       170.9510   -1.3920   22.1670 C.3   271  LEU271      0.0019
    127  CD1      170.4110   -0.6880   20.9300 C.3   271  LEU271      0.0001
    128  CD2      171.6930   -2.6700   21.7940 C.3   271  LEU271      0.0001
    129  N        183.5270   -2.4190   17.8840 N.3   301  GLU301     -0.1231
    130  CA       182.5960   -3.4330   18.3610 C.3   301  GLU301      0.1699
    131  C        181.1790   -2.9030   18.2040 C.2   301  GLU301      0.2592
    132  O        180.6920   -2.7560   17.0770 O.2   301  GLU301     -0.2718
    133  CB       182.8860   -3.8100   19.8180 C.3   301  GLU301      0.0402
    134  CG       184.2350   -4.4850   20.0420 C.3   301  GLU301      0.1161
    135  CD       184.1950   -5.9910   19.8320 C.2   301  GLU301      0.3649
    136  OE1      185.2550   -6.6440   19.9700 O.co2 301  GLU301     -0.2457
    137  OE2      183.1050   -6.5260   19.5430 O.co2 301  GLU301     -0.2457
    138  N        180.5230   -2.5850   19.3200 N.am  302  GLY302     -0.1957
    139  CA       179.1800   -2.0450   19.3010 C.3   302  GLY302      0.1869
    140  C        179.1550   -0.5360   19.1360 C.2   302  GLY302      0.2309
    141  O        180.1550    0.1100   18.8170 O.2   302  GLY302     -0.2863
    142  N        175.6020    2.3150   18.3840 N.3   304  TYR304     -0.1241
    143  CA       174.4450    2.2710   17.5020 C.3   304  TYR304      0.1605
    144  C        173.8030    3.6240   17.2300 C.2   304  TYR304      0.2264
    145  O        172.8350    3.6830   16.4640 O.2   304  TYR304     -0.2867
    146  CB       173.4070    1.2920   18.0690 C.3   304  TYR304      0.0534
    147  CG       174.0420   -0.0470   18.3420 C.ar  304  TYR304     -0.0201
    148  CD1      174.2820   -0.9420   17.3090 C.ar  304  TYR304     -0.0009
    149  CD2      174.4650   -0.3910   19.6210 C.ar  304  TYR304     -0.0009
    150  CE1      174.8900   -2.1580   17.5430 C.ar  304  TYR304      0.0417
    151  CE2      175.0740   -1.6030   19.8650 C.ar  304  TYR304      0.0417
    152  CZ       175.2850   -2.4830   18.8240 C.ar  304  TYR304      0.1957
    153  OH       175.8930   -3.6920   19.0610 O.3   304  TYR304     -0.2866
@<TRIPOS>BOND
     1    18    16   ar
     2    18    17   ar
     3    16    14   ar
     4     1     2    1
     5    17    15   ar
     6     3     4    2
     7     3     2    1
     8     9    10    1
     9     2     5    1
    10    14    15   ar
    11    14    13    1
    12    10    13    1
    13    10    11    1
    14     5     6    1
    15     7     6   ar
    16    19    11   am
    17    19    20    1
    18    11    12    2
    19    22    21    2
    20     6     8   ar
    21    23    20    1
    22    23    24    1
    23    20    21    1
    24    21    29   am
    25    24    25   ar
    26    24    26   ar
    27    32    31    2
    28    31    30    1
    29    25    27   ar
    30    42    48    1
    31    42    43    1
    32    29    30    1
    33    29    35    1
    34    48    47    1
    35    26    28   ar
    36    30    33    1
    37    76    75    2
    38    27    28   ar
    39    45    44    2
    40    43    44    1
    41    43    46    1
    42   145   144    2
    43    35    34    1
    44    75    74    1
    45    47    46    1
    46    33    34    1
    47   132   131    2
    48    77    74    1
    49    77    78    1
    50    74    73    1
    51   144   143    1
    52   148   150   ar
    53   148   147   ar
    54   143   146    1
    55   143   142    1
    56   150   152   ar
    57    78    79   ar
    58    78    80   ar
    59   129   130    1
    60    79    81   ar
    61   146   147    1
    62    80    82   ar
    63   131   130    1
    64   131   138   am
    65   147   149   ar
    66   130   133    1
    67    73    71   am
    68    81    83   ar
    69    38    39    2
    70    38    37    1
    71   141   140    2
    72    82    83   ar
    73   152   153    1
    74   152   151   ar
    75   140   139    1
    76   139   138    1
    77   137   135   ar
    78   149   151   ar
    79    71    72    2
    80    71    70    1
    81    37    36    1
    82    37    40    1
    83   133   134    1
    84   135   136   ar
    85   135   134    1
    86    49    50    1
    87    40    41    1
    88    69    70    1
    89   127   126    1
    90    50    51    1
    91    50    53    1
    92   128   126    1
    93    59    51   am
    94    59    60    1
    95    61    60    1
    96    61    62    2
    97    56    54   ar
    98    56    58   ar
    99   126   125    1
   100    91    89   ar
   101   113   114    1
   102    63    60    1
   103    63    64    1
   104    51    52    2
   105    53    54    1
   106   117   114    1
   107   117   118    1
   108    66    64   ar
   109    66    68   ar
   110    54    55   ar
   111   114   115    1
   112    58    57   ar
   113   120   118   ar
   114   125   122    1
   115   118   119   ar
   116   121   122    1
   117    64    65   ar
   118    89    88    1
   119    89    90   ar
   120    68    67   ar
   121   122   123    1
   122    57    55   ar
   123    88    85    1
   124   112   110   ar
   125   112   111   ar
   126   115   116    2
   127   100    98   ar
   128   100   101   ar
   129    65    67   ar
   130   110   108   ar
   131    98    97   ar
   132   111   109   ar
   133    85    84    1
   134    85    86    1
   135   123   124    2
   136   101    99   ar
   137   108   107   ar
   138   109   107   ar
   139    97    96    1
   140    97    99   ar
   141   107   106    1
   142    86    87    2
   143    96    93    1
   144    92    93    1
   145    95    94    2
   146   106   103    1
   147    93    94    1
   148   103   104    1
   149   103   102    1
   150   104   105    2
