@<TRIPOS>MOLECULE
tmp/6mr5A01.pdb
 130 129 0 0 0
SMALL
GASTEIGER

@<TRIPOS>ATOM
      1  N        181.6790  -16.9180   21.6460 N.3   135  GLU135     -0.1245
      2  CA       182.3680  -17.9130   22.4480 C.3   135  GLU135      0.1567
      3  C        183.1240  -18.8860   21.5470 C.2   135  GLU135      0.2260
      4  O        183.0010  -18.8620   20.3210 O.2   135  GLU135     -0.2867
      5  CB       181.3700  -18.6650   23.3280 C.3   135  GLU135      0.0388
      6  CG       180.5230  -17.7690   24.2180 C.3   135  GLU135      0.1160
      7  CD       181.1950  -17.4640   25.5410 C.2   135  GLU135      0.3649
      8  OE1      182.3660  -17.8580   25.7190 O.co2 135  GLU135     -0.2457
      9  OE2      180.5490  -16.8380   26.4070 O.co2 135  GLU135     -0.2457
     10  N        179.6650   -6.4560   28.4610 N.3   174  HIS174     -0.1241
     11  CA       180.7900   -7.2980   28.8430 C.3   174  HIS174      0.1621
     12  C        181.1630   -8.2380   27.7030 C.2   174  HIS174      0.2264
     13  O        180.2920   -8.8610   27.0880 O.2   174  HIS174     -0.2867
     14  CB       180.4390   -8.0980   30.0980 C.3   174  HIS174      0.0745
     15  CG       181.5320   -9.0050   30.5730 C.ar  174  HIS174      0.0817
     16  ND1      181.4430  -10.3770   30.4980 N.ar  174  HIS174     -0.2268
     17  CD2      182.7260   -8.7380   31.1530 C.ar  174  HIS174      0.1154
     18  CE1      182.5370  -10.9180   31.0040 C.ar  174  HIS174      0.1986
     19  NE2      183.3340   -9.9450   31.4060 N.ar  174  HIS174     -0.2212
     20  N        181.8830  -11.3450   27.0950 N.3   176  ASN176     -0.1240
     21  CA       181.8400  -12.6700   27.7060 C.3   176  ASN176      0.1653
     22  C        182.7130  -13.6660   26.9570 C.2   176  ASN176      0.2266
     23  O        183.4040  -14.4850   27.5760 O.2   176  ASN176     -0.2867
     24  CB       180.3970  -13.1650   27.7570 C.3   176  ASN176      0.1155
     25  CG       179.6850  -13.0330   26.4240 C.2   176  ASN176      0.2627
     26  OD1      179.2720  -11.9410   26.0330 O.2   176  ASN176     -0.2716
     27  ND2      179.5290  -14.1500   25.7240 N.am  176  ASN176     -0.0877
     28  N        186.1220  -15.7050   28.5370 N.3   180  HIS180     -0.1241
     29  CA       186.1870  -17.1600   28.6470 C.3   180  HIS180      0.1621
     30  C        187.3410  -17.7380   27.8360 C.2   180  HIS180      0.2264
     31  O        187.9860  -18.6990   28.2690 O.2   180  HIS180     -0.2867
     32  CB       184.8570  -17.7730   28.2100 C.3   180  HIS180      0.0745
     33  CG       183.7190  -17.4550   29.1300 C.ar  180  HIS180      0.0817
     34  ND1      182.4290  -17.2630   28.6820 N.ar  180  HIS180     -0.2268
     35  CD2      183.6780  -17.2960   30.4750 C.ar  180  HIS180      0.1154
     36  CE1      181.6430  -16.9980   29.7110 C.ar  180  HIS180      0.1986
     37  NE2      182.3760  -17.0130   30.8110 N.ar  180  HIS180     -0.2212
     38  N        181.9520   -2.3000   31.8430 N.3   194  HIS194     -0.1226
     39  CA       180.6560   -2.6700   31.2900 C.3   194  HIS194      0.1752
     40  C        179.5340   -2.3370   32.2610 C.2   194  HIS194      0.2596
     41  O        179.6750   -2.5140   33.4730 O.2   194  HIS194     -0.2718
     42  CB       180.6190   -4.1600   30.9390 C.3   194  HIS194      0.0759
     43  CG       181.2090   -5.0410   31.9940 C.ar  194  HIS194      0.0818
     44  ND1      182.5600   -5.3080   32.0700 N.ar  194  HIS194     -0.2268
     45  CD2      180.6340   -5.7150   33.0180 C.ar  194  HIS194      0.1154
     46  CE1      182.7910   -6.1100   33.0940 C.ar  194  HIS194      0.1986
     47  NE2      181.6400   -6.3720   33.6870 N.ar  194  HIS194     -0.2212
     48  N        178.4220   -1.8590   31.7100 N.am  195  ARG195     -0.1966
     49  CA       177.2000   -1.7360   32.4890 C.3   195  ARG195      0.1729
     50  C        176.7440   -3.1200   32.9300 C.2   195  ARG195      0.2616
     51  O        176.6140   -4.0380   32.1130 O.2   195  ARG195     -0.2715
     52  CB       176.1170   -1.0410   31.6650 C.3   195  ARG195      0.0348
     53  CG       174.8500   -0.7360   32.4400 C.3   195  ARG195      0.0492
     54  CD       173.8350    0.0180   31.5940 C.3   195  ARG195      0.2205
     55  NE       172.5260    0.0480   32.2400 N.pl3 195  ARG195     -0.0865
     56  CZ       171.4340    0.5810   31.7020 C.cat 195  ARG195      0.5346
     57  NH1      171.4850    1.1350   30.5000 N.pl3 195  ARG195      0.1354
     58  NH2      170.2870    0.5570   32.3670 N.pl3 195  ARG195      0.1354
     59  N        176.5120   -3.2750   34.2300 N.am  196  TYR196     -0.1974
     60  CA       176.2720   -4.5840   34.8230 C.3   196  TYR196      0.1639
     61  C        174.9000   -4.7000   35.4660 C.2   196  TYR196      0.2290
     62  O        174.2040   -5.6990   35.2470 O.2   196  TYR196     -0.2864
     63  CB       177.3700   -4.8800   35.8540 C.3   196  TYR196      0.0560
     64  CG       177.2820   -6.2390   36.5080 C.ar  196  TYR196     -0.0198
     65  CD1      177.3310   -7.4030   35.7550 C.ar  196  TYR196     -0.0009
     66  CD2      177.1770   -6.3570   37.8890 C.ar  196  TYR196     -0.0009
     67  CE1      177.2570   -8.6460   36.3550 C.ar  196  TYR196      0.0417
     68  CE2      177.1060   -7.5970   38.4980 C.ar  196  TYR196      0.0417
     69  CZ       177.1440   -8.7350   37.7300 C.ar  196  TYR196      0.1957
     70  OH       177.0710   -9.9670   38.3390 O.3   196  TYR196     -0.2866
     71  N        173.9630   -7.9490   37.2240 N.3   199  GLY199     -0.1225
     72  CA       173.6220   -9.0540   36.3560 C.3   199  GLY199      0.1811
     73  C        172.3740   -8.8560   35.5240 C.2   199  GLY199      0.2280
     74  O        171.9870   -9.7760   34.7920 O.2   199  GLY199     -0.2866
     75  N        171.7490   -6.9420   32.7550 N.3   201  PHE201     -0.1227
     76  CA       172.1130   -6.2410   31.5330 C.3   201  PHE201      0.1736
     77  C        172.8640   -7.2270   30.6580 C.2   201  PHE201      0.2595
     78  O        173.6400   -8.0380   31.1690 O.2   201  PHE201     -0.2718
     79  CB       172.9730   -5.0010   31.8160 C.3   201  PHE201      0.0547
     80  CG       172.9700   -3.9920   30.6990 C.ar  201  PHE201     -0.0202
     81  CD1      171.8990   -3.1280   30.5330 C.ar  201  PHE201     -0.0042
     82  CD2      174.0380   -3.9030   29.8180 C.ar  201  PHE201     -0.0042
     83  CE1      171.8880   -2.1960   29.5100 C.ar  201  PHE201     -0.0003
     84  CE2      174.0350   -2.9700   28.7910 C.ar  201  PHE201     -0.0003
     85  CZ       172.9580   -2.1160   28.6380 C.ar  201  PHE201     -0.0000
     86  N        172.6130   -7.1640   29.3540 N.am  202  PHE202     -0.1963
     87  CA       173.1570   -8.1550   28.4380 C.3   202  PHE202      0.1756
     88  C        174.6730   -8.2420   28.5980 C.2   202  PHE202      0.2461
     89  O        175.3430   -7.2060   28.6960 O.2   202  PHE202     -0.2730
     90  CB       172.7940   -7.7920   26.9930 C.3   202  PHE202      0.0574
     91  CG       173.1110   -8.8740   26.0010 C.ar  202  PHE202     -0.0200
     92  CD1      174.3810   -8.9860   25.4570 C.ar  202  PHE202     -0.0042
     93  CD2      172.1380   -9.7850   25.6180 C.ar  202  PHE202     -0.0042
     94  CE1      174.6770   -9.9870   24.5490 C.ar  202  PHE202     -0.0003
     95  CE2      172.4260  -10.7870   24.7110 C.ar  202  PHE202     -0.0003
     96  CZ       173.6950  -10.8880   24.1750 C.ar  202  PHE202     -0.0000
     97  N        175.2560   -9.4520   28.6030 N.am  203  PRO203     -0.2716
     98  CA       174.5830  -10.7510   28.4370 C.3   203  PRO203      0.1536
     99  C        174.0210  -11.4310   29.7010 C.2   203  PRO203      0.2599
    100  O        173.9260  -12.6590   29.7080 O.2   203  PRO203     -0.2715
    101  CB       175.6850  -11.6260   27.8260 C.3   203  PRO203      0.0310
    102  CG       176.9520  -11.0200   28.2920 C.3   203  PRO203      0.0237
    103  CD       176.7080   -9.5470   28.3620 C.3   203  PRO203      0.0939
    104  N        173.6720  -10.6570   30.7290 N.am  204  ASN204     -0.1959
    105  CA       172.8760  -11.1230   31.8720 C.3   204  ASN204      0.1819
    106  C        173.4770  -12.3590   32.5440 C.2   204  ASN204      0.2622
    107  O        172.8370  -13.4040   32.6730 O.2   204  ASN204     -0.2715
    108  CB       171.4320  -11.4010   31.4430 C.3   204  ASN204      0.1195
    109  CG       170.7720  -10.2000   30.8050 C.2   204  ASN204      0.2630
    110  OD1      170.3180   -9.2860   31.4930 O.2   204  ASN204     -0.2716
    111  ND2      170.7080  -10.1980   29.4790 N.am  204  ASN204     -0.0877
    112  N        174.7180  -12.2210   32.9990 N.am  205  SER205     -0.1950
    113  CA       175.3810  -13.2880   33.7330 C.3   205  SER205      0.1924
    114  C        176.2940  -12.6800   34.7880 C.2   205  SER205      0.2314
    115  O        176.7110  -11.5230   34.6940 O.2   205  SER205     -0.2863
    116  CB       176.1700  -14.2120   32.7960 C.3   205  SER205      0.2116
    117  OG       177.0780  -15.0360   33.5060 O.3   205  SER205     -0.2180
    118  N        179.2410  -13.7380   35.3690 N.3   207  ASP207     -0.1225
    119  CA       180.6220  -13.8210   34.9090 C.3   207  ASP207      0.1805
    120  C        181.2620  -12.4490   34.7600 C.2   207  ASP207      0.2597
    121  O        182.4930  -12.3450   34.7800 O.2   207  ASP207     -0.2718
    122  CB       180.6880  -14.5590   33.5700 C.3   207  ASP207      0.1424
    123  CG       180.2460  -16.0040   33.6740 C.2   207  ASP207      0.3668
    124  OD1      180.0220  -16.4820   34.8060 O.co2 207  ASP207     -0.2456
    125  OD2      180.1240  -16.6640   32.6200 O.co2 207  ASP207     -0.2456
    126  N        180.4620  -11.3980   34.6120 N.am  208  ALA208     -0.1979
    127  CA       180.9680  -10.0500   34.4040 C.3   208  ALA208      0.1597
    128  C        181.1910   -9.2850   35.6980 C.2   208  ALA208      0.2287
    129  O        181.5870   -8.1160   35.6460 O.2   208  ALA208     -0.2864
    130  CB       180.0100   -9.2560   33.5200 C.3   208  ALA208      0.0319
@<TRIPOS>BOND
     1     4     3    2
     2     3     2    1
     3     1     2    1
     4     2     5    1
     5     5     6    1
     6    96    94   ar
     7    96    95   ar
     8     6     7    1
     9    94    92   ar
    10    95    93   ar
    11    92    91   ar
    12     7     8   ar
    13     7     9   ar
    14    93    91   ar
    15    27    25   am
    16    91    90    1
    17    26    25    2
    18    25    24    1
    19    22    23    2
    20    22    21    1
    21    90    87    1
    22    13    12    2
    23    20    21    1
    24    12    11    1
    25    21    24    1
    26   101   102    1
    27   101    98    1
    28    30    31    2
    29    30    29    1
    30    32    29    1
    31    32    33    1
    32   102   103    1
    33   103    97    1
    34    98    97    1
    35    98    99    1
    36    87    88    1
    37    87    86    1
    38    10    11    1
    39    28    29    1
    40    88    97   am
    41    88    89    2
    42    85    84   ar
    43    85    83   ar
    44    34    33   ar
    45    34    36   ar
    46    84    82   ar
    47    11    14    1
    48    33    35   ar
    49    86    77   am
    50   111   109   am
    51    83    81   ar
    52    99   100    2
    53    99   104   am
    54    36    37   ar
    55    82    80   ar
    56    14    15    1
    57    35    37   ar
    58    16    15   ar
    59    16    18   ar
    60    57    56    1
    61    81    80   ar
    62    15    17   ar
    63    77    78    2
    64    77    76    1
    65    80    79    1
    66   104   105    1
    67   109   108    1
    68   109   110    2
    69    42    39    1
    70    42    43    1
    71    18    19   ar
    72    17    19   ar
    73    39    38    1
    74    39    40    1
    75   108   105    1
    76    76    79    1
    77    76    75    1
    78    54    55    1
    79    54    53    1
    80    52    53    1
    81    52    49    1
    82    56    55    2
    83    56    58    1
    84    48    40   am
    85    48    49    1
    86   105   106    1
    87    43    44   ar
    88    43    45   ar
    89    44    46   ar
    90    51    50    2
    91    40    41    2
    92    49    50    1
    93   106   107    2
    94   106   112   am
    95   125   123   ar
    96   116   117    1
    97   116   113    1
    98    50    59   am
    99   112   113    1
   100    45    47   ar
   101    46    47   ar
   102   130   127    1
   103   122   123    1
   104   122   119    1
   105   123   124   ar
   106   113   114    1
   107    59    60    1
   108   127   126    1
   109   127   128    1
   110   126   120   am
   111   115   114    2
   112   120   121    2
   113   120   119    1
   114    74    73    2
   115    60    61    1
   116    60    63    1
   117   119   118    1
   118    62    61    2
   119    73    72    1
   120   129   128    2
   121    65    67   ar
   122    65    64   ar
   123    63    64    1
   124    67    69   ar
   125    72    71    1
   126    64    66   ar
   127    69    70    1
   128    69    68   ar
   129    66    68   ar
