@<TRIPOS>MOLECULE
tmp/6mrgB00.pdb
 226 215 0 0 0
SMALL
GASTEIGER

@<TRIPOS>ATOM
      1  N         -9.3780  -19.9870   13.7990 N.3   159  MET159     -0.1230
      2  CA        -9.7060  -20.6710   15.0570 C.3   159  MET159      0.1702
      3  C        -11.1900  -21.0610   15.2770 C.2   159  MET159      0.2592
      4  O        -11.5390  -21.4640   16.3950 O.2   159  MET159     -0.2718
      5  CB        -9.2050  -19.8430   16.2420 C.3   159  MET159      0.0401
      6  CG        -7.7360  -19.4880   16.1670 C.3   159  MET159      0.0596
      7  SD        -7.1440  -18.8550   17.7370 S.3   159  MET159     -0.1393
      8  CE        -8.0360  -17.3050   17.8820 C.3   159  MET159      0.0692
      9  N        -12.0430  -21.0120   14.2390 N.am  160  PHE160     -0.1962
     10  CA       -13.4930  -21.3120   14.2780 C.3   160  PHE160      0.1771
     11  C        -13.7870  -22.7900   13.9350 C.2   160  PHE160      0.2620
     12  O        -14.6960  -23.1010   13.1680 O.2   160  PHE160     -0.2715
     13  CB       -14.2730  -20.3580   13.3390 C.3   160  PHE160      0.0574
     14  CG       -15.0690  -19.2950   14.0590 C.ar  160  PHE160     -0.0200
     15  CD1      -16.2030  -19.6310   14.8020 C.ar  160  PHE160     -0.0042
     16  CD2      -14.6790  -17.9660   14.0240 C.ar  160  PHE160     -0.0042
     17  CE1      -16.9480  -18.6490   15.4860 C.ar  160  PHE160     -0.0003
     18  CE2      -15.4120  -16.9730   14.6890 C.ar  160  PHE160     -0.0003
     19  CZ       -16.5500  -17.3230   15.4240 C.ar  160  PHE160     -0.0000
     20  N        -12.9760  -23.7320   14.4430 N.am  161  SER161     -0.1936
     21  CA       -13.0010  -25.1340   14.0370 C.3   161  SER161      0.2055
     22  C        -12.3640  -25.9970   15.1180 C.2   161  SER161      0.2643
     23  O        -11.3650  -25.5910   15.6940 O.2   161  SER161     -0.2714
     24  CB       -12.2350  -25.3170   12.7150 C.3   161  SER161      0.2130
     25  OG       -12.1700  -26.6770   12.3010 O.3   161  SER161     -0.2179
     26  N        -12.9060  -27.1900   15.3960 N.am  162  TYR162     -0.1973
     27  CA       -12.1890  -28.1090   16.2850 C.3   162  TYR162      0.1639
     28  C        -11.3450  -29.1410   15.5220 C.2   162  TYR162      0.2290
     29  O        -10.9270  -30.1520   16.1110 O.2   162  TYR162     -0.2864
     30  CB       -13.1040  -28.7510   17.3520 C.3   162  TYR162      0.0560
     31  CG       -14.1790  -29.7120   16.9010 C.ar  162  TYR162     -0.0198
     32  CD1      -15.3920  -29.2430   16.4070 C.ar  162  TYR162     -0.0009
     33  CD2      -14.0060  -31.0860   17.0290 C.ar  162  TYR162     -0.0009
     34  CE1      -16.3920  -30.1220   16.0140 C.ar  162  TYR162      0.0417
     35  CE2      -14.9940  -31.9740   16.6410 C.ar  162  TYR162      0.0417
     36  CZ       -16.1820  -31.4860   16.1340 C.ar  162  TYR162      0.1957
     37  OH       -17.1620  -32.3580   15.7460 O.3   162  TYR162     -0.2866
     38  N        -13.1490  -20.8810   22.8470 N.3   206  ILE206     -0.1231
     39  CA       -14.4340  -20.2350   22.5390 C.3   206  ILE206      0.1692
     40  C        -15.5620  -21.2480   22.2880 C.2   206  ILE206      0.2592
     41  O        -16.7280  -20.8230   22.1290 O.2   206  ILE206     -0.2718
     42  CB       -14.2970  -19.2530   21.3260 C.3   206  ILE206      0.0266
     43  CG1      -15.3590  -18.1410   21.4090 C.3   206  ILE206      0.0019
     44  CG2      -14.3290  -19.9780   19.9700 C.3   206  ILE206      0.0020
     45  CD1      -15.3750  -17.3930   22.7360 C.3   206  ILE206      0.0001
     46  N        -15.2350  -22.5160   22.0280 N.am  207  GLY207     -0.1957
     47  CA       -16.2460  -23.5560   21.8930 C.3   207  GLY207      0.1869
     48  C        -15.7800  -24.9530   22.2540 C.2   207  GLY207      0.2309
     49  O        -16.4050  -25.9360   21.8280 O.2   207  GLY207     -0.2863
     50  N        -12.0620  -25.1830   22.3210 N.3   209  SER209     -0.1217
     51  CA       -10.7210  -25.1290   21.7080 C.3   209  SER209      0.1889
     52  C         -9.5460  -25.5290   22.6100 C.2   209  SER209      0.2288
     53  O         -8.4710  -25.8000   22.0760 O.2   209  SER209     -0.2866
     54  CB       -10.4700  -23.7470   21.1270 C.3   209  SER209      0.2089
     55  OG       -11.3550  -23.5110   20.0450 O.3   209  SER209     -0.2183
     56  N        -11.0180  -29.8850   23.4080 N.3   212  PHE212     -0.1241
     57  CA       -10.9450  -30.7740   22.2440 C.3   212  PHE212      0.1605
     58  C         -9.5610  -31.2460   21.9570 C.2   212  PHE212      0.2264
     59  O         -9.3440  -32.4990   21.8750 O.2   212  PHE212     -0.2867
     60  CB       -11.5130  -30.0880   20.9790 C.3   212  PHE212      0.0534
     61  CG       -13.0090  -30.0410   20.9220 C.ar  212  PHE212     -0.0203
     62  CD1      -13.7610  -31.1920   21.0980 C.ar  212  PHE212     -0.0042
     63  CD2      -13.6570  -28.8430   20.6740 C.ar  212  PHE212     -0.0042
     64  CE1      -15.1390  -31.1520   21.0480 C.ar  212  PHE212     -0.0003
     65  CE2      -15.0410  -28.7910   20.6200 C.ar  212  PHE212     -0.0003
     66  CZ       -15.7840  -29.9490   20.8090 C.ar  212  PHE212     -0.0000
     67  N        -24.6290  -19.9580   19.5940 N.3   345  THR345     -0.1218
     68  CA       -24.5180  -19.6590   18.1700 C.3   345  THR345      0.1862
     69  C        -24.8900  -18.2250   17.8560 C.2   345  THR345      0.2287
     70  O        -24.1730  -17.5390   17.1190 O.2   345  THR345     -0.2866
     71  CB       -25.3910  -20.6240   17.3700 C.3   345  THR345      0.1770
     72  OG1      -25.0280  -21.9680   17.6930 O.3   345  THR345     -0.2211
     73  CG2      -25.2670  -20.4070   15.8520 C.3   345  THR345      0.0375
     74  N        -22.2300  -15.7650   19.1150 N.3   348  LEU348     -0.1231
     75  CA       -21.0420  -15.7820   18.2650 C.3   348  LEU348      0.1693
     76  C        -21.2600  -15.2160   16.8610 C.2   348  LEU348      0.2592
     77  O        -20.2820  -14.8520   16.1950 O.2   348  LEU348     -0.2718
     78  CB       -20.5140  -17.2110   18.1570 C.3   348  LEU348      0.0284
     79  CG       -20.0690  -17.8280   19.4980 C.3   348  LEU348      0.0019
     80  CD1      -20.1580  -19.3500   19.5020 C.3   348  LEU348      0.0001
     81  CD2      -18.6700  -17.4020   19.8380 C.3   348  LEU348      0.0001
     82  N        -22.4990  -15.1350   16.3810 N.am  349  PHE349     -0.1976
     83  CA       -22.8030  -14.7090   15.0110 C.3   349  PHE349      0.1639
     84  C        -23.9430  -13.7030   14.9660 C.2   349  PHE349      0.2290
     85  O        -24.8140  -13.7690   14.1050 O.2   349  PHE349     -0.2864
     86  CB       -23.1340  -15.9140   14.1280 C.3   349  PHE349      0.0560
     87  CG       -22.0310  -16.9360   14.0760 C.ar  349  PHE349     -0.0200
     88  CD1      -20.7800  -16.5880   13.5680 C.ar  349  PHE349     -0.0042
     89  CD2      -22.2290  -18.2290   14.5490 C.ar  349  PHE349     -0.0042
     90  CE1      -19.7420  -17.5250   13.5320 C.ar  349  PHE349     -0.0003
     91  CE2      -21.2130  -19.1680   14.5140 C.ar  349  PHE349     -0.0003
     92  CZ       -19.9470  -18.8170   14.0010 C.ar  349  PHE349     -0.0000
     93  N        -12.9280  -26.1620    7.7570 N.3   369  LEU369     -0.1245
     94  CA       -13.9920  -25.3600    8.3320 C.3   369  LEU369      0.1561
     95  C        -15.3960  -25.7900    7.8420 C.2   369  LEU369      0.2260
     96  O        -16.4180  -25.3480    8.4060 O.2   369  LEU369     -0.2867
     97  CB       -13.7590  -23.8900    8.0100 C.3   369  LEU369      0.0270
     98  CG       -12.4380  -23.3050    8.4940 C.3   369  LEU369      0.0019
     99  CD1      -12.0170  -22.1450    7.6100 C.3   369  LEU369      0.0001
    100  CD2      -12.5330  -22.8840    9.9530 C.3   369  LEU369      0.0001
    101  N        -18.6990  -25.9460    5.7320 N.3   371  ASP371     -0.1225
    102  CA       -19.4870  -24.9670    4.9830 C.3   371  ASP371      0.1805
    103  C        -19.7190  -23.6360    5.7160 C.2   371  ASP371      0.2597
    104  O        -20.3750  -22.7330    5.1620 O.2   371  ASP371     -0.2718
    105  CB       -20.8330  -25.5940    4.5990 C.3   371  ASP371      0.1424
    106  CG       -20.6810  -26.9550    3.9040 C.2   371  ASP371      0.3668
    107  OD1      -19.7300  -27.1290    3.0900 O.co2 371  ASP371     -0.2456
    108  OD2      -21.5220  -27.8490    4.1720 O.co2 371  ASP371     -0.2456
    109  N        -19.1750  -23.4800    6.9270 N.am  372  LEU372     -0.1979
    110  CA       -19.3530  -22.2870    7.7650 C.3   372  LEU372      0.1596
    111  C        -19.2260  -20.9460    7.0410 C.2   372  LEU372      0.2287
    112  O        -19.9390  -20.0100    7.3650 O.2   372  LEU372     -0.2864
    113  CB       -18.3460  -22.3120    8.9150 C.3   372  LEU372      0.0297
    114  CG       -18.3030  -21.1300    9.8820 C.3   372  LEU372      0.0022
    115  CD1      -19.6470  -20.8710   10.5370 C.3   372  LEU372      0.0001
    116  CD2      -17.2420  -21.4020   10.9300 C.3   372  LEU372      0.0001
    117  N        -22.1440  -20.6680    4.3370 N.3   375  ILE375     -0.1245
    118  CA       -23.3930  -20.4310    5.0510 C.3   375  ILE375      0.1561
    119  C        -23.4820  -18.9830    5.5090 C.2   375  ILE375      0.2260
    120  O        -24.4800  -18.3020    5.2630 O.2   375  ILE375     -0.2867
    121  CB       -23.5290  -21.4130    6.2280 C.3   375  ILE375      0.0252
    122  CG1      -23.8980  -22.7890    5.6880 C.3   375  ILE375      0.0019
    123  CG2      -24.5990  -20.9750    7.2300 C.3   375  ILE375      0.0019
    124  CD1      -23.4790  -23.9040    6.5770 C.3   375  ILE375      0.0001
    125  N        -36.0060  -26.4600    6.0510 N.3   390  LEU390     -0.1245
    126  CA       -35.3390  -27.5250    6.8220 C.3   390  LEU390      0.1561
    127  C        -35.9840  -27.8330    8.1760 C.2   390  LEU390      0.2260
    128  O        -35.7560  -28.9220    8.7240 O.2   390  LEU390     -0.2867
    129  CB       -33.8720  -27.1550    7.0820 C.3   390  LEU390      0.0270
    130  CG       -32.9480  -27.0840    5.8710 C.3   390  LEU390      0.0019
    131  CD1      -31.6720  -26.3620    6.2480 C.3   390  LEU390      0.0001
    132  CD2      -32.6420  -28.4760    5.3330 C.3   390  LEU390      0.0001
    133  N        -30.3030  -28.2910   12.1810 N.3   397  LEU397     -0.1245
    134  CA       -29.6620  -27.4920   11.1300 C.3   397  LEU397      0.1561
    135  C        -30.4180  -26.2040   10.8420 C.2   397  LEU397      0.2260
    136  O        -29.8010  -25.1700   10.5610 O.2   397  LEU397     -0.2867
    137  CB       -29.5210  -28.2950    9.8310 C.3   397  LEU397      0.0270
    138  CG       -28.1920  -29.0420    9.6760 C.3   397  LEU397      0.0019
    139  CD1      -28.0200  -30.0750   10.7830 C.3   397  LEU397      0.0001
    140  CD2      -28.0940  -29.7010    8.2990 C.3   397  LEU397      0.0001
    141  N        -29.6880  -23.6130   13.9150 N.3   400  PHE400     -0.1227
    142  CA       -28.3980  -22.9530   13.7050 C.3   400  PHE400      0.1736
    143  C        -28.4920  -21.9360   12.5920 C.2   400  PHE400      0.2595
    144  O        -28.1420  -20.7680   12.7670 O.2   400  PHE400     -0.2718
    145  CB       -27.3060  -23.9690   13.3690 C.3   400  PHE400      0.0547
    146  CG       -26.5970  -24.5110   14.5730 C.ar  400  PHE400     -0.0202
    147  CD1      -27.2940  -25.2010   15.5550 C.ar  400  PHE400     -0.0042
    148  CD2      -25.2240  -24.3230   14.7360 C.ar  400  PHE400     -0.0042
    149  CE1      -26.6420  -25.7020   16.6860 C.ar  400  PHE400     -0.0003
    150  CE2      -24.5580  -24.8250   15.8610 C.ar  400  PHE400     -0.0003
    151  CZ       -25.2720  -25.5140   16.8380 C.ar  400  PHE400     -0.0000
    152  N        -29.0100  -22.3730   11.4450 N.am  401  LEU401     -0.1980
    153  CA       -29.2240  -21.5360   10.2680 C.3   401  LEU401      0.1596
    154  C        -29.9260  -20.2340   10.5990 C.2   401  LEU401      0.2287
    155  O        -29.5800  -19.1630   10.0570 O.2   401  LEU401     -0.2864
    156  CB       -30.0270  -22.3460    9.2420 C.3   401  LEU401      0.0297
    157  CG       -30.0200  -21.9780    7.7620 C.3   401  LEU401      0.0022
    158  CD1      -28.6300  -21.6350    7.2750 C.3   401  LEU401      0.0001
    159  CD2      -30.5990  -23.1690    6.9610 C.3   401  LEU401      0.0001
    160  N        -27.9590  -17.5070   12.9500 N.3   404  MET404     -0.1245
    161  CA       -26.7150  -17.0120   12.3720 C.3   404  MET404      0.1570
    162  C        -26.9670  -15.8700   11.3950 C.2   404  MET404      0.2261
    163  O        -26.1620  -15.6400   10.4870 O.2   404  MET404     -0.2867
    164  CB       -25.9680  -18.1540   11.6890 C.3   404  MET404      0.0387
    165  CG       -25.3930  -19.1890   12.6290 C.3   404  MET404      0.0595
    166  SD       -24.8130  -20.6900   11.7840 S.3   404  MET404     -0.1393
    167  CE       -23.5980  -20.0240   10.6470 C.3   404  MET404      0.0692
    168  N        -15.3330  -30.0170   10.9160 N.3   453  GLY453     -0.1210
    169  CA       -16.0280  -28.9220   10.2290 C.3   453  GLY453      0.1956
    170  C        -17.3860  -29.2560    9.6840 C.2   453  GLY453      0.2611
    171  O        -18.2230  -28.3500    9.5090 O.2   453  GLY453     -0.2717
    172  N        -17.6580  -30.5370    9.3820 N.am  454  ARG454     -0.1979
    173  CA       -18.9840  -31.0000    8.9770 C.3   454  ARG454      0.1597
    174  C        -19.6620  -31.8510   10.0620 C.2   454  ARG454      0.2287
    175  O        -20.4660  -32.7470    9.7500 O.2   454  ARG454     -0.2864
    176  CB       -18.8870  -31.7550    7.6430 C.3   454  ARG454      0.0334
    177  CG       -18.0360  -31.0520    6.5980 C.3   454  ARG454      0.0492
    178  CD       -18.7670  -30.9240    5.2640 C.3   454  ARG454      0.2205
    179  NE       -19.3440  -32.1970    4.8300 N.pl3 454  ARG454     -0.0865
    180  CZ       -19.6920  -32.5100    3.5780 C.cat 454  ARG454      0.5346
    181  NH1      -19.5390  -31.6460    2.5740 N.pl3 454  ARG454      0.1354
    182  NH2      -20.2060  -33.7120    3.3270 N.pl3 454  ARG454      0.1354
    183  N        -20.7750  -30.2090   13.5620 N.3   456  THR456     -0.1218
    184  CA       -20.8320  -29.1250   14.5420 C.3   456  THR456      0.1862
    185  C        -21.5200  -29.5320   15.8340 C.2   456  THR456      0.2287
    186  O        -21.0890  -29.1180   16.9120 O.2   456  THR456     -0.2866
    187  CB       -21.5490  -27.9000   13.9680 C.3   456  THR456      0.1770
    188  OG1      -21.1770  -27.7000   12.6010 O.3   456  THR456     -0.2211
    189  CG2      -21.2090  -26.6440   14.7820 C.3   456  THR456      0.0375
    190  N        -19.9450  -30.1410   19.4740 N.3   459  VAL459     -0.1245
    191  CA       -19.5750  -29.0810   20.4180 C.3   459  VAL459      0.1561
    192  C        -20.4580  -29.0530   21.6660 C.2   459  VAL459      0.2260
    193  O        -20.0710  -28.4600   22.6880 O.2   459  VAL459     -0.2867
    194  CB       -19.6000  -27.6730   19.7610 C.3   459  VAL459      0.0252
    195  CG1      -18.6270  -27.5810   18.5780 C.3   459  VAL459      0.0019
    196  CG2      -21.0290  -27.2320   19.3680 C.3   459  VAL459      0.0019
    197  N        -19.1790  -26.5100   24.4010 N.3   463  MET463     -0.1245
    198  CA       -19.7770  -25.2050   24.0750 C.3   463  MET463      0.1570
    199  C        -20.7540  -24.6880   25.1220 C.2   463  MET463      0.2261
    200  O        -20.8790  -23.4770   25.3160 O.2   463  MET463     -0.2867
    201  CB       -20.4980  -25.3070   22.7210 C.3   463  MET463      0.0387
    202  CG       -21.2730  -24.0800   22.2230 C.3   463  MET463      0.0595
    203  SD       -20.2060  -22.7910   21.5910 S.3   463  MET463     -0.1393
    204  CE       -20.3380  -23.0820   19.8150 C.3   463  MET463      0.0692
    205  N        -27.1130  -34.9070    8.8940 N.3   498  ILE498     -0.1231
    206  CA       -25.7520  -34.9740    8.3090 C.3   498  ILE498      0.1692
    207  C        -24.6250  -35.0570    9.3170 C.2   498  ILE498      0.2592
    208  O        -23.5560  -35.6430    9.0120 O.2   498  ILE498     -0.2718
    209  CB       -25.4960  -33.7830    7.3350 C.3   498  ILE498      0.0266
    210  CG1      -24.1510  -33.9540    6.5920 C.3   498  ILE498      0.0019
    211  CG2      -25.5300  -32.4390    8.0800 C.3   498  ILE498      0.0020
    212  CD1      -24.0090  -35.2990    5.8650 C.3   498  ILE498      0.0001
    213  N        -24.7620  -34.3680   10.4570 N.am  499  TRP499     -0.1976
    214  CA       -23.7430  -34.3200   11.5010 C.3   499  TRP499      0.1640
    215  C        -23.6360  -35.6390   12.2460 C.2   499  TRP499      0.2290
    216  O        -22.5220  -36.0790   12.5600 O.2   499  TRP499     -0.2864
    217  CB       -24.0040  -33.1850   12.5070 C.3   499  TRP499      0.0576
    218  CG       -24.0520  -31.7960   11.9180 C.ar  499  TRP499      0.0006
    219  CD1      -23.5780  -31.3970   10.6960 C.ar  499  TRP499      0.0946
    220  CD2      -24.5910  -30.6250   12.5370 C.ar  499  TRP499      0.0152
    221  NE1      -23.8030  -30.0550   10.5130 N.ar  499  TRP499     -0.2442
    222  CE2      -24.4210  -29.5540   11.6290 C.ar  499  TRP499      0.0810
    223  CE3      -25.2110  -30.3750   13.7680 C.ar  499  TRP499      0.0012
    224  CZ2      -24.8430  -28.2500   11.9150 C.ar  499  TRP499      0.0191
    225  CZ3      -25.6240  -29.0810   14.0570 C.ar  499  TRP499      0.0001
    226  CH2      -25.4380  -28.0340   13.1320 C.ar  499  TRP499      0.0015
@<TRIPOS>BOND
     1   181   180    1
     2   107   106   ar
     3   182   180    1
     4   180   179    2
     5   106   108   ar
     6   106   105    1
     7   117   118    1
     8   105   102    1
     9   179   178    1
    10   102   103    1
    11   102   101    1
    12   118   119    1
    13   118   121    1
    14   104   103    2
    15   120   119    2
    16   178   177    1
    17   132   130    1
    18   122   121    1
    19   122   124    1
    20   103   109   am
    21   212   210    1
    22   130   131    1
    23   130   129    1
    24   125   126    1
    25   121   123    1
    26   210   209    1
    27   177   176    1
    28   126   129    1
    29   126   127    1
    30   109   110    1
    31   159   157    1
    32   111   112    2
    33   111   110    1
    34   158   157    1
    35   209   211    1
    36   209   206    1
    37    99    98    1
    38   176   173    1
    39    93    94    1
    40   157   156    1
    41   110   113    1
    42    95    94    1
    43    95    96    2
    44    97    94    1
    45    97    98    1
    46   127   128    2
    47   140   138    1
    48   206   205    1
    49   206   207    1
    50    98   100    1
    51   113   114    1
    52   173   172    1
    53   173   174    1
    54   208   207    2
    55   156   153    1
    56   207   213   am
    57   172   170   am
    58   171   170    2
    59   138   137    1
    60   138   139    1
    61   170   169    1
    62   175   174    2
    63   137   134    1
    64   114   115    1
    65   114   116    1
    66   155   154    2
    67   169   168    1
    68   153   154    1
    69   153   152    1
    70   213   214    1
    71   163   162    2
    72   221   219   ar
    73   221   222   ar
    74   136   135    2
    75   167   166    1
    76   219   218   ar
    77   135   134    1
    78   134   133    1
    79   162   161    1
    80   152   143   am
    81   214   215    1
    82   214   217    1
    83   222   224   ar
    84   222   220   ar
    85   164   161    1
    86   164   165    1
    87   166   165    1
    88   224   226   ar
    89   218   217    1
    90   218   220   ar
    91   215   216    2
    92    25    24    1
    93   161   160    1
    94   220   223   ar
    95   143   144    2
    96   143   142    1
    97   188   187    1
    98    24    21    1
    99   226   225   ar
   100    12    11    2
   101    13    14    1
   102    13    10    1
   103   145   142    1
   104   145   146    1
   105    90    88   ar
   106    90    92   ar
   107   183   184    1
   108    88    87   ar
   109   142   141    1
   110   223   225   ar
   111     1     2    1
   112    11    10    1
   113    11    20   am
   114   187   184    1
   115   187   189    1
   116    92    91   ar
   117    16    14   ar
   118    16    18   ar
   119    21    20    1
   120    21    22    1
   121    14    15   ar
   122    87    86    1
   123    87    89   ar
   124    85    84    2
   125    86    83    1
   126     9    10    1
   127     9     3   am
   128    91    89   ar
   129   184   185    1
   130   146   148   ar
   131   146   147   ar
   132    18    19   ar
   133   148   150   ar
   134    15    17   ar
   135    84    83    1
   136    83    82    1
   137     2     3    1
   138     2     5    1
   139    22    26   am
   140    22    23    2
   141     3     4    2
   142    26    27    1
   143    19    17   ar
   144    28    29    2
   145    28    27    1
   146   147   149   ar
   147    37    36    1
   148   185   186    2
   149    73    71    1
   150   150   151   ar
   151    34    36   ar
   152    34    32   ar
   153    36    35   ar
   154     6     5    1
   155     6     7    1
   156    77    76    2
   157    27    30    1
   158    82    76   am
   159    32    31   ar
   160    35    33   ar
   161   149   151   ar
   162    76    75    1
   163    31    33   ar
   164    31    30    1
   165    70    69    2
   166    71    72    1
   167    71    68    1
   168     7     8    1
   169    69    68    1
   170    78    75    1
   171    78    79    1
   172    68    67    1
   173    75    74    1
   174   195   194    1
   175   196   194    1
   176   190   191    1
   177    79    80    1
   178    79    81    1
   179   194   191    1
   180   204   203    1
   181    44    42    1
   182    55    54    1
   183   191   192    1
   184    65    63   ar
   185    65    66   ar
   186    63    61   ar
   187    66    64   ar
   188    61    60    1
   189    61    62   ar
   190    60    57    1
   191    64    62   ar
   192    54    51    1
   193    42    43    1
   194    42    39    1
   195    43    45    1
   196   203   202    1
   197   192   193    2
   198    51    50    1
   199    51    52    1
   200    49    48    2
   201    59    58    2
   202    47    46    1
   203    47    48    1
   204    58    57    1
   205    46    40   am
   206    53    52    2
   207    41    40    2
   208   202   201    1
   209    57    56    1
   210    40    39    1
   211    39    38    1
   212   201   198    1
   213   198   197    1
   214   198   199    1
   215   199   200    2
