@<TRIPOS>MOLECULE
tmp/6mroA00.pdb
 206 200 0 0 0
SMALL
GASTEIGER

@<TRIPOS>ATOM
      1  N         30.1660   -1.9050    9.9370 N.3     3  TRP3       -0.1241
      2  CA        30.1930   -2.3020    8.5430 C.3     3  TRP3        0.1605
      3  C         31.5120   -1.9830    7.8520 C.2     3  TRP3        0.2264
      4  O         31.8680   -2.6780    6.8970 O.2     3  TRP3       -0.2867
      5  CB        29.0050   -1.6740    7.8270 C.3     3  TRP3        0.0550
      6  CG        27.7290   -2.2920    8.3310 C.ar    3  TRP3        0.0003
      7  CD1       26.8120   -1.7300    9.1820 C.ar    3  TRP3        0.0946
      8  CD2       27.2620   -3.6230    8.0610 C.ar    3  TRP3        0.0152
      9  NE1       25.7860   -2.6190    9.4260 N.ar    3  TRP3       -0.2442
     10  CE2       26.0390   -3.7870    8.7490 C.ar    3  TRP3        0.0810
     11  CE3       27.7540   -4.6850    7.2940 C.ar    3  TRP3        0.0012
     12  CZ2       25.3060   -4.9770    8.6990 C.ar    3  TRP3        0.0191
     13  CZ3       27.0140   -5.8520    7.2300 C.ar    3  TRP3        0.0001
     14  CH2       25.8040   -5.9920    7.9360 C.ar    3  TRP3        0.0015
     15  N         34.1570   -5.1350    5.7530 N.3     7  TYR7       -0.1241
     16  CA        34.7250   -4.9810    4.4210 C.3     7  TYR7        0.1605
     17  C         36.2450   -4.8710    4.4330 C.2     7  TYR7        0.2264
     18  O         36.8440   -4.5870    3.3890 O.2     7  TYR7       -0.2867
     19  CB        34.0780   -3.7880    3.7060 C.3     7  TYR7        0.0534
     20  CG        32.7140   -4.1870    3.1650 C.ar    7  TYR7       -0.0201
     21  CD1       31.5520   -3.7990    3.8050 C.ar    7  TYR7       -0.0009
     22  CD2       32.6030   -5.0130    2.0530 C.ar    7  TYR7       -0.0009
     23  CE1       30.2940   -4.1810    3.3330 C.ar    7  TYR7        0.0417
     24  CE2       31.3430   -5.4180    1.5640 C.ar    7  TYR7        0.0417
     25  CZ        30.1970   -4.9940    2.2110 C.ar    7  TYR7        0.1957
     26  OH        28.9650   -5.3890    1.7210 O.3     7  TYR7       -0.2866
     27  N         28.9390  -12.8080    1.6600 N.3    13  TRP13      -0.1227
     28  CA        28.0130  -12.4200    0.5960 C.3    13  TRP13       0.1737
     29  C         28.7130  -11.7380   -0.5750 C.2    13  TRP13       0.2595
     30  O         28.0690  -11.4790   -1.6060 O.2    13  TRP13      -0.2718
     31  CB        26.9320  -11.4740    1.1520 C.3    13  TRP13       0.0564
     32  CG        27.5470  -10.2330    1.7420 C.ar   13  TRP13       0.0003
     33  CD1       27.9080   -9.0910    1.0730 C.ar   13  TRP13       0.0946
     34  CD2       27.9000  -10.0250    3.1140 C.ar   13  TRP13       0.0152
     35  NE1       28.4740   -8.1910    1.9520 N.ar   13  TRP13      -0.2442
     36  CE2       28.4740   -8.7360    3.2100 C.ar   13  TRP13       0.0810
     37  CE3       27.7810  -10.8020    4.2770 C.ar   13  TRP13       0.0012
     38  CZ2       28.9250   -8.2060    4.4200 C.ar   13  TRP13       0.0191
     39  CZ3       28.2380  -10.2700    5.4810 C.ar   13  TRP13       0.0001
     40  CH2       28.7920   -8.9830    5.5400 C.ar   13  TRP13       0.0015
     41  N         30.0060  -11.4310   -0.4420 N.am   14  ASP14      -0.1960
     42  CA        30.6780  -10.5430   -1.3860 C.3    14  ASP14       0.1840
     43  C         31.1940  -11.3400   -2.5850 C.2    14  ASP14       0.2621
     44  O         32.3880  -11.4510   -2.8430 O.2    14  ASP14      -0.2715
     45  CB        31.7900   -9.7790   -0.6730 C.3    14  ASP14       0.1450
     46  CG        32.3980   -8.7130   -1.5280 C.2    14  ASP14       0.3671
     47  OD1       31.6520   -8.1320   -2.3470 O.co2  14  ASP14      -0.2456
     48  OD2       33.6240   -8.4810   -1.3840 O.co2  14  ASP14      -0.2456
     49  N         30.2370  -11.9030   -3.3330 N.am   15  ILE15      -0.1977
     50  CA        30.5610  -12.7120   -4.5030 C.3    15  ILE15       0.1596
     51  C         30.9820  -11.8200   -5.6670 C.2    15  ILE15       0.2287
     52  O         30.6930  -10.6210   -5.7080 O.2    15  ILE15      -0.2864
     53  CB        29.3830  -13.6220   -4.8950 C.3    15  ILE15       0.0276
     54  CG1       28.1100  -12.7940   -5.1200 C.3    15  ILE15       0.0022
     55  CG2       29.1820  -14.7130   -3.8430 C.3    15  ILE15       0.0022
     56  CD1       26.9760  -13.6130   -5.7340 C.3    15  ILE15       0.0001
     57  N         23.9020  -11.5470   -7.9380 N.3    19  GLN19      -0.1245
     58  CA        23.1510  -12.6860   -7.4300 C.3    19  GLN19       0.1566
     59  C         22.2770  -13.2700   -8.5390 C.2    19  GLN19       0.2260
     60  O         21.6130  -12.5210   -9.2650 O.2    19  GLN19      -0.2867
     61  CB        22.2760  -12.2850   -6.2400 C.3    19  GLN19       0.0367
     62  CG        23.0700  -12.1490   -4.9520 C.3    19  GLN19       0.0905
     63  CD        23.4870  -13.4830   -4.4070 C.2    19  GLN19       0.2608
     64  OE1       23.0190  -14.5270   -4.8630 O.2    19  GLN19      -0.2717
     65  NE2       24.4240  -13.4680   -3.4730 N.am   19  GLN19      -0.0878
     66  N         19.6760    0.3450   -5.2910 N.3    38  ASP38      -0.1239
     67  CA        20.1430   -0.8720   -4.6310 C.3    38  ASP38       0.1674
     68  C         20.4830   -0.4730   -3.1990 C.2    38  ASP38       0.2266
     69  O         21.4680    0.2310   -2.9730 O.2    38  ASP38      -0.2867
     70  CB        21.3540   -1.4640   -5.3640 C.3    38  ASP38       0.1410
     71  CG        21.8540   -2.7720   -4.7340 C.2    38  ASP38       0.3668
     72  OD1       21.5030   -3.0570   -3.5790 O.co2  38  ASP38      -0.2456
     73  OD2       22.6160   -3.5170   -5.3960 O.co2  38  ASP38      -0.2456
     74  N         21.8060   -0.9770    0.4960 N.3    40  GLY40      -0.1210
     75  CA        22.8410   -1.8460    1.0320 C.3    40  GLY40       0.1956
     76  C         23.5920   -2.5370   -0.0890 C.2    40  GLY40       0.2612
     77  O         23.7400   -3.7590   -0.0810 O.2    40  GLY40      -0.2717
     78  N         24.0770   -1.7530   -1.0520 N.am   41  CYS41      -0.1956
     79  CA        24.5620   -2.2960   -2.3100 C.3    41  CYS41       0.1843
     80  C         25.9240   -2.9800   -2.2050 C.2    41  CYS41       0.2626
     81  O         26.3340   -3.6320   -3.1720 O.2    41  CYS41      -0.2714
     82  CB        24.6330   -1.1940   -3.3600 C.3    41  CYS41       0.0997
     83  SG        25.8270    0.1190   -2.9190 S.3    41  CYS41      -0.0797
     84  N         26.6380   -2.8260   -1.0980 N.am   42  GLY42      -0.1940
     85  CA        27.9330   -3.4870   -1.0050 C.3    42  GLY42       0.2014
     86  C         28.8730   -3.0440   -2.1100 C.2    42  GLY42       0.2638
     87  O         28.8940   -1.8740   -2.5080 O.2    42  GLY42      -0.2714
     88  N         29.6660   -3.9930   -2.6220 N.am   43  ARG43      -0.1977
     89  CA        30.6670   -3.7080   -3.6480 C.3    43  ARG43       0.1597
     90  C         30.0950   -3.7090   -5.0650 C.2    43  ARG43       0.2287
     91  O         30.8690   -3.7980   -6.0300 O.2    43  ARG43      -0.2864
     92  CB        31.8310   -4.6970   -3.5280 C.3    43  ARG43       0.0334
     93  CG        32.7680   -4.3060   -2.4200 C.3    43  ARG43       0.0492
     94  CD        33.8430   -5.3470   -2.1380 C.3    43  ARG43       0.2205
     95  NE        34.8820   -4.7710   -1.2910 N.pl3  43  ARG43      -0.0865
     96  CZ        35.4780   -5.4160   -0.2950 C.cat  43  ARG43       0.5346
     97  NH1       36.4330   -4.8090    0.4150 N.pl3  43  ARG43       0.1354
     98  NH2       35.0720   -6.6440    0.0430 N.pl3  43  ARG43       0.1354
     99  N         25.2710   -6.2490   -8.1260 N.3    46  ASN46      -0.1240
    100  CA        23.8960   -6.1850   -8.6180 C.3    46  ASN46       0.1653
    101  C         23.6000   -4.8270   -9.2370 C.2    46  ASN46       0.2266
    102  O         22.8880   -4.7360  -10.2450 O.2    46  ASN46      -0.2867
    103  CB        22.9090   -6.4710   -7.4920 C.3    46  ASN46       0.1155
    104  CG        22.9570   -7.9140   -7.0300 C.2    46  ASN46       0.2627
    105  OD1       23.0870   -8.8220   -7.8500 O.2    46  ASN46      -0.2716
    106  ND2       22.7880   -8.1360   -5.7230 N.am   46  ASN46      -0.0877
    107  N         23.3400    2.5950   -2.4290 N.3    60  ILE60      -0.1231
    108  CA        23.6090    3.2220   -1.1420 C.3    60  ILE60       0.1692
    109  C         24.0950    2.1620   -0.1590 C.2    60  ILE60       0.2592
    110  O         23.5720    1.0400   -0.1170 O.2    60  ILE60      -0.2718
    111  CB        22.3620    3.9620   -0.6130 C.3    60  ILE60       0.0266
    112  CG1       22.6390    4.5680    0.7590 C.3    60  ILE60       0.0019
    113  CG2       21.1220    3.0420   -0.6250 C.3    60  ILE60       0.0020
    114  CD1       21.5910    5.5380    1.1940 C.3    60  ILE60       0.0001
    115  N         25.1290    2.5020    0.6100 N.am   61  ASP61      -0.1960
    116  CA        25.6490    1.5700    1.6020 C.3    61  ASP61       0.1840
    117  C         26.3360    2.3700    2.6960 C.2    61  ASP61       0.2622
    118  O         26.8840    3.4430    2.4400 O.2    61  ASP61      -0.2715
    119  CB        26.6250    0.5680    0.9710 C.3    61  ASP61       0.1450
    120  CG        26.8260   -0.6830    1.8270 C.2    61  ASP61       0.3671
    121  OD1       27.4970   -0.5990    2.8810 O.co2  61  ASP61      -0.2456
    122  OD2       26.3210   -1.7600    1.4370 O.co2  61  ASP61      -0.2456
    123  N         26.3070    1.8220    3.9130 N.am   62  LEU62      -0.1963
    124  CA        26.9490    2.4700    5.0580 C.3    62  LEU62       0.1728
    125  C         28.4730    2.4470    4.9630 C.2    62  LEU62       0.2616
    126  O         29.1390    3.3490    5.4790 O.2    62  LEU62      -0.2715
    127  CB        26.5100    1.7820    6.3500 C.3    62  LEU62       0.0311
    128  CG        25.2060    2.2120    7.0090 C.3    62  LEU62       0.0022
    129  CD1       24.9490    1.3110    8.2200 C.3    62  LEU62       0.0001
    130  CD2       25.2870    3.6810    7.4250 C.3    62  LEU62       0.0001
    131  N         29.0410    1.4470    4.3080 N.am   63  ALA63      -0.1977
    132  CA        30.4810    1.2020    4.3570 C.3    63  ALA63       0.1597
    133  C         31.1770    1.9810    3.2510 C.2    63  ALA63       0.2287
    134  O         30.9760    1.6910    2.0710 O.2    63  ALA63      -0.2864
    135  CB        30.7530   -0.2920    4.2120 C.3    63  ALA63       0.0319
    136  N         25.7020    6.0950    2.7250 N.3    86  GLY86      -0.1210
    137  CA        24.4980    6.5860    3.3700 C.3    86  GLY86       0.1956
    138  C         23.7770    5.4930    4.1240 C.2    86  GLY86       0.2612
    139  O         24.0750    4.2990    3.9920 O.2    86  GLY86      -0.2717
    140  N         22.8020    5.9330    4.9130 N.am   87  ASN87      -0.1960
    141  CA        22.0080    5.0770    5.7840 C.3    87  ASN87       0.1819
    142  C         20.6000    4.9670    5.2160 C.2    87  ASN87       0.2621
    143  O         19.9190    5.9800    5.0600 O.2    87  ASN87      -0.2715
    144  CB        21.9630    5.6600    7.1940 C.3    87  ASN87       0.1195
    145  CG        21.4650    4.6790    8.2130 C.2    87  ASN87       0.2630
    146  OD1       20.6360    3.8060    7.9200 O.2    87  ASN87      -0.2716
    147  ND2       21.9620    4.8170    9.4360 N.am   87  ASN87      -0.0877
    148  N         20.1620    3.7410    4.9300 N.am   88  VAL88      -0.1963
    149  CA        18.8320    3.5290    4.3660 C.3    88  VAL88       0.1727
    150  C         17.7570    3.9970    5.3390 C.2    88  VAL88       0.2616
    151  O         16.6890    4.4570    4.9240 O.2    88  VAL88      -0.2715
    152  CB        18.6660    2.0460    3.9760 C.3    88  VAL88       0.0290
    153  CG1       17.1900    1.6820    3.7620 C.3    88  VAL88       0.0023
    154  CG2       19.4800    1.7620    2.7130 C.3    88  VAL88       0.0023
    155  N         18.0320    3.9270    6.6430 N.am   89  LEU89      -0.1977
    156  CA        17.1040    4.4080    7.6570 C.3    89  LEU89       0.1596
    157  C         17.0550    5.9280    7.7370 C.2    89  LEU89       0.2287
    158  O         16.2660    6.4640    8.5270 O.2    89  LEU89      -0.2864
    159  CB        17.4730    3.8270    9.0230 C.3    89  LEU89       0.0297
    160  CG        17.5290    2.3000    9.1270 C.3    89  LEU89       0.0022
    161  CD1       17.8840    1.8730   10.5460 C.3    89  LEU89       0.0001
    162  CD2       16.2110    1.6740    8.6930 C.3    89  LEU89       0.0001
    163  N         19.5030   -6.9680   -1.6480 N.3   106  SER106     -0.1202
    164  CA        20.2110   -8.2470   -1.7420 C.3   106  SER106      0.2020
    165  C         20.9170   -8.4330   -0.4030 C.2   106  SER106      0.2619
    166  O         22.0800   -8.0610   -0.2460 O.2   106  SER106     -0.2717
    167  CB        21.2110   -8.2480   -2.9370 C.3   106  SER106      0.2103
    168  OG        21.9920   -9.4460   -3.0090 O.3   106  SER106     -0.2182
    169  N         20.1970   -8.9860    0.5750 N.am  107  GLY107     -0.1942
    170  CA        20.7680   -9.2140    1.8890 C.3   107  GLY107      0.2014
    171  C         20.7180   -8.0680    2.8880 C.2   107  GLY107      0.2638
    172  O         21.2730   -8.2180    3.9950 O.2   107  GLY107     -0.2714
    173  N         20.0860   -6.9340    2.5640 N.am  108  LEU108     -0.1977
    174  CA        19.9970   -5.8650    3.5640 C.3   108  LEU108      0.1596
    175  C         18.8830   -6.1390    4.5720 C.2   108  LEU108      0.2287
    176  O         19.1090   -6.0920    5.7880 O.2   108  LEU108     -0.2864
    177  CB        19.7860   -4.5050    2.8920 C.3   108  LEU108      0.0297
    178  CG        19.5560   -3.3320    3.8690 C.3   108  LEU108      0.0022
    179  CD1       20.7290   -3.1960    4.8850 C.3   108  LEU108      0.0001
    180  CD2       19.3160   -1.9840    3.1420 C.3   108  LEU108      0.0001
    181  N         19.7550   -8.1170    7.5140 N.3   111  VAL111     -0.1231
    182  CA        20.5390   -7.6110    8.6370 C.3   111  VAL111      0.1692
    183  C         19.8390   -6.5070    9.4090 C.2   111  VAL111      0.2591
    184  O         20.2930   -6.1660   10.5100 O.2   111  VAL111     -0.2718
    185  CB        21.9380   -7.1280    8.1890 C.3   111  VAL111      0.0266
    186  CG1       22.6900   -8.2530    7.5130 C.3   111  VAL111      0.0020
    187  CG2       21.8390   -5.9150    7.2810 C.3   111  VAL111      0.0020
    188  N         18.7520   -5.9430    8.8790 N.am  112  ILE112     -0.1980
    189  CA        18.0000   -4.9270    9.6050 C.3   112  ILE112      0.1595
    190  C         17.4460   -5.5280   10.8910 C.2   112  ILE112      0.2287
    191  O         16.8320   -6.6040   10.8790 O.2   112  ILE112     -0.2864
    192  CB        16.8820   -4.3770    8.7040 C.3   112  ILE112      0.0276
    193  CG1       17.4730   -3.6440    7.4990 C.3   112  ILE112      0.0022
    194  CG2       15.9410   -3.4410    9.4870 C.3   112  ILE112      0.0022
    195  CD1       18.2900   -2.3920    7.8670 C.3   112  ILE112      0.0001
    196  N         20.6950  -18.4680   -3.0350 N.3   176  PHE176     -0.1241
    197  CA        21.5570  -17.3390   -2.7120 C.3   176  PHE176      0.1605
    198  C         22.9980  -17.8110   -2.8510 C.2   176  PHE176      0.2264
    199  O         23.3950  -18.7870   -2.2040 O.2   176  PHE176     -0.2867
    200  CB        21.2810  -16.8200   -1.2990 C.3   176  PHE176      0.0534
    201  CG        22.0910  -15.6070   -0.9210 C.ar  176  PHE176     -0.0203
    202  CD1       21.5470  -14.3420   -1.0230 C.ar  176  PHE176     -0.0042
    203  CD2       23.3880  -15.7390   -0.4410 C.ar  176  PHE176     -0.0042
    204  CE1       22.2810  -13.2190   -0.6710 C.ar  176  PHE176     -0.0003
    205  CE2       24.1280  -14.6270   -0.0790 C.ar  176  PHE176     -0.0003
    206  CZ        23.5730  -13.3620   -0.1980 C.ar  176  PHE176     -0.0000
@<TRIPOS>BOND
     1   102   101    2
     2    60    59    2
     3   101   100    1
     4   100    99    1
     5   100   103    1
     6    59    58    1
     7    57    58    1
     8   105   104    2
     9   103   104    1
    10    58    61    1
    11   104   106   am
    12    61    62    1
    13    91    90    2
    14    56    54    1
    15    52    51    2
    16    51    50    1
    17    73    71   ar
    18    70    71    1
    19    70    67    1
    20    66    67    1
    21    54    53    1
    22    90    89    1
    23    62    63    1
    24    53    50    1
    25    53    55    1
    26    64    63    2
    27    71    72   ar
    28    67    68    1
    29    50    49    1
    30    63    65   am
    31    89    92    1
    32    89    88    1
    33    92    93    1
    34    82    83    1
    35    82    79    1
    36    49    43   am
    37    68    69    2
    38    81    80    2
    39   196   197    1
    40   168   167    1
    41   167   164    1
    42   198   197    1
    43   198   199    2
    44    44    43    2
    45   197   200    1
    46    88    86   am
    47    43    42    1
    48    87    86    2
    49   107   108    1
    50    93    94    1
    51    47    46   ar
    52    79    80    1
    53    79    78    1
    54    80    84   am
    55    94    95    1
    56    86    85    1
    57   164   163    1
    58   164   165    1
    59    30    29    2
    60    46    48   ar
    61    46    45    1
    62    42    45    1
    63    42    41    1
    64   200   201    1
    65    95    96    2
    66   108   111    1
    67   108   109    1
    68    84    85    1
    69    78    76   am
    70   202   201   ar
    71   202   204   ar
    72   201   203   ar
    73   204   206   ar
    74   113   111    1
    75   111   112    1
    76    29    41   am
    77    29    28    1
    78   203   205   ar
    79   165   166    2
    80   165   169   am
    81    96    98    1
    82    96    97    1
    83   206   205   ar
    84   109   110    2
    85   109   115   am
    86    76    77    2
    87    76    75    1
    88    74    75    1
    89   169   170    1
    90    28    31    1
    91    28    27    1
    92   115   116    1
    93   112   114    1
    94   119   116    1
    95   119   120    1
    96    33    32   ar
    97    33    35   ar
    98    31    32    1
    99   122   120   ar
   100    24    22   ar
   101    24    25   ar
   102   116   117    1
   103    26    25    1
   104    32    34   ar
   105   120   121   ar
   106   170   171    1
   107    35    36   ar
   108    22    20   ar
   109   134   133    2
   110    25    23   ar
   111   118   117    2
   112   173   171   am
   113   173   174    1
   114   117   123   am
   115   154   152    1
   116   136   137    1
   117   171   172    2
   118   177   174    1
   119   177   178    1
   120    34    36   ar
   121    34    37   ar
   122   180   178    1
   123    20    19    1
   124    20    21   ar
   125    36    38   ar
   126   133   132    1
   127    23    21   ar
   128   137   138    1
   129    18    17    2
   130   174   175    1
   131    19    16    1
   132   153   152    1
   133   178   179    1
   134   123   124    1
   135   152   149    1
   136   139   138    2
   137   138   140   am
   138   135   132    1
   139    37    39   ar
   140   131   132    1
   141   131   125   am
   142   149   148    1
   143   149   150    1
   144    38    40   ar
   145    16    17    1
   146    16    15    1
   147   175   176    2
   148   140   141    1
   149   151   150    2
   150   148   142   am
   151   125   124    1
   152   125   126    2
   153   124   127    1
   154   143   142    2
   155   142   141    1
   156   150   155   am
   157    39    40   ar
   158   141   144    1
   159   127   128    1
   160   155   156    1
   161     4     3    2
   162   128   130    1
   163   128   129    1
   164   144   145    1
   165    13    11   ar
   166    13    14   ar
   167   187   185    1
   168    11     8   ar
   169   193   195    1
   170   193   192    1
   171   186   185    1
   172   181   182    1
   173   156   157    1
   174   156   159    1
   175   157   158    2
   176     5     6    1
   177     5     2    1
   178     3     2    1
   179   146   145    2
   180    14    12   ar
   181     8     6   ar
   182     8    10   ar
   183   185   182    1
   184   145   147   am
   185     6     7   ar
   186     2     1    1
   187   182   183    1
   188   162   160    1
   189    12    10   ar
   190   192   194    1
   191   192   189    1
   192    10     9   ar
   193   188   183   am
   194   188   189    1
   195   159   160    1
   196   160   161    1
   197     7     9   ar
   198   183   184    2
   199   189   190    1
   200   191   190    2
