@<TRIPOS>MOLECULE
tmp/6msaA00.pdb
 146 141 0 0 0
SMALL
GASTEIGER

@<TRIPOS>ATOM
      1  N        -10.5210   15.3280  -30.1860 N.3    78  TYR78      -0.1227
      2  CA       -11.7570   14.7650  -29.6630 C.3    78  TYR78       0.1736
      3  C        -11.6690   13.3410  -29.1000 C.2    78  TYR78       0.2595
      4  O        -12.2500   13.0890  -28.0350 O.2    78  TYR78      -0.2718
      5  CB       -12.8590   14.8310  -30.7470 C.3    78  TYR78       0.0548
      6  CG       -14.1630   14.1870  -30.3280 C.ar   78  TYR78      -0.0200
      7  CD1      -14.9170   14.7100  -29.2820 C.ar   78  TYR78      -0.0009
      8  CD2      -14.6280   13.0410  -30.9550 C.ar   78  TYR78      -0.0009
      9  CE1      -16.1150   14.1140  -28.8850 C.ar   78  TYR78       0.0417
     10  CE2      -15.8020   12.4080  -30.5340 C.ar   78  TYR78       0.0417
     11  CZ       -16.5600   12.9720  -29.5270 C.ar   78  TYR78       0.1957
     12  OH       -17.7350   12.3780  -29.1520 O.3    78  TYR78      -0.2866
     13  N        -11.0710   12.4010  -29.8560 N.am   79  HIS79      -0.1975
     14  CA       -11.0160   10.9920  -29.4490 C.3    79  HIS79       0.1656
     15  C         -9.8580   10.7890  -28.4750 C.2    79  HIS79       0.2291
     16  O         -8.8660   10.1270  -28.7930 O.2    79  HIS79      -0.2864
     17  CB       -10.9300   10.0680  -30.6680 C.3    79  HIS79       0.0771
     18  CG       -12.1720   10.0310  -31.5000 C.ar   79  HIS79       0.0820
     19  ND1      -12.2230   10.6330  -32.7370 N.ar   79  HIS79      -0.2267
     20  CD2      -13.3770    9.4680  -31.2360 C.ar   79  HIS79       0.1154
     21  CE1      -13.4540   10.4470  -33.1800 C.ar   79  HIS79       0.1986
     22  NE2      -14.1840    9.7390  -32.3100 N.ar   79  HIS79      -0.2212
     23  N        -19.9850    3.4810  -36.2400 N.3   189  LEU189     -0.1245
     24  CA       -21.2770    4.0570  -36.6600 C.3   189  LEU189      0.1561
     25  C        -21.8940    3.4530  -37.9410 C.2   189  LEU189      0.2260
     26  O        -23.1000    3.5590  -38.1560 O.2   189  LEU189     -0.2867
     27  CB       -21.1920    5.5610  -36.8100 C.3   189  LEU189      0.0270
     28  CG       -21.6840    6.4160  -35.6530 C.3   189  LEU189      0.0019
     29  CD1      -21.5820    7.8650  -36.0130 C.3   189  LEU189      0.0001
     30  CD2      -23.1470    6.0960  -35.2990 C.3   189  LEU189      0.0001
     31  N        -21.5300    6.6030  -26.9270 N.3   228  ASP228     -0.1225
     32  CA       -20.5230    7.2010  -27.8250 C.3   228  ASP228      0.1805
     33  C        -20.9390    8.5770  -28.3340 C.2   228  ASP228      0.2597
     34  O        -20.1020    9.4500  -28.5070 O.2   228  ASP228     -0.2718
     35  CB       -20.2200    6.2670  -29.0070 C.3   228  ASP228      0.1424
     36  CG       -18.8580    6.4970  -29.6790 C.2   228  ASP228      0.3668
     37  OD1      -18.0430    7.2570  -29.1340 O.co2 228  ASP228     -0.2456
     38  OD2      -18.6180    5.9050  -30.7340 O.co2 228  ASP228     -0.2456
     39  N        -22.2440    8.7970  -28.5010 N.am  229  LEU229     -0.1979
     40  CA       -22.7500   10.0600  -29.0130 C.3   229  LEU229      0.1596
     41  C        -23.3280   10.9880  -27.9340 C.2   229  LEU229      0.2287
     42  O        -23.8580   12.0320  -28.2840 O.2   229  LEU229     -0.2864
     43  CB       -23.8540    9.7480  -30.0550 C.3   229  LEU229      0.0297
     44  CG       -23.4670    8.8710  -31.2590 C.3   229  LEU229      0.0022
     45  CD1      -24.6460    8.7270  -32.2200 C.3   229  LEU229      0.0001
     46  CD2      -22.2680    9.4170  -31.9910 C.3   229  LEU229      0.0001
     47  N        -22.6030   13.3430  -26.2110 N.3   231  SER231     -0.1202
     48  CA       -22.3440   14.8030  -26.2160 C.3   231  SER231      0.2020
     49  C        -23.5910   15.5720  -26.6450 C.2   231  SER231      0.2618
     50  O        -23.7860   16.7060  -26.1950 O.2   231  SER231     -0.2717
     51  CB       -21.1720   15.1590  -27.1230 C.3   231  SER231      0.2103
     52  OG       -21.5140   15.2830  -28.4960 O.3   231  SER231     -0.2182
     53  N        -24.4730   14.9250  -27.4630 N.am  232  VAL232     -0.1979
     54  CA       -25.7360   15.5230  -27.9470 C.3   232  VAL232      0.1595
     55  C        -26.8590   15.4810  -26.8860 C.2   232  VAL232      0.2287
     56  O        -27.9640   15.9870  -27.1320 O.2   232  VAL232     -0.2864
     57  CB       -26.2020   14.9340  -29.3190 C.3   232  VAL232      0.0276
     58  CG1      -25.1160   15.0850  -30.3840 C.3   232  VAL232      0.0022
     59  CG2      -26.6540   13.4850  -29.1960 C.3   232  VAL232      0.0022
     60  N        -22.8860   20.6780  -25.1010 N.3   239  THR239     -0.1218
     61  CA       -23.1240   20.0570  -26.4150 C.3   239  THR239      0.1862
     62  C        -22.3900   20.8530  -27.5000 C.2   239  THR239      0.2287
     63  O        -21.6460   20.2740  -28.3060 O.2   239  THR239     -0.2866
     64  CB       -24.6270   19.9660  -26.6550 C.3   239  THR239      0.1770
     65  OG1      -25.1350   19.0080  -25.7390 O.3   239  THR239     -0.2211
     66  CG2      -24.9760   19.5560  -28.0950 C.3   239  THR239      0.0375
     67  N        -18.9910   19.8510  -29.7550 N.3   243  ALA243     -0.1245
     68  CA       -19.1440   19.9190  -31.2250 C.3   243  ALA243      0.1562
     69  C        -17.9490   20.6410  -31.8270 C.2   243  ALA243      0.2260
     70  O        -17.4190   20.1870  -32.8270 O.2   243  ALA243     -0.2867
     71  CB       -20.4390   20.6210  -31.6020 C.3   243  ALA243      0.0290
     72  N        -15.1330   18.0550  -31.8160 N.3   246  ILE246     -0.1231
     73  CA       -15.4500   17.0570  -32.8510 C.3   246  ILE246      0.1692
     74  C        -15.0410   17.6380  -34.2310 C.2   246  ILE246      0.2592
     75  O        -14.3500   16.9730  -34.9970 O.2   246  ILE246     -0.2718
     76  CB       -16.9990   16.7650  -32.8010 C.3   246  ILE246      0.0266
     77  CG1      -17.3770   15.9160  -31.5530 C.3   246  ILE246      0.0019
     78  CG2      -17.4860   16.0910  -34.0570 C.3   246  ILE246      0.0020
     79  CD1      -18.8480   15.8770  -31.1580 C.3   246  ILE246      0.0001
     80  N        -15.4760   18.8820  -34.5320 N.am  247  TYR247     -0.1976
     81  CA       -15.1730   19.4990  -35.8200 C.3   247  TYR247      0.1639
     82  C        -13.6960   19.8510  -35.9480 C.2   247  TYR247      0.2290
     83  O        -13.1640   19.7400  -37.0440 O.2   247  TYR247     -0.2864
     84  CB       -16.1050   20.6950  -36.1100 C.3   247  TYR247      0.0560
     85  CG       -17.4350   20.2360  -36.6790 C.ar  247  TYR247     -0.0198
     86  CD1      -18.4380   19.7630  -35.8470 C.ar  247  TYR247     -0.0009
     87  CD2      -17.6220   20.1130  -38.0550 C.ar  247  TYR247     -0.0009
     88  CE1      -19.6350   19.2690  -36.3550 C.ar  247  TYR247      0.0417
     89  CE2      -18.8210   19.6200  -38.5790 C.ar  247  TYR247      0.0417
     90  CZ       -19.8340   19.2210  -37.7190 C.ar  247  TYR247      0.1957
     91  OH       -21.0370   18.7460  -38.1650 O.3   247  TYR247     -0.2866
     92  N        -12.2080   16.6900  -37.3110 N.3   250  PHE250     -0.1241
     93  CA       -12.6330   16.4920  -38.7050 C.3   250  PHE250      0.1605
     94  C        -11.8530   17.4450  -39.6030 C.2   250  PHE250      0.2264
     95  O        -11.3680   17.0250  -40.6450 O.2   250  PHE250     -0.2867
     96  CB       -14.1440   16.7860  -38.8800 C.3   250  PHE250      0.0534
     97  CG       -15.1490   15.8580  -38.2360 C.ar  250  PHE250     -0.0203
     98  CD1      -14.8230   14.5350  -37.9540 C.ar  250  PHE250     -0.0042
     99  CD2      -16.4430   16.2960  -37.9610 C.ar  250  PHE250     -0.0042
    100  CE1      -15.7460   13.6850  -37.3460 C.ar  250  PHE250     -0.0003
    101  CE2      -17.3800   15.4350  -37.3970 C.ar  250  PHE250     -0.0003
    102  CZ       -17.0260   14.1340  -37.0930 C.ar  250  PHE250     -0.0000
    103  N        -17.9940   18.3940  -44.5580 N.3   267  MET267     -0.1245
    104  CA       -17.9320   18.2530  -43.0960 C.3   267  MET267      0.1570
    105  C        -16.4670   18.2960  -42.5410 C.2   267  MET267      0.2261
    106  O        -16.2340   18.7880  -41.4330 O.2   267  MET267     -0.2867
    107  CB       -18.6430   16.9630  -42.6700 C.3   267  MET267      0.0387
    108  CG       -18.7470   16.8120  -41.1840 C.3   267  MET267      0.0595
    109  SD       -19.2030   15.1580  -40.7330 S.3   267  MET267     -0.1393
    110  CE       -17.6060   14.3360  -40.8420 C.3   267  MET267      0.0692
    111  N        -25.5300   20.4720  -41.2760 N.3   279  GLY279     -0.1210
    112  CA       -24.9570   19.1320  -41.1140 C.3   279  GLY279      0.1956
    113  C        -25.3150   18.5190  -39.7670 C.2   279  GLY279      0.2611
    114  O        -25.6190   17.3340  -39.6900 O.2   279  GLY279     -0.2717
    115  N        -25.3150   19.3270  -38.6970 N.am  280  GLN280     -0.1979
    116  CA       -25.7560   18.8900  -37.3640 C.3   280  GLN280      0.1601
    117  C        -27.2220   18.4620  -37.4230 C.2   280  GLN280      0.2287
    118  O        -27.5500   17.3630  -36.9800 O.2   280  GLN280     -0.2864
    119  CB       -25.5480   19.9910  -36.3300 C.3   280  GLN280      0.0394
    120  CG       -24.1050   20.1030  -35.8920 C.3   280  GLN280      0.0908
    121  CD       -23.6610   18.8580  -35.1850 C.2   280  GLN280      0.2608
    122  OE1      -24.0810   18.5870  -34.0650 O.2   280  GLN280     -0.2717
    123  NE2      -22.8140   18.0600  -35.8280 N.am  280  GLN280     -0.0878
    124  N        -27.4150   15.2110  -38.8820 N.3   283  PHE283     -0.1227
    125  CA       -26.8590   14.2020  -37.9740 C.3   283  PHE283      0.1736
    126  C        -27.8600   13.8360  -36.8940 C.2   283  PHE283      0.2595
    127  O        -28.0090   12.6620  -36.5930 O.2   283  PHE283     -0.2718
    128  CB       -25.5060   14.6580  -37.3940 C.3   283  PHE283      0.0547
    129  CG       -24.9010   13.6200  -36.4930 C.ar  283  PHE283     -0.0202
    130  CD1      -24.2270   12.5230  -37.0230 C.ar  283  PHE283     -0.0042
    131  CD2      -25.0370   13.7120  -35.1100 C.ar  283  PHE283     -0.0042
    132  CE1      -23.7230   11.5200  -36.1850 C.ar  283  PHE283     -0.0003
    133  CE2      -24.5050   12.7220  -34.2770 C.ar  283  PHE283     -0.0003
    134  CZ       -23.8560   11.6360  -34.8220 C.ar  283  PHE283     -0.0000
    135  N        -28.5680   14.8350  -36.3260 N.am  284  TYR284     -0.1976
    136  CA       -29.5810   14.5880  -35.2950 C.3   284  TYR284      0.1639
    137  C        -30.7740   13.8290  -35.8870 C.2   284  TYR284      0.2290
    138  O        -31.2080   12.8330  -35.3110 O.2   284  TYR284     -0.2864
    139  CB       -30.0490   15.9120  -34.6840 C.3   284  TYR284      0.0560
    140  CG       -29.1620   16.4460  -33.5730 C.ar  284  TYR284     -0.0198
    141  CD1      -27.9040   16.9730  -33.8490 C.ar  284  TYR284     -0.0009
    142  CD2      -29.6070   16.4790  -32.2550 C.ar  284  TYR284     -0.0009
    143  CE1      -27.1060   17.5100  -32.8410 C.ar  284  TYR284      0.0417
    144  CE2      -28.8310   17.0510  -31.2430 C.ar  284  TYR284      0.0417
    145  CZ       -27.5700   17.5370  -31.5380 C.ar  284  TYR284      0.1957
    146  OH       -26.7860   18.0790  -30.5460 O.3   284  TYR284     -0.2866
@<TRIPOS>BOND
     1   103   104    1
     2   104   107    1
     3   104   105    1
     4   107   108    1
     5   105   106    2
     6   111   112    1
     7   108   109    1
     8   112   113    1
     9   110   109    1
    10    95    94    2
    11   113   114    2
    12   113   115   am
    13    94    93    1
    14   124   125    1
    15    96    93    1
    16    96    97    1
    17    93    92    1
    18   115   116    1
    19    89    87   ar
    20    89    90   ar
    21    97    99   ar
    22    97    98   ar
    23    91    90    1
    24    26    25    2
    25    87    85   ar
    26   125   128    1
    27   125   126    1
    28    99   101   ar
    29    98   100   ar
    30    25    24    1
    31    90    88   ar
    32   117   116    1
    33   117   118    2
    34   101   102   ar
    35   128   129    1
    36   116   119    1
    37   100   102   ar
    38    83    82    2
    39   130   129   ar
    40   130   132   ar
    41   126   127    2
    42   126   135   am
    43    27    24    1
    44    27    28    1
    45    85    84    1
    46    85    86   ar
    47    24    23    1
    48   129   131   ar
    49    88    86   ar
    50   119   120    1
    51   135   136    1
    52   132   134   ar
    53    84    81    1
    54    29    28    1
    55    82    81    1
    56   120   121    1
    57   137   138    2
    58   137   136    1
    59   123   121   am
    60    81    80    1
    61    28    30    1
    62   136   139    1
    63   121   122    2
    64   131   133   ar
    65    75    74    2
    66   134   133   ar
    67   139   140    1
    68    80    74   am
    69    74    73    1
    70    78    76    1
    71   141   140   ar
    72   141   143   ar
    73   140   142   ar
    74    21    19   ar
    75    21    22   ar
    76    73    76    1
    77    73    72    1
    78   143   145   ar
    79    70    69    2
    80    76    77    1
    81    19    18   ar
    82    22    20   ar
    83   142   144   ar
    84    45    44    1
    85    46    44    1
    86    69    68    1
    87    71    68    1
    88    77    79    1
    89   145   144   ar
    90   145   146    1
    91    18    20   ar
    92    18    17    1
    93    44    43    1
    94    68    67    1
    95     8    10   ar
    96     8     6   ar
    97     5     6    1
    98     5     2    1
    99    38    36   ar
   100    17    14    1
   101    10    11   ar
   102    58    57    1
   103     6     7   ar
   104     1     2    1
   105    43    40    1
   106    13    14    1
   107    13     3   am
   108    36    37   ar
   109    36    35    1
   110     2     3    1
   111    11    12    1
   112    11     9   ar
   113    14    15    1
   114    57    59    1
   115    57    54    1
   116     7     9   ar
   117     3     4    2
   118    40    39    1
   119    40    41    1
   120    35    32    1
   121    16    15    2
   122    34    33    2
   123    39    33   am
   124    52    51    1
   125    33    32    1
   126    63    62    2
   127    42    41    2
   128    66    64    1
   129    54    53    1
   130    54    55    1
   131    32    31    1
   132    62    61    1
   133    53    49   am
   134    56    55    2
   135    51    48    1
   136    64    61    1
   137    64    65    1
   138    49    48    1
   139    49    50    2
   140    61    60    1
   141    48    47    1
