@<TRIPOS>MOLECULE
tmp/6mscA00.pdb
 156 149 0 0 0
SMALL
GASTEIGER

@<TRIPOS>ATOM
      1  N        -10.6920   15.6000  -30.5330 N.3    77  TYR77      -0.1227
      2  CA       -11.9090   14.9950  -30.0060 C.3    77  TYR77       0.1736
      3  C        -11.7550   13.5950  -29.3860 C.2    77  TYR77       0.2595
      4  O        -12.2450   13.3770  -28.2640 O.2    77  TYR77      -0.2718
      5  CB       -13.0030   14.9740  -31.1000 C.3    77  TYR77       0.0548
      6  CG       -14.2690   14.2780  -30.6540 C.ar   77  TYR77      -0.0200
      7  CD1      -15.0760   14.8250  -29.6580 C.ar   77  TYR77      -0.0009
      8  CD2      -14.6390   13.0570  -31.1960 C.ar   77  TYR77      -0.0009
      9  CE1      -16.2290   14.1740  -29.2200 C.ar   77  TYR77       0.0417
     10  CE2      -15.7900   12.4000  -30.7680 C.ar   77  TYR77       0.0417
     11  CZ       -16.5840   12.9670  -29.7800 C.ar   77  TYR77       0.1957
     12  OH       -17.7420   12.3650  -29.3590 O.3    77  TYR77      -0.2866
     13  N        -11.1480   12.6540  -30.1370 N.am   78  HIS78      -0.1975
     14  CA       -10.9910   11.2430  -29.7600 C.3    78  HIS78       0.1656
     15  C         -9.8580   11.0320  -28.7280 C.2    78  HIS78       0.2291
     16  O         -8.9430   10.2270  -28.9060 O.2    78  HIS78      -0.2864
     17  CB       -10.8400   10.3880  -31.0220 C.3    78  HIS78       0.0771
     18  CG       -12.1350   10.1770  -31.7310 C.ar   78  HIS78       0.0820
     19  ND1      -12.4400   10.8560  -32.8940 N.ar   78  HIS78      -0.2267
     20  CD2      -13.1750    9.3750  -31.4050 C.ar   78  HIS78       0.1154
     21  CE1      -13.6400   10.4230  -33.2600 C.ar   78  HIS78       0.1986
     22  NE2      -14.1190    9.5220  -32.3970 N.ar   78  HIS78      -0.2212
     23  N        -13.0300   12.1920  -24.0240 N.3    82  HIS82      -0.1241
     24  CA       -14.0900   11.4630  -24.7160 C.3    82  HIS82       0.1621
     25  C        -14.2810   10.1050  -24.0380 C.2    82  HIS82       0.2264
     26  O        -15.4180    9.7350  -23.7670 O.2    82  HIS82      -0.2867
     27  CB       -13.7760   11.3210  -26.2070 C.3    82  HIS82       0.0745
     28  CG       -14.6830   10.3990  -26.9710 C.ar   82  HIS82       0.0817
     29  ND1      -16.0030   10.7160  -27.2020 N.ar   82  HIS82      -0.2268
     30  CD2      -14.4050    9.2340  -27.5930 C.ar   82  HIS82       0.1154
     31  CE1      -16.4810    9.7420  -27.9570 C.ar   82  HIS82       0.1986
     32  NE2      -15.5640    8.8200  -28.2010 N.ar   82  HIS82      -0.2212
     33  N        -11.9230    3.9710  -27.8120 N.3   117  ASP117     -0.1239
     34  CA       -11.2300    4.7790  -28.8490 C.3   117  ASP117      0.1674
     35  C         -9.7100    4.8550  -28.6310 C.2   117  ASP117      0.2266
     36  O         -9.0630    5.7980  -29.0880 O.2   117  ASP117     -0.2867
     37  CB       -11.8410    6.1910  -28.9560 C.3   117  ASP117      0.1410
     38  CG       -13.0210    6.3260  -29.9070 C.2   117  ASP117      0.3668
     39  OD1      -13.0830    5.5720  -30.8960 O.co2 117  ASP117     -0.2456
     40  OD2      -13.8800    7.1880  -29.6600 O.co2 117  ASP117     -0.2456
     41  N        -11.5960    0.1840  -34.7040 N.3   145  GLU145     -0.1245
     42  CA       -12.2740   -0.5490  -33.6300 C.3   145  GLU145      0.1567
     43  C        -11.5660   -1.8650  -33.2810 C.2   145  GLU145      0.2260
     44  O        -11.4510   -2.1920  -32.1060 O.2   145  GLU145     -0.2867
     45  CB       -13.7790   -0.7540  -33.9280 C.3   145  GLU145      0.0388
     46  CG       -14.5740    0.5480  -34.0400 C.3   145  GLU145      0.1160
     47  CD       -14.3900    1.3590  -35.3160 C.2   145  GLU145      0.3649
     48  OE1      -14.1930    0.7460  -36.3880 O.co2 145  GLU145     -0.2457
     49  OE2      -14.4460    2.6070  -35.2490 O.co2 145  GLU145     -0.2457
     50  N        -19.0920    0.1240  -31.6250 N.3   186  THR186     -0.1218
     51  CA       -18.8320    1.5680  -31.6770 C.3   186  THR186      0.1862
     52  C        -18.4410    2.0600  -33.1160 C.2   186  THR186      0.2287
     53  O        -18.3150    3.2650  -33.3470 O.2   186  THR186     -0.2866
     54  CB       -17.8500    2.0220  -30.6060 C.3   186  THR186      0.1770
     55  OG1      -16.5390    1.5760  -30.9070 O.3   186  THR186     -0.2211
     56  CG2      -18.2830    1.7030  -29.1940 C.3   186  THR186      0.0375
     57  N        -19.6560    3.2240  -36.1650 N.3   188  LEU188     -0.1245
     58  CA       -20.9260    3.8020  -36.5860 C.3   188  LEU188      0.1561
     59  C        -21.5560    3.1350  -37.8200 C.2   188  LEU188      0.2260
     60  O        -22.7790    3.0920  -37.8860 O.2   188  LEU188     -0.2867
     61  CB       -20.8270    5.3200  -36.7800 C.3   188  LEU188      0.0270
     62  CG       -22.1580    6.0750  -36.6570 C.3   188  LEU188      0.0019
     63  CD1      -22.7640    5.9740  -35.2220 C.3   188  LEU188      0.0001
     64  CD2      -22.0120    7.5000  -37.0790 C.3   188  LEU188      0.0001
     65  N        -21.3980    6.5870  -26.9950 N.3   227  ASP227     -0.1225
     66  CA       -20.4660    7.2150  -27.9180 C.3   227  ASP227      0.1805
     67  C        -20.9650    8.5700  -28.4470 C.2   227  ASP227      0.2597
     68  O        -20.1660    9.4640  -28.6530 O.2   227  ASP227     -0.2718
     69  CB       -20.1790    6.2450  -29.0660 C.3   227  ASP227      0.1424
     70  CG       -18.8300    6.4160  -29.7490 C.2   227  ASP227      0.3668
     71  OD1      -17.9660    7.1440  -29.1940 O.co2 227  ASP227     -0.2456
     72  OD2      -18.6310    5.8060  -30.8290 O.co2 227  ASP227     -0.2456
     73  N        -22.2780    8.7510  -28.5830 N.am  228  LEU228     -0.1979
     74  CA       -22.8610   10.0020  -29.0840 C.3   228  LEU228      0.1596
     75  C        -23.3370   10.9850  -28.0140 C.2   228  LEU228      0.2287
     76  O        -23.7640   12.0710  -28.3830 O.2   228  LEU228     -0.2864
     77  CB       -24.0410    9.7070  -30.0480 C.3   228  LEU228      0.0297
     78  CG       -23.7880    8.7430  -31.2280 C.3   228  LEU228      0.0022
     79  CD1      -25.0610    8.4790  -31.9880 C.3   228  LEU228      0.0001
     80  CD2      -22.6870    9.2390  -32.1560 C.3   228  LEU228      0.0001
     81  N        -22.4240   13.3190  -26.2600 N.3   230  SER230     -0.1202
     82  CA       -22.1170   14.7460  -26.3090 C.3   230  SER230      0.2020
     83  C        -23.3340   15.5240  -26.8410 C.2   230  SER230      0.2618
     84  O        -23.4920   16.6810  -26.4680 O.2   230  SER230     -0.2717
     85  CB       -20.8900   15.0050  -27.1790 C.3   230  SER230      0.2103
     86  OG       -21.2170   15.1860  -28.5500 O.3   230  SER230     -0.2182
     87  N        -24.2200   14.8720  -27.6690 N.am  231  VAL231     -0.1979
     88  CA       -25.4580   15.4750  -28.2420 C.3   231  VAL231      0.1595
     89  C        -26.5880   15.5590  -27.1940 C.2   231  VAL231      0.2287
     90  O        -27.6440   16.1140  -27.4700 O.2   231  VAL231     -0.2864
     91  CB       -25.9530   14.8020  -29.5610 C.3   231  VAL231      0.0276
     92  CG1      -24.8660   14.7710  -30.6310 C.3   231  VAL231      0.0022
     93  CG2      -26.5400   13.4220  -29.3130 C.3   231  VAL231      0.0022
     94  N        -15.0860   17.9990  -32.6220 N.3   245  ILE245     -0.1231
     95  CA       -15.3960   16.9500  -33.6170 C.3   245  ILE245      0.1692
     96  C        -15.0170   17.4880  -35.0110 C.2   245  ILE245      0.2592
     97  O        -14.2500   16.8410  -35.7280 O.2   245  ILE245     -0.2718
     98  CB       -16.8950   16.5180  -33.5380 C.3   245  ILE245      0.0266
     99  CG1      -17.2120   15.8060  -32.2110 C.3   245  ILE245      0.0019
    100  CG2      -17.3020   15.6310  -34.6980 C.3   245  ILE245      0.0020
    101  CD1      -18.6310   16.0380  -31.6410 C.3   245  ILE245      0.0001
    102  N        -15.5170   18.6930  -35.3740 N.am  246  TYR246     -0.1976
    103  CA       -15.2170   19.2770  -36.6820 C.3   246  TYR246      0.1639
    104  C        -13.7270   19.6380  -36.8700 C.2   246  TYR246      0.2290
    105  O        -13.2320   19.4410  -37.9680 O.2   246  TYR246     -0.2864
    106  CB       -16.1520   20.4510  -37.0090 C.3   246  TYR246      0.0560
    107  CG       -17.4840   19.9370  -37.5110 C.ar  246  TYR246     -0.0198
    108  CD1      -17.6510   19.5640  -38.8410 C.ar  246  TYR246     -0.0009
    109  CD2      -18.5590   19.7570  -36.6430 C.ar  246  TYR246     -0.0009
    110  CE1      -18.8560   19.0300  -39.2980 C.ar  246  TYR246      0.0417
    111  CE2      -19.7760   19.2420  -37.0950 C.ar  246  TYR246      0.0417
    112  CZ       -19.9180   18.8720  -38.4240 C.ar  246  TYR246      0.1957
    113  OH       -21.1160   18.3790  -38.8880 O.3   246  TYR246     -0.2866
    114  N        -12.2830   16.5480  -38.1170 N.3   249  PHE249     -0.1241
    115  CA       -12.7600   16.2800  -39.4910 C.3   249  PHE249      0.1605
    116  C        -11.9810   17.1410  -40.4930 C.2   249  PHE249      0.2264
    117  O        -11.5370   16.6450  -41.5270 O.2   249  PHE249     -0.2867
    118  CB       -14.2490   16.6580  -39.6080 C.3   249  PHE249      0.0534
    119  CG       -15.2650   15.7550  -38.9590 C.ar  249  PHE249     -0.0203
    120  CD1      -14.9350   14.4570  -38.5940 C.ar  249  PHE249     -0.0042
    121  CD2      -16.5710   16.1840  -38.7670 C.ar  249  PHE249     -0.0042
    122  CE1      -15.8890   13.6120  -38.0300 C.ar  249  PHE249     -0.0003
    123  CE2      -17.5250   15.3430  -38.2040 C.ar  249  PHE249     -0.0003
    124  CZ       -17.1790   14.0590  -37.8400 C.ar  249  PHE249     -0.0000
    125  N        -18.1990   17.7580  -45.1150 N.3   266  MET266     -0.1245
    126  CA       -18.0830   17.5470  -43.6730 C.3   266  MET266      0.1570
    127  C        -16.6270   17.7140  -43.1960 C.2   266  MET266      0.2261
    128  O        -16.3870   18.1830  -42.0790 O.2   266  MET266     -0.2867
    129  CB       -18.5900   16.1350  -43.3700 C.3   266  MET266      0.0387
    130  CG       -18.7710   15.8370  -41.9370 C.3   266  MET266      0.0595
    131  SD       -19.2160   14.1040  -41.7710 S.3   266  MET266     -0.1393
    132  CE       -17.6030   13.3690  -41.7300 C.3   266  MET266      0.0692
    133  N        -25.6020   20.0470  -41.5080 N.3   278  GLY278     -0.1210
    134  CA       -24.9800   18.7380  -41.3100 C.3   278  GLY278      0.1956
    135  C        -25.3510   18.1460  -39.9600 C.2   278  GLY278      0.2611
    136  O        -25.6910   16.9660  -39.8840 O.2   278  GLY278     -0.2717
    137  N        -25.3520   18.9710  -38.8950 N.am  279  GLN279     -0.1979
    138  CA       -25.7520   18.5330  -37.5550 C.3   279  GLN279      0.1601
    139  C        -27.2180   18.1400  -37.5090 C.2   279  GLN279      0.2287
    140  O        -27.5410   17.0800  -36.9720 O.2   279  GLN279     -0.2864
    141  CB       -25.4080   19.5740  -36.4800 C.3   279  GLN279      0.0394
    142  CG       -23.9140   19.6070  -36.1050 C.3   279  GLN279      0.0908
    143  CD       -23.3910   18.2700  -35.6230 C.2   279  GLN279      0.2608
    144  OE1      -22.8430   17.4700  -36.4010 O.2   279  GLN279     -0.2717
    145  NE2      -23.6130   17.9620  -34.3560 N.am  279  GLN279     -0.0878
    146  N        -27.5540   14.7260  -39.0910 N.3   282  PHE282     -0.1241
    147  CA       -26.9940   13.7100  -38.1980 C.3   282  PHE282      0.1605
    148  C        -27.9840   13.4190  -37.0510 C.2   282  PHE282      0.2264
    149  O        -28.2140   12.2540  -36.7420 O.2   282  PHE282     -0.2867
    150  CB       -25.6080   14.1430  -37.6530 C.3   282  PHE282      0.0534
    151  CG       -24.9310   13.1450  -36.7340 C.ar  282  PHE282     -0.0203
    152  CD1      -24.2720   12.0390  -37.2500 C.ar  282  PHE282     -0.0042
    153  CD2      -24.9920   13.2880  -35.3510 C.ar  282  PHE282     -0.0042
    154  CE1      -23.6770   11.0980  -36.4020 C.ar  282  PHE282     -0.0003
    155  CE2      -24.4020   12.3460  -34.5070 C.ar  282  PHE282     -0.0003
    156  CZ       -23.7330   11.2640  -35.0390 C.ar  282  PHE282     -0.0000
@<TRIPOS>BOND
     1   125   126    1
     2   126   129    1
     3   126   127    1
     4   129   130    1
     5   127   128    2
     6   130   131    1
     7   131   132    1
     8   117   116    2
     9   133   134    1
    10   134   135    1
    11   116   115    1
    12   135   136    2
    13   135   137   am
    14   118   115    1
    15   118   119    1
    16   115   114    1
    17   110   108   ar
    18   110   112   ar
    19   146   147    1
    20   119   121   ar
    21   119   120   ar
    22   137   138    1
    23   113   112    1
    24   108   107   ar
    25   121   123   ar
    26   120   122   ar
    27   112   111   ar
    28   123   124   ar
    29   147   150    1
    30   147   148    1
    31   122   124   ar
    32   105   104    2
    33    60    59    2
    34    59    58    1
    35   150   151    1
    36   138   139    1
    37   138   141    1
    38   107   106    1
    39   107   109   ar
    40   139   140    2
    41   152   151   ar
    42   152   154   ar
    43   111   109   ar
    44    64    62    1
    45   148   149    2
    46   106   103    1
    47   104   103    1
    48    61    62    1
    49    61    58    1
    50   151   153   ar
    51   103   102    1
    52    62    63    1
    53    58    57    1
    54   141   142    1
    55   154   156   ar
    56   144   143    2
    57    48    47   ar
    58   142   143    1
    59    97    96    2
    60   143   145   am
    61   102    96   am
    62   153   155   ar
    63    47    49   ar
    64    47    46    1
    65   156   155   ar
    66    96    95    1
    67    41    42    1
    68   100    98    1
    69    46    45    1
    70    45    42    1
    71    42    43    1
    72    95    98    1
    73    95    94    1
    74    98    99    1
    75    53    52    2
    76    43    44    2
    77    21    19   ar
    78    21    22   ar
    79    52    51    1
    80    19    18   ar
    81    22    20   ar
    82    99   101    1
    83    80    78    1
    84    79    78    1
    85    18    20   ar
    86    18    17    1
    87    51    50    1
    88    51    54    1
    89    78    77    1
    90     8    10   ar
    91     8     6   ar
    92     5     6    1
    93     5     2    1
    94    17    14    1
    95    55    54    1
    96    39    38   ar
    97    72    70   ar
    98    10    11   ar
    99     6     7   ar
   100    92    91    1
   101    54    56    1
   102     1     2    1
   103    13    14    1
   104    13     3   am
   105    77    74    1
   106     2     3    1
   107    38    40   ar
   108    38    37    1
   109    11    12    1
   110    11     9   ar
   111    14    15    1
   112    70    71   ar
   113    70    69    1
   114     7     9   ar
   115    91    93    1
   116    91    88    1
   117     3     4    2
   118    36    35    2
   119    74    73    1
   120    74    75    1
   121    69    66    1
   122    37    34    1
   123    16    15    2
   124    34    35    1
   125    34    33    1
   126    68    67    2
   127    73    67   am
   128    86    85    1
   129    67    66    1
   130    76    75    2
   131    88    87    1
   132    88    89    1
   133    32    31   ar
   134    32    30   ar
   135    31    29   ar
   136    66    65    1
   137    87    83   am
   138    30    28   ar
   139    90    89    2
   140    29    28   ar
   141    85    82    1
   142    28    27    1
   143    83    84    2
   144    83    82    1
   145    82    81    1
   146    27    24    1
   147    24    25    1
   148    24    23    1
   149    25    26    2
