@<TRIPOS>MOLECULE
tmp/6msdP00.pdb
 128 121 0 0 0
SMALL
GASTEIGER

@<TRIPOS>ATOM
      1  N        256.9470  198.7790  233.2570 N.3   128  ASP128     -0.1225
      2  CA       256.3030  200.0840  233.1880 C.3   128  ASP128      0.1805
      3  C        255.0710  200.0670  232.3030 C.2   128  ASP128      0.2598
      4  O        254.0420  200.6340  232.6780 O.2   128  ASP128     -0.2718
      5  CB       257.2900  201.1240  232.6690 C.3   128  ASP128      0.1424
      6  CG       258.3970  201.4040  233.6490 C.2   128  ASP128      0.3668
      7  OD1      258.1420  201.3050  234.8660 O.co2 128  ASP128     -0.2456
      8  OD2      259.5240  201.7120  233.2090 O.co2 128  ASP128     -0.2456
      9  N        255.1550  199.4160  231.1460 N.am  129  ILE129     -0.1966
     10  CA       254.0640  199.3750  230.1830 C.3   129  ILE129      0.1727
     11  C        253.0120  198.4220  230.7350 C.2   129  ILE129      0.2616
     12  O        253.1880  197.2050  230.7100 O.2   129  ILE129     -0.2715
     13  CB       254.5490  198.9320  228.8060 C.3   129  ILE129      0.0290
     14  CG1      255.6270  199.8800  228.2980 C.3   129  ILE129      0.0022
     15  CG2      253.3980  198.8990  227.8560 C.3   129  ILE129      0.0023
     16  CD1      256.3530  199.3640  227.0850 C.3   129  ILE129      0.0001
     17  N        251.9110  198.9720  231.2380 N.am  130  GLY130     -0.1955
     18  CA       250.8650  198.1760  231.8430 C.3   130  GLY130      0.1869
     19  C        249.7900  197.8200  230.8340 C.2   130  GLY130      0.2309
     20  O        249.2640  198.6890  230.1390 O.2   130  GLY130     -0.2863
     21  N        249.4590  195.3460  228.0150 N.3   132  MET132     -0.1245
     22  CA       249.6820  195.2400  226.5820 C.3   132  MET132      0.1570
     23  C        250.1010  193.8170  226.2520 C.2   132  MET132      0.2261
     24  O        251.0810  193.5620  225.5510 O.2   132  MET132     -0.2867
     25  CB       250.6980  196.2910  226.1510 C.3   132  MET132      0.0387
     26  CG       250.6740  196.6330  224.6830 C.3   132  MET132      0.0595
     27  SD       251.8910  197.8870  224.2650 S.3   132  MET132     -0.1393
     28  CE       251.1110  199.3180  224.9920 C.3   132  MET132      0.0692
     29  N        247.3010  207.8140  217.8080 N.3   170  PRO170     -0.2102
     30  CA       248.4280  208.3670  218.5660 C.3   170  PRO170      0.1504
     31  C        248.2200  208.2400  220.0630 C.2   170  PRO170      0.2576
     32  O        247.1160  208.4230  220.5750 O.2   170  PRO170     -0.2718
     33  CB       248.4580  209.8330  218.1330 C.3   170  PRO170      0.0282
     34  CG       247.0670  210.1270  217.7440 C.3   170  PRO170      0.0208
     35  CD       246.5390  208.8740  217.1270 C.3   170  PRO170      0.0893
     36  N        249.3020  207.9230  220.7630 N.am  171  GLY171     -0.1943
     37  CA       249.2390  207.7350  222.1950 C.3   171  GLY171      0.2014
     38  C        248.7910  206.3520  222.5920 C.2   171  GLY171      0.2639
     39  O        247.8440  206.1930  223.3640 O.2   171  GLY171     -0.2714
     40  N        249.4670  205.3380  222.0650 N.am  172  CYS172     -0.1953
     41  CA       249.1710  203.9590  222.4200 C.3   172  CYS172      0.1843
     42  C        250.4440  203.1830  222.7060 C.2   172  CYS172      0.2626
     43  O        250.4630  201.9600  222.5640 O.2   172  CYS172     -0.2714
     44  CB       248.3770  203.2690  221.3160 C.3   172  CYS172      0.0997
     45  SG       246.7450  203.9630  221.0540 S.3   172  CYS172     -0.0797
     46  N        251.5090  203.8700  223.0880 N.am  173  GLY173     -0.1940
     47  CA       252.7450  203.1960  223.3950 C.3   173  GLY173      0.2014
     48  C        253.5420  202.7470  222.1990 C.2   173  GLY173      0.2639
     49  O        254.2970  201.7750  222.3090 O.2   173  GLY173     -0.2714
     50  N        253.3890  203.4070  221.0510 N.am  174  LYS174     -0.1963
     51  CA       254.1950  203.0460  219.8910 C.3   174  LYS174      0.1728
     52  C        255.6550  203.3920  220.1240 C.2   174  LYS174      0.2617
     53  O        256.5340  202.5360  220.0000 O.2   174  LYS174     -0.2715
     54  CB       253.6670  203.7330  218.6330 C.3   174  LYS174      0.0311
     55  CG       252.3280  203.2120  218.1700 C.3   174  LYS174      0.0038
     56  CD       251.8960  203.8380  216.8570 C.3   174  LYS174      0.0206
     57  CE       250.9160  204.9700  217.0740 C.3   174  LYS174      0.1093
     58  NZ       251.5720  206.1890  217.5990 N.3   174  LYS174     -0.1314
     59  N        255.9290  204.6420  220.4820 N.am  175  THR175     -0.1937
     60  CA       257.2980  205.0350  220.7690 C.3   175  THR175      0.2028
     61  C        257.7730  204.4130  222.0770 C.2   175  THR175      0.2642
     62  O        258.9600  204.1010  222.2200 O.2   175  THR175     -0.2714
     63  CB       257.3780  206.5610  220.8150 C.3   175  THR175      0.1808
     64  OG1      256.7640  207.1010  219.6380 O.3   175  THR175     -0.2208
     65  CG2      258.8110  207.0240  220.8340 C.3   175  THR175      0.0379
     66  N        256.8470  204.1620  223.0060 N.am  176  MET176     -0.1976
     67  CA       257.2070  203.6400  224.3210 C.3   176  MET176      0.1605
     68  C        257.6750  202.1970  224.2550 C.2   176  MET176      0.2287
     69  O        258.6780  201.8420  224.8840 O.2   176  MET176     -0.2864
     70  CB       256.0270  203.7690  225.2820 C.3   176  MET176      0.0413
     71  CG       256.2620  203.1390  226.6350 C.3   176  MET176      0.0598
     72  SD       254.9530  203.4890  227.7970 S.3   176  MET176     -0.1393
     73  CE       255.4360  205.1560  228.1860 C.3   176  MET176      0.0692
     74  N        251.7910  206.5870  212.1940 N.3   274  ASN274     -0.1240
     75  CA       250.5480  207.0340  212.7940 C.3   274  ASN274      0.1653
     76  C        249.3660  206.9050  211.8550 C.2   274  ASN274      0.2266
     77  O        248.2530  206.6550  212.3130 O.2   274  ASN274     -0.2867
     78  CB       250.6780  208.4950  213.2250 C.3   274  ASN274      0.1155
     79  CG       249.8170  208.8350  214.4070 C.2   274  ASN274      0.2627
     80  OD1      249.9880  209.8870  215.0110 O.2   274  ASN274     -0.2716
     81  ND2      248.9130  207.9410  214.7720 N.am  274  ASN274     -0.0877
     82  N        242.7970  201.1240  224.2010 N.3   298  PRO298     -0.2116
     83  CA       242.3020  200.2980  225.3050 C.3   298  PRO298      0.1372
     84  C        240.9330  200.7620  225.7560 C.2   298  PRO298      0.2244
     85  O        240.6260  201.9540  225.7470 O.2   298  PRO298     -0.2868
     86  CB       243.3410  200.5180  226.4070 C.3   298  PRO298      0.0268
     87  CG       244.5460  201.0030  225.7060 C.3   298  PRO298      0.0207
     88  CD       244.0430  201.8150  224.5590 C.3   298  PRO298      0.0892
     89  N        246.4280  200.0960  233.3830 N.3   306  ILE306     -0.1245
     90  CA       247.2330  201.2970  233.1990 C.3   306  ILE306      0.1561
     91  C        247.1510  202.1870  234.4280 C.2   306  ILE306      0.2260
     92  O        248.1520  202.7940  234.8310 O.2   306  ILE306     -0.2867
     93  CB       246.7910  202.0170  231.9130 C.3   306  ILE306      0.0252
     94  CG1      247.0910  201.1350  230.7070 C.3   306  ILE306      0.0019
     95  CG2      247.5070  203.3330  231.7300 C.3   306  ILE306      0.0019
     96  CD1      246.5060  201.6380  229.4200 C.3   306  ILE306      0.0001
     97  N        249.7020  200.7550  237.1120 N.3   309  THR309     -0.1203
     98  CA       251.1320  200.9720  236.9560 C.3   309  THR309      0.1994
     99  C        251.5060  202.4390  237.1040 C.2   309  THR309      0.2617
    100  O        252.5980  202.7520  237.5890 O.2   309  THR309     -0.2717
    101  CB       251.5920  200.4440  235.6050 C.3   309  THR309      0.1784
    102  OG1      250.9020  201.1450  234.5680 O.3   309  THR309     -0.2211
    103  CG2      251.2760  198.9730  235.4930 C.3   309  THR309      0.0376
    104  N        250.6290  203.3510  236.6860 N.am  310  ILE310     -0.1979
    105  CA       250.9380  204.7710  236.8130 C.3   310  ILE310      0.1595
    106  C        250.8460  205.2110  238.2660 C.2   310  ILE310      0.2287
    107  O        251.7690  205.8360  238.8000 O.2   310  ILE310     -0.2864
    108  CB       250.0170  205.6070  235.9090 C.3   310  ILE310      0.0276
    109  CG1      250.2490  205.2650  234.4410 C.3   310  ILE310      0.0022
    110  CG2      250.2550  207.0850  236.1370 C.3   310  ILE310      0.0022
    111  CD1      251.6380  205.5830  233.9590 C.3   310  ILE310      0.0001
    112  N        245.9830  205.9390  226.1530 N.3   334  GLY334     -0.1210
    113  CA       246.9460  205.5980  227.1740 C.3   334  GLY334      0.1956
    114  C        247.8240  206.7870  227.4810 C.2   334  GLY334      0.2611
    115  O        248.5460  206.8060  228.4780 O.2   334  GLY334     -0.2717
    116  N        247.7580  207.7950  226.6220 N.am  335  ALA335     -0.1979
    117  CA       248.5970  208.9700  226.7750 C.3   335  ALA335      0.1597
    118  C        247.9820  210.0150  227.6780 C.2   335  ALA335      0.2287
    119  O        248.6420  211.0100  227.9920 O.2   335  ALA335     -0.2864
    120  CB       248.8820  209.6000  225.4130 C.3   335  ALA335      0.0319
    121  N        248.1160  208.8970  231.9580 N.3   338  ASN338     -0.1240
    122  CA       249.2770  209.5650  232.5260 C.3   338  ASN338      0.1653
    123  C        248.9390  210.9930  232.9300 C.2   338  ASN338      0.2266
    124  O        249.2920  211.4300  234.0290 O.2   338  ASN338     -0.2867
    125  CB       250.4170  209.5540  231.5140 C.3   338  ASN338      0.1155
    126  CG       251.7450  209.9280  232.1220 C.2   338  ASN338      0.2627
    127  OD1      251.8540  210.1640  233.3220 O.2   338  ASN338     -0.2716
    128  ND2      252.7730  209.9850  231.2890 N.am  338  ASN338     -0.0877
@<TRIPOS>BOND
     1    76    77    2
     2    76    75    1
     3    74    75    1
     4    75    78    1
     5    78    79    1
     6    79    81   am
     7    79    80    2
     8    56    57    1
     9    56    55    1
    10    57    58    1
    11    35    34    1
    12    35    29    1
    13    34    33    1
    14    29    30    1
    15    33    30    1
    16    55    54    1
    17    30    31    1
    18    54    51    1
    19    64    63    1
    20    51    52    1
    21    51    50    1
    22    53    52    2
    23    31    32    2
    24    31    36   am
    25    52    59   am
    26    59    60    1
    27    36    37    1
    28    60    63    1
    29    60    61    1
    30    63    65    1
    31    50    48   am
    32    45    44    1
    33    44    41    1
    34    40    41    1
    35    40    38   am
    36    61    62    2
    37    61    66   am
    38    37    38    1
    39    48    49    2
    40    48    47    1
    41    41    42    1
    42    43    42    2
    43    38    39    2
    44    42    46   am
    45    66    67    1
    46    46    47    1
    47    82    88    1
    48    82    83    1
    49    68    67    1
    50    68    69    2
    51    27    26    1
    52    27    28    1
    53    67    70    1
    54    88    87    1
    55    26    25    1
    56    70    71    1
    57    83    84    1
    58    83    86    1
    59   120   117    1
    60    24    23    2
    61    87    86    1
    62    85    84    2
    63    25    22    1
    64   112   113    1
    65    23    22    1
    66    22    21    1
    67   116   117    1
    68   116   114   am
    69    71    72    1
    70   117   118    1
    71    16    14    1
    72   113   114    1
    73   114   115    2
    74   118   119    2
    75    72    73    1
    76    15    13    1
    77    14    13    1
    78    13    10    1
    79    96    94    1
    80    20    19    2
    81    10    11    1
    82    10     9    1
    83    94    93    1
    84    12    11    2
    85    11    17   am
    86    19    18    1
    87     9     3   am
    88    17    18    1
    89   128   126   am
    90   125   126    1
    91   125   122    1
    92    95    93    1
    93    93    90    1
    94   121   122    1
    95   126   127    2
    96     3     4    2
    97     3     2    1
    98   122   123    1
    99     5     2    1
   100     5     6    1
   101   123   124    2
   102     2     1    1
   103    90    89    1
   104    90    91    1
   105     8     6   ar
   106     6     7   ar
   107   111   109    1
   108    91    92    2
   109   109   108    1
   110   102   101    1
   111   103   101    1
   112   101    98    1
   113   108   110    1
   114   108   105    1
   115   104   105    1
   116   104    99   am
   117   105   106    1
   118    98    99    1
   119    98    97    1
   120    99   100    2
   121   106   107    2
