@<TRIPOS>MOLECULE
tmp/6msdR01.pdb
 166 157 0 0 0
SMALL
GASTEIGER

@<TRIPOS>ATOM
      1  N        237.2330  266.4580  192.3770 N.3   163  ASP163     -0.1225
      2  CA       236.8140  265.4630  191.4040 C.3   163  ASP163      0.1805
      3  C        236.0350  264.3160  192.0250 C.2   163  ASP163      0.2598
      4  O        235.5620  263.4450  191.2910 O.2   163  ASP163     -0.2718
      5  CB       238.0390  264.9190  190.6760 C.3   163  ASP163      0.1424
      6  CG       238.7210  265.9730  189.8430 C.2   163  ASP163      0.3668
      7  OD1      238.0240  266.8850  189.3620 O.co2 163  ASP163     -0.2456
      8  OD2      239.9530  265.9010  189.6770 O.co2 163  ASP163     -0.2456
      9  N        235.8950  264.2910  193.3390 N.am  164  ILE164     -0.1966
     10  CA       235.2110  263.2160  194.0440 C.3   164  ILE164      0.1727
     11  C        233.9950  263.8500  194.7060 C.2   164  ILE164      0.2616
     12  O        234.0790  264.4050  195.8030 O.2   164  ILE164     -0.2715
     13  CB       236.1160  262.5350  195.0690 C.3   164  ILE164      0.0290
     14  CG1      237.3660  262.0120  194.3780 C.3   164  ILE164      0.0022
     15  CG2      235.3980  261.3860  195.7250 C.3   164  ILE164      0.0023
     16  CD1      238.4320  261.5610  195.3240 C.3   164  ILE164      0.0001
     17  N        232.8560  263.7950  194.0340 N.am  165  GLY165     -0.1955
     18  CA       231.6230  264.3290  194.5670 C.3   165  GLY165      0.1869
     19  C        230.8750  263.2960  195.3870 C.2   165  GLY165      0.2309
     20  O        230.9410  262.1030  195.1180 O.2   165  GLY165     -0.2863
     21  N        231.0830  262.2810  198.6490 N.3   167  LEU167     -0.1245
     22  CA       231.6780  261.4190  199.6630 C.3   167  LEU167      0.1561
     23  C        232.3200  262.2000  200.7980 C.2   167  LEU167      0.2260
     24  O        233.2530  261.6910  201.4260 O.2   167  LEU167     -0.2867
     25  CB       232.7400  260.5020  199.0700 C.3   167  LEU167      0.0270
     26  CG       232.2810  259.3730  198.1640 C.3   167  LEU167      0.0019
     27  CD1      233.4830  258.6700  197.5870 C.3   167  LEU167      0.0001
     28  CD2      231.4260  258.4080  198.9440 C.3   167  LEU167      0.0001
     29  N        230.9010  247.7150  193.8410 N.3   205  PRO205     -0.2102
     30  CA       232.1680  247.8690  193.1120 C.3   205  PRO205      0.1504
     31  C        232.3480  249.1690  192.3460 C.2   205  PRO205      0.2576
     32  O        233.4680  249.4450  191.9060 O.2   205  PRO205     -0.2718
     33  CB       232.1460  246.6850  192.1420 C.3   205  PRO205      0.0282
     34  CG       230.7340  246.3940  191.9490 C.3   205  PRO205      0.0208
     35  CD       230.0790  246.6450  193.2540 C.3   205  PRO205      0.0893
     36  N        231.3160  249.9770  192.1610 N.am  206  GLY206     -0.1943
     37  CA       231.5050  251.1730  191.3670 C.3   206  GLY206      0.2014
     38  C        231.3730  252.4690  192.1280 C.2   206  GLY206      0.2640
     39  O        231.1500  253.5230  191.5320 O.2   206  GLY206     -0.2714
     40  N        231.5260  252.4160  193.4420 N.am  207  THR207     -0.1936
     41  CA       231.2640  253.5800  194.2660 C.3   207  THR207      0.2028
     42  C        232.4660  254.4920  194.4130 C.2   207  THR207      0.2643
     43  O        232.3160  255.6070  194.9100 O.2   207  THR207     -0.2714
     44  CB       230.8050  253.1410  195.6460 C.3   207  THR207      0.1808
     45  OG1      231.8560  252.3940  196.2620 O.3   207  THR207     -0.2208
     46  CG2      229.5920  252.2600  195.5220 C.3   207  THR207      0.0379
     47  N        233.6470  254.0330  194.0370 N.am  208  GLY208     -0.1939
     48  CA       234.8390  254.8460  194.0970 C.3   208  GLY208      0.2014
     49  C        235.6250  254.5220  195.3420 C.2   208  GLY208      0.2639
     50  O        235.3660  255.0690  196.4140 O.2   208  GLY208     -0.2714
     51  N        236.6000  253.6390  195.2030 N.am  209  LYS209     -0.1963
     52  CA       237.4850  253.2520  196.2870 C.3   209  LYS209      0.1728
     53  C        238.9240  253.5370  195.9200 C.2   209  LYS209      0.2617
     54  O        239.6670  254.1250  196.7100 O.2   209  LYS209     -0.2715
     55  CB       237.3160  251.7600  196.5940 C.3   209  LYS209      0.0311
     56  CG       235.9100  251.3470  196.9320 C.3   209  LYS209      0.0038
     57  CD       235.8220  249.8740  197.2000 C.3   209  LYS209      0.0206
     58  CE       234.4070  249.4810  197.5260 C.3   209  LYS209      0.1093
     59  NZ       233.5110  249.6040  196.3510 N.3   209  LYS209     -0.1314
     60  N        239.3200  253.1290  194.7150 N.am  210  THR210     -0.1937
     61  CA       240.6070  253.4970  194.1490 C.3   210  THR210      0.2028
     62  C        240.7170  255.0030  193.9670 C.2   210  THR210      0.2642
     63  O        241.8100  255.5700  194.0920 O.2   210  THR210     -0.2714
     64  CB       240.7690  252.7680  192.8170 C.3   210  THR210      0.1808
     65  OG1      240.5950  251.3650  193.0310 O.3   210  THR210     -0.2208
     66  CG2      242.1340  252.9880  192.2220 C.3   210  THR210      0.0379
     67  N        239.5860  255.6660  193.7290 N.am  211  LEU211     -0.1977
     68  CA       239.5810  257.0940  193.4520 C.3   211  LEU211      0.1596
     69  C        240.0190  257.9070  194.6640 C.2   211  LEU211      0.2287
     70  O        240.6460  258.9590  194.5100 O.2   211  LEU211     -0.2864
     71  CB       238.1900  257.5050  192.9970 C.3   211  LEU211      0.0297
     72  CG       238.0190  258.9050  192.4400 C.3   211  LEU211      0.0022
     73  CD1      238.8170  259.0370  191.1720 C.3   211  LEU211      0.0001
     74  CD2      236.5650  259.1340  192.1720 C.3   211  LEU211      0.0001
     75  N        243.9420  257.0600  194.7630 N.3   214  ARG214     -0.1245
     76  CA       244.6910  257.8670  193.8180 C.3   214  ARG214      0.1563
     77  C        244.6570  259.3370  194.1750 C.2   214  ARG214      0.2260
     78  O        245.5350  260.0840  193.7360 O.2   214  ARG214     -0.2867
     79  CB       244.1560  257.6840  192.4050 C.3   214  ARG214      0.0307
     80  CG       244.4490  256.3440  191.8100 C.3   214  ARG214      0.0489
     81  CD       243.8550  256.2520  190.4380 C.3   214  ARG214      0.2205
     82  NE       242.4050  256.2920  190.5100 N.pl3 214  ARG214     -0.0865
     83  CZ       241.6160  256.3310  189.4480 C.cat 214  ARG214      0.5346
     84  NH1      240.3020  256.3670  189.5970 N.pl3 214  ARG214      0.1354
     85  NH2      242.1450  256.3300  188.2370 N.pl3 214  ARG214      0.1354
     86  N        245.0780  246.6560  197.4370 N.3   262  ASP262     -0.1225
     87  CA       243.8680  246.5540  196.6430 C.3   262  ASP262      0.1805
     88  C        243.4960  245.0890  196.5100 C.2   262  ASP262      0.2597
     89  O        244.3770  244.2320  196.4220 O.2   262  ASP262     -0.2718
     90  CB       244.0650  247.1560  195.2560 C.3   262  ASP262      0.1424
     91  CG       242.7610  247.3730  194.5270 C.2   262  ASP262      0.3668
     92  OD1      241.6910  247.1210  195.1160 O.co2 262  ASP262     -0.2456
     93  OD2      242.8040  247.7850  193.3510 O.co2 262  ASP262     -0.2456
     94  N        242.1850  244.8270  196.4850 N.am  263  GLU263     -0.1979
     95  CA       241.5970  243.4950  196.3160 C.3   263  GLU263      0.1602
     96  C        242.1100  242.5230  197.3760 C.2   263  GLU263      0.2287
     97  O        242.7880  241.5420  197.0850 O.2   263  GLU263     -0.2864
     98  CB       241.8420  242.9550  194.9070 C.3   263  GLU263      0.0415
     99  CG       241.1850  243.7830  193.8290 C.3   263  GLU263      0.1163
    100  CD       239.6740  243.7360  193.9010 C.2   263  GLU263      0.3649
    101  OE1      239.1340  242.6810  194.2930 O.co2 263  GLU263     -0.2457
    102  OE2      239.0220  244.7520  193.5760 O.co2 263  GLU263     -0.2457
    103  N        241.2890  247.9160  200.5780 N.3   307  ALA307     -0.1245
    104  CA       240.0780  248.1230  199.8000 C.3   307  ALA307      0.1562
    105  C        239.6170  246.7990  199.2230 C.2   307  ALA307      0.2260
    106  O        240.3730  246.1360  198.5100 O.2   307  ALA307     -0.2867
    107  CB       240.3150  249.1360  198.6800 C.3   307  ALA307      0.0290
    108  N        235.5870  244.8570  197.8410 N.3   309  ASN309     -0.1240
    109  CA       234.1830  245.0950  197.5720 C.3   309  ASN309      0.1653
    110  C        233.2670  244.0050  198.1040 C.2   309  ASN309      0.2266
    111  O        232.0490  244.1240  197.9540 O.2   309  ASN309     -0.2867
    112  CB       233.9490  245.2950  196.0680 C.3   309  ASN309      0.1155
    113  CG       234.5120  244.1810  195.2330 C.2   309  ASN309      0.2627
    114  OD1      235.0410  243.2010  195.7470 O.2   309  ASN309     -0.2716
    115  ND2      234.4080  244.3290  193.9240 N.am  309  ASN309     -0.0877
    116  N        225.4790  256.3820  195.4170 N.3   333  PRO333     -0.2116
    117  CA       225.0910  257.7980  195.4810 C.3   333  PRO333      0.1372
    118  C        223.5820  257.9660  195.4660 C.2   333  PRO333      0.2244
    119  O        222.8850  257.3340  194.6740 O.2   333  PRO333     -0.2868
    120  CB       225.7330  258.3930  194.2280 C.3   333  PRO333      0.0268
    121  CG       225.9370  257.2540  193.3340 C.3   333  PRO333      0.0207
    122  CD       226.2590  256.1000  194.2030 C.3   333  PRO333      0.0892
    123  N        228.2080  264.0220  190.3530 N.3   341  ILE341     -0.1245
    124  CA       229.1710  263.1590  189.6730 C.3   341  ILE341      0.1561
    125  C        229.1990  263.4450  188.1810 C.2   341  ILE341      0.2260
    126  O        230.2590  263.7310  187.6130 O.2   341  ILE341     -0.2867
    127  CB       228.8750  261.6760  189.9490 C.3   341  ILE341      0.0252
    128  CG1      229.2810  261.3170  191.3670 C.3   341  ILE341      0.0019
    129  CG2      229.6180  260.7910  188.9830 C.3   341  ILE341      0.0019
    130  CD1      228.9060  259.9310  191.7660 C.3   341  ILE341      0.0001
    131  N        230.8650  266.5780  187.0710 N.3   344  ILE344     -0.1231
    132  CA       232.3230  266.6020  187.0270 C.3   344  ILE344      0.1692
    133  C        232.8330  266.1280  185.6770 C.2   344  ILE344      0.2592
    134  O        233.6540  266.7970  185.0420 O.2   344  ILE344     -0.2718
    135  CB       232.9070  265.7550  188.1680 C.3   344  ILE344      0.0266
    136  CG1      232.5920  266.3890  189.5150 C.3   344  ILE344      0.0019
    137  CG2      234.4000  265.6000  188.0050 C.3   344  ILE344      0.0020
    138  CD1      232.9080  265.4930  190.6800 C.3   344  ILE344      0.0001
    139  N        232.3440  264.9920  185.2010 N.am  345  HIS345     -0.1976
    140  CA       232.8340  264.4420  183.9490 C.3   345  HIS345      0.1656
    141  C        232.2660  265.1340  182.7230 C.2   345  HIS345      0.2291
    142  O        232.6870  264.8230  181.6080 O.2   345  HIS345     -0.2864
    143  CB       232.5440  262.9490  183.8840 C.3   345  HIS345      0.0771
    144  CG       233.2910  262.1640  184.9090 C.ar  345  HIS345      0.0820
    145  ND1      232.7700  261.8850  186.1510 N.ar  345  HIS345     -0.2267
    146  CD2      234.5410  261.6490  184.8980 C.ar  345  HIS345      0.1154
    147  CE1      233.6570  261.2040  186.8510 C.ar  345  HIS345      0.1986
    148  NE2      234.7400  261.0470  186.1140 N.ar  345  HIS345     -0.2212
    149  N        229.0960  255.3610  190.5640 N.3   369  GLY369     -0.1210
    150  CA       229.9790  256.3710  190.0180 C.3   369  GLY369      0.1956
    151  C        230.6230  255.9840  188.7090 C.2   369  GLY369      0.2611
    152  O        231.0480  256.8640  187.9570 O.2   369  GLY369     -0.2717
    153  N        230.7070  254.6920  188.4170 N.am  370  ALA370     -0.1979
    154  CA       231.1720  254.2850  187.1030 C.3   370  ALA370      0.1597
    155  C        230.1020  254.5300  186.0550 C.2   370  ALA370      0.2287
    156  O        230.3850  255.0910  184.9930 O.2   370  ALA370     -0.2864
    157  CB       231.5820  252.8180  187.1160 C.3   370  ALA370      0.0319
    158  N        229.5660  258.0620  185.2590 N.3   373  LYS373     -0.1245
    159  CA       230.6340  258.4980  184.3770 C.3   373  LYS373      0.1561
    160  C        230.4180  257.9740  182.9690 C.2   373  LYS373      0.2260
    161  O        230.7500  258.6540  181.9950 O.2   373  LYS373     -0.2867
    162  CB       231.9750  258.0380  184.9400 C.3   373  LYS373      0.0271
    163  CG       233.2030  258.4630  184.1700 C.3   373  LYS373      0.0035
    164  CD       233.7810  257.3020  183.3910 C.3   373  LYS373      0.0206
    165  CE       235.0780  257.6790  182.7150 C.3   373  LYS373      0.1093
    166  NZ       236.1420  257.9540  183.7120 N.3   373  LYS373     -0.1314
@<TRIPOS>BOND
     1   142   141    2
     2   161   160    2
     3   165   164    1
     4   165   166    1
     5   141   140    1
     6   160   159    1
     7   164   163    1
     8   143   140    1
     9   143   144    1
    10   140   139    1
    11   163   162    1
    12   159   162    1
    13   159   158    1
    14   146   144   ar
    15   146   148   ar
    16   144   145   ar
    17   156   155    2
    18   134   133    2
    19   139   133   am
    20   133   132    1
    21   155   154    1
    22   148   147   ar
    23   145   147   ar
    24   132   131    1
    25   132   135    1
    26   154   157    1
    27   154   153    1
    28   126   125    2
    29   152   151    2
    30   137   135    1
    31   135   136    1
    32   125   124    1
    33    85    83    1
    34   153   151   am
    35   151   150    1
    36   129   127    1
    37     7     6   ar
    38    83    84    1
    39    83    82    2
    40   136   138    1
    41   124   127    1
    42   124   123    1
    43     8     6   ar
    44     6     5    1
    45   127   128    1
    46   150   149    1
    47    81    82    1
    48    81    80    1
    49     5     2    1
    50    73    72    1
    51     4     3    2
    52   128   130    1
    53    37    38    1
    54    37    36    1
    55     2     3    1
    56     2     1    1
    57    39    38    2
    58    80    79    1
    59    32    31    2
    60    34    33    1
    61    34    35    1
    62     3     9   am
    63    38    40   am
    64    33    30    1
    65    36    31   am
    66    74    72    1
    67    66    64    1
    68    31    30    1
    69    79    76    1
    70    72    71    1
    71    64    65    1
    72    64    61    1
    73    71    68    1
    74    30    29    1
    75    35    29    1
    76   121   122    1
    77   121   120    1
    78     9    10    1
    79    93    91   ar
    80    40    41    1
    81    68    67    1
    82    68    69    1
    83   102   100   ar
    84    67    62   am
    85    78    77    2
    86    76    77    1
    87    76    75    1
    88    99   100    1
    89    99    98    1
    90   100   101   ar
    91   115   113   am
    92    62    63    2
    93    62    61    1
    94    17    18    1
    95    17    11   am
    96    47    48    1
    97    47    42   am
    98    10    11    1
    99    10    13    1
   100    48    49    1
   101    61    60    1
   102   122   116    1
   103   120   117    1
   104    41    42    1
   105    41    44    1
   106    14    13    1
   107    14    16    1
   108    42    43    2
   109    70    69    2
   110    91    92   ar
   111    91    90    1
   112    18    19    1
   113   119   118    2
   114    11    12    2
   115    60    53   am
   116    98    95    1
   117    13    15    1
   118    20    19    2
   119    51    49   am
   120    51    52    1
   121   113   114    2
   122   113   112    1
   123    90    87    1
   124    49    50    2
   125   116   117    1
   126   118   117    1
   127    46    44    1
   128    44    45    1
   129    53    52    1
   130    53    54    2
   131   112   109    1
   132    52    55    1
   133    95    94    1
   134    95    96    1
   135    59    58    1
   136    89    88    2
   137    94    88   am
   138    88    87    1
   139    55    56    1
   140    87    86    1
   141    56    57    1
   142    97    96    2
   143    57    58    1
   144   109   108    1
   145   109   110    1
   146    27    26    1
   147   111   110    2
   148    26    28    1
   149    26    25    1
   150   106   105    2
   151    21    22    1
   152   107   104    1
   153    25    22    1
   154   105   104    1
   155    22    23    1
   156   104   103    1
   157    23    24    2
