@<TRIPOS>MOLECULE
tmp/6mshQ01.pdb
 156 148 0 0 0
SMALL
GASTEIGER

@<TRIPOS>ATOM
      1  N        255.7860  233.9790  243.5700 N.3   134  GLU134     -0.1231
      2  CA       255.1290  234.8910  242.6570 C.3   134  GLU134      0.1699
      3  C        253.8500  234.2480  242.1460 C.2   134  GLU134      0.2592
      4  O        253.3710  234.5570  241.0570 O.2   134  GLU134     -0.2718
      5  CB       256.0640  235.2590  241.5080 C.3   134  GLU134      0.0402
      6  CG       257.3260  236.0100  241.9340 C.3   134  GLU134      0.1161
      7  CD       258.4600  235.0900  242.3640 C.2   134  GLU134      0.3649
      8  OE1      258.2910  233.8530  242.3120 O.co2 134  GLU134     -0.2457
      9  OE2      259.5230  235.6060  242.7530 O.co2 134  GLU134     -0.2457
     10  N        253.3000  233.3390  242.9430 N.am  135  ILE135     -0.1966
     11  CA       252.1390  232.5490  242.5680 C.3   135  ILE135      0.1727
     12  C        251.2930  232.3440  243.8160 C.2   135  ILE135      0.2616
     13  O        251.8200  232.1840  244.9210 O.2   135  ILE135     -0.2715
     14  CB       252.5760  231.2230  241.9010 C.3   135  ILE135      0.0290
     15  CG1      251.3690  230.4270  241.4110 C.3   135  ILE135      0.0022
     16  CG2      253.4850  230.4050  242.8060 C.3   135  ILE135      0.0023
     17  CD1      250.5850  231.1400  240.3430 C.3   135  ILE135      0.0001
     18  N        249.9780  232.4100  243.6520 N.am  136  GLY136     -0.1955
     19  CA       249.0950  232.3420  244.7980 C.3   136  GLY136      0.1869
     20  C        247.8680  231.5120  244.5060 C.2   136  GLY136      0.2309
     21  O        247.4710  231.3330  243.3500 O.2   136  GLY136     -0.2863
     22  N        247.2140  228.3350  244.6160 N.3   138  LEU138     -0.1245
     23  CA       247.3440  227.2440  243.6620 C.3   138  LEU138      0.1561
     24  C        248.1420  226.0900  244.2580 C.2   138  LEU138      0.2260
     25  O        248.4730  225.1330  243.5510 O.2   138  LEU138     -0.2867
     26  CB       247.9750  227.8060  242.3880 C.3   138  LEU138      0.0270
     27  CG       247.9000  227.1100  241.0410 C.3   138  LEU138      0.0019
     28  CD1      246.4490  227.0000  240.6820 C.3   138  LEU138      0.0001
     29  CD2      248.6190  227.9460  240.0160 C.3   138  LEU138      0.0001
     30  N        242.1320  231.1230  229.9150 N.3   176  PRO176     -0.2102
     31  CA       243.4090  231.8330  229.8200 C.3   176  PRO176      0.1504
     32  C        243.6280  232.8260  230.9460 C.2   176  PRO176      0.2576
     33  O        242.7170  233.1610  231.7050 O.2   176  PRO176     -0.2718
     34  CB       243.2880  232.5800  228.4870 C.3   176  PRO176      0.0282
     35  CG       241.8470  232.8260  228.3590 C.3   176  PRO176      0.0208
     36  CD       241.1570  231.6350  228.9400 C.3   176  PRO176      0.0893
     37  N        244.8740  233.2810  231.0540 N.am  177  GLY177     -0.1943
     38  CA       245.2660  234.2490  232.0510 C.3   177  GLY177      0.2014
     39  C        245.3320  233.7040  233.4690 C.2   177  GLY177      0.2640
     40  O        245.5200  234.4750  234.4120 O.2   177  GLY177     -0.2714
     41  N        245.1730  232.3960  233.6450 N.am  178  THR178     -0.1936
     42  CA       245.0980  231.8640  234.9930 C.3   178  THR178      0.2028
     43  C        246.4920  231.7830  235.5900 C.2   178  THR178      0.2643
     44  O        246.6700  231.7580  236.8130 O.2   178  THR178     -0.2714
     45  CB       244.4390  230.4930  234.9740 C.3   178  THR178      0.1808
     46  OG1      243.4420  230.4530  233.9550 O.3   178  THR178     -0.2208
     47  CG2      243.7020  230.3120  236.2700 C.3   178  THR178      0.0379
     48  N        247.4980  231.7690  234.7280 N.am  179  GLY179     -0.1939
     49  CA       248.8710  231.7280  235.1620 C.3   179  GLY179      0.2014
     50  C        249.5660  230.4570  234.7610 C.2   179  GLY179      0.2639
     51  O        250.4580  229.9790  235.4630 O.2   179  GLY179     -0.2714
     52  N        249.1980  229.9230  233.6070 N.am  180  LYS180     -0.1963
     53  CA       249.7300  228.6320  233.2150 C.3   180  LYS180      0.1728
     54  C        251.1270  228.7240  232.6290 C.2   180  LYS180      0.2617
     55  O        251.9190  227.7940  232.8060 O.2   180  LYS180     -0.2715
     56  CB       248.7680  227.9490  232.2440 C.3   180  LYS180      0.0311
     57  CG       248.4290  228.7320  231.0050 C.3   180  LYS180      0.0038
     58  CD       247.5340  227.9010  230.1120 C.3   180  LYS180      0.0206
     59  CE       246.1460  227.7380  230.7110 C.3   180  LYS180      0.1093
     60  NZ       245.3550  229.0000  230.7240 N.3   180  LYS180     -0.1314
     61  N        251.4760  229.8290  231.9760 N.am  181  THR181     -0.1937
     62  CA       252.8630  230.0050  231.5690 C.3   181  THR181      0.2028
     63  C        253.7650  230.4260  232.7140 C.2   181  THR181      0.2642
     64  O        254.9870  230.2810  232.6040 O.2   181  THR181     -0.2714
     65  CB       252.9610  231.0200  230.4390 C.3   181  THR181      0.1808
     66  OG1      252.1290  232.1490  230.7350 O.3   181  THR181     -0.2208
     67  CG2      252.5700  230.3860  229.1210 C.3   181  THR181      0.0379
     68  N        253.1980  230.9180  233.8080 N.am  182  LEU182     -0.1977
     69  CA       253.9900  231.3060  234.9640 C.3   182  LEU182      0.1596
     70  C        254.5980  230.1120  235.6820 C.2   182  LEU182      0.2287
     71  O        255.6670  230.2460  236.2830 O.2   182  LEU182     -0.2864
     72  CB       253.1160  232.1090  235.9230 C.3   182  LEU182      0.0297
     73  CG       253.7540  232.7310  237.1600 C.3   182  LEU182      0.0022
     74  CD1      254.8060  233.7400  236.7420 C.3   182  LEU182      0.0001
     75  CD2      252.6860  233.3670  238.0340 C.3   182  LEU182      0.0001
     76  N        257.9790  229.1090  234.1630 N.3   185  ARG185     -0.1245
     77  CA       259.0440  229.9050  234.7450 C.3   185  ARG185      0.1563
     78  C        259.5850  229.2350  236.0010 C.2   185  ARG185      0.2260
     79  O        260.8000  229.1420  236.2050 O.2   185  ARG185     -0.2867
     80  CB       258.4970  231.2830  235.0910 C.3   185  ARG185      0.0307
     81  CG       257.8250  232.0670  233.9920 C.3   185  ARG185      0.0489
     82  CD       258.8540  232.6510  233.0660 C.3   185  ARG185      0.2205
     83  NE       258.2840  233.7720  232.3290 N.pl3 185  ARG185     -0.0865
     84  CZ       258.2710  235.0150  232.8060 C.cat 185  ARG185      0.5346
     85  NH1      257.7340  236.0050  232.1110 N.pl3 185  ARG185      0.1354
     86  NH2      258.7990  235.2730  233.9900 N.pl3 185  ARG185      0.1354
     87  N        254.0530  224.5500  224.4670 N.3   233  ASP233     -0.1239
     88  CA       252.8320  225.3010  224.6620 C.3   233  ASP233      0.1674
     89  C        251.8220  224.8900  223.5970 C.2   233  ASP233      0.2266
     90  O        252.1830  224.3250  222.5700 O.2   233  ASP233     -0.2867
     91  CB       253.1270  226.7950  224.5810 C.3   233  ASP233      0.1410
     92  CG       252.0200  227.6400  225.1550 C.2   233  ASP233      0.3668
     93  OD1      251.0170  227.0740  225.6370 O.co2 233  ASP233     -0.2456
     94  OD2      252.1520  228.8780  225.1230 O.co2 233  ASP233     -0.2456
     95  N        244.7280  225.7220  226.1610 N.3   280  ASN280     -0.1240
     96  CA       243.4530  226.2200  226.6390 C.3   280  ASN280      0.1653
     97  C        242.2580  225.5050  226.0340 C.2   280  ASN280      0.2266
     98  O        241.1460  225.6860  226.5350 O.2   280  ASN280     -0.2867
     99  CB       243.3290  227.7160  226.3410 C.3   280  ASN280      0.1155
    100  CG       243.6530  228.0430  224.9050 C.2   280  ASN280      0.2627
    101  OD1      243.9740  227.1590  224.1080 O.2   280  ASN280     -0.2716
    102  ND2      243.5770  229.3170  224.5610 N.am  280  ASN280     -0.0877
    103  N        246.9760  236.8740  245.4090 N.3   312  ILE312     -0.1245
    104  CA       247.6240  237.4280  244.2230 C.3   312  ILE312      0.1561
    105  C        247.8610  238.9190  244.3990 C.2   312  ILE312      0.2260
    106  O        248.9130  239.4530  244.0170 O.2   312  ILE312     -0.2867
    107  CB       246.7670  237.1290  242.9770 C.3   312  ILE312      0.0252
    108  CG1      246.7870  235.6340  242.6510 C.3   312  ILE312      0.0019
    109  CG2      247.2020  237.9470  241.7760 C.3   312  ILE312      0.0019
    110  CD1      245.7490  235.2370  241.6430 C.3   312  ILE312      0.0001
    111  N        250.8030  239.5340  246.6510 N.3   315  ILE315     -0.1231
    112  CA       252.0800  239.2350  246.0180 C.3   315  ILE315      0.1692
    113  C        252.5170  240.3830  245.1240 C.2   315  ILE315      0.2592
    114  O        253.6390  240.8880  245.2510 O.2   315  ILE315     -0.2718
    115  CB       251.9940  237.9130  245.2420 C.3   315  ILE315      0.0266
    116  CG1      251.8480  236.7450  246.2110 C.3   315  ILE315      0.0019
    117  CG2      253.2180  237.7280  244.3610 C.3   315  ILE315      0.0020
    118  CD1      251.4510  235.4580  245.5420 C.3   315  ILE315      0.0001
    119  N        251.6440  240.8200  244.2170 N.am  316  HIS316     -0.1976
    120  CA       252.0260  241.8640  243.2700 C.3   316  HIS316      0.1656
    121  C        252.1790  243.2080  243.9620 C.2   316  HIS316      0.2291
    122  O        253.0060  244.0320  243.5580 O.2   316  HIS316     -0.2864
    123  CB       251.0070  241.9610  242.1420 C.3   316  HIS316      0.0771
    124  CG       251.0080  240.7780  241.2320 C.ar  316  HIS316      0.0820
    125  ND1      250.2400  239.6600  241.4670 N.ar  316  HIS316     -0.2267
    126  CD2      251.6910  240.5350  240.0890 C.ar  316  HIS316      0.1154
    127  CE1      250.4450  238.7800  240.5050 C.ar  316  HIS316      0.1986
    128  NE2      251.3200  239.2860  239.6560 N.ar  316  HIS316     -0.2212
    129  N        242.3210  237.1130  237.1190 N.3   339  ASN339     -0.1225
    130  CA       243.5320  237.0010  236.3370 C.3   339  ASN339      0.1785
    131  C        244.6350  237.6260  237.1660 C.2   339  ASN339      0.2598
    132  O        244.5240  238.7820  237.5770 O.2   339  ASN339     -0.2718
    133  CB       243.3430  237.7140  234.9910 C.3   339  ASN339      0.1169
    134  CG       244.3070  237.2610  233.9240 C.2   339  ASN339      0.2627
    135  OD1      244.0210  237.3920  232.7370 O.2   339  ASN339     -0.2716
    136  ND2      245.4680  236.7720  234.3250 N.am  339  ASN339     -0.0877
    137  N        245.6920  236.8560  237.4100 N.am  340  GLY340     -0.1942
    138  CA       246.8240  237.3970  238.1360 C.3   340  GLY340      0.2014
    139  C        247.5620  238.4510  237.3390 C.2   340  GLY340      0.2638
    140  O        248.1910  239.3470  237.9090 O.2   340  GLY340     -0.2714
    141  N        247.5000  238.3560  236.0120 N.am  341  ALA341     -0.1977
    142  CA       247.9920  239.4450  235.1830 C.3   341  ALA341      0.1597
    143  C        247.1180  240.6810  235.3270 C.2   341  ALA341      0.2287
    144  O        247.6070  241.8080  235.1860 O.2   341  ALA341     -0.2864
    145  CB       248.0640  239.0040  233.7240 C.3   341  ALA341      0.0319
    146  N        248.0590  242.1410  238.4600 N.3   344  ARG344     -0.1245
    147  CA       249.3030  242.8320  238.1640 C.3   344  ARG344      0.1563
    148  C        249.0210  244.1670  237.4960 C.2   344  ARG344      0.2260
    149  O        249.6860  245.1680  237.7850 O.2   344  ARG344     -0.2867
    150  CB       250.1920  241.9680  237.2790 C.3   344  ARG344      0.0307
    151  CG       251.5500  242.5720  237.0760 C.3   344  ARG344      0.0489
    152  CD       252.4670  241.6670  236.3070 C.3   344  ARG344      0.2205
    153  NE       253.7780  242.2830  236.1430 N.pl3 344  ARG344     -0.0865
    154  CZ       254.8010  241.7010  235.5290 C.cat 344  ARG344      0.5346
    155  NH1      254.6570  240.4870  235.0170 N.pl3 344  ARG344      0.1354
    156  NH2      255.9650  242.3310  235.4260 N.pl3 344  ARG344      0.1354
@<TRIPOS>BOND
     1    90    89    2
     2    89    88    1
     3   101   100    2
     4    87    88    1
     5   102   100   am
     6    91    88    1
     7    91    92    1
     8   100    99    1
     9    94    92   ar
    10    92    93   ar
    11    97    98    2
    12    97    96    1
    13    95    96    1
    14    99    96    1
    15    35    34    1
    16    35    36    1
    17    34    31    1
    18    36    30    1
    19    67    65    1
    20    31    30    1
    21    31    32    1
    22    58    59    1
    23    58    57    1
    24    65    66    1
    25    65    62    1
    26    59    60    1
    27    32    37   am
    28    32    33    2
    29    57    56    1
    30    37    38    1
    31    62    61    1
    32    62    63    1
    33    61    54   am
    34    38    39    1
    35    85    84    1
    36    56    53    1
    37    83    84    2
    38    83    82    1
    39    64    63    2
    40    54    55    2
    41    54    53    1
    42    63    68   am
    43   135   134    2
    44    84    86    1
    45    82    81    1
    46    53    52    1
    47    39    41   am
    48    39    40    2
    49    52    50   am
    50    41    42    1
    51   145   142    1
    52    68    69    1
    53   134   136   am
    54   134   133    1
    55    46    45    1
    56    81    80    1
    57    76    77    1
    58    48    49    1
    59    48    43   am
    60    77    80    1
    61    77    78    1
    62    50    49    1
    63    50    51    2
    64    69    70    1
    65    69    72    1
    66    45    42    1
    67    45    47    1
    68   133   130    1
    69    42    43    1
    70   155   154    1
    71   142   143    1
    72   142   141    1
    73   144   143    2
    74   156   154    1
    75   154   153    2
    76    43    44    2
    77    70    71    2
    78    72    73    1
    79    78    79    2
    80   141   139   am
    81   153   152    1
    82   152   151    1
    83   130   129    1
    84   130   131    1
    85    74    73    1
    86   151   150    1
    87    73    75    1
    88   131   137   am
    89   131   132    2
    90   150   147    1
    91   139   140    2
    92   139   138    1
    93   137   138    1
    94   148   149    2
    95   148   147    1
    96   147   146    1
    97   128   126   ar
    98   128   127   ar
    99    29    27    1
   100   126   124   ar
   101    17    15    1
   102   127   125   ar
   103    28    27    1
   104    27    26    1
   105     4     3    2
   106   124   125   ar
   107   124   123    1
   108    15    14    1
   109     5     6    1
   110     5     2    1
   111   110   108    1
   112   109   107    1
   113    14    11    1
   114    14    16    1
   115     6     7    1
   116   123   120    1
   117     3     2    1
   118     3    10   am
   119     8     7   ar
   120     7     9   ar
   121    26    23    1
   122    11    10    1
   123    11    12    1
   124   108   107    1
   125     2     1    1
   126   107   104    1
   127   120   121    1
   128   120   119    1
   129    21    20    2
   130    25    24    2
   131   122   121    2
   132    18    12   am
   133    18    19    1
   134    23    24    1
   135    23    22    1
   136    12    13    2
   137   106   105    2
   138   119   113   am
   139   104   105    1
   140   104   103    1
   141   117   115    1
   142    20    19    1
   143   113   114    2
   144   113   112    1
   145   115   112    1
   146   115   116    1
   147   118   116    1
   148   112   111    1
