@<TRIPOS>MOLECULE
tmp/6msjN00.pdb
 146 140 0 0 0
SMALL
GASTEIGER

@<TRIPOS>ATOM
      1  N        241.6850  212.5920  153.8940 N.3   157  ASP157     -0.1225
      2  CA       241.7980  211.4970  154.8430 C.3   157  ASP157      0.1805
      3  C        240.6600  211.5140  155.8540 C.2   157  ASP157      0.2598
      4  O        240.1950  210.4520  156.2780 O.2   157  ASP157     -0.2718
      5  CB       243.1460  211.5840  155.5530 C.3   157  ASP157      0.1424
      6  CG       243.5520  210.2860  156.2100 C.2   157  ASP157      0.3668
      7  OD1      242.7990  209.2980  156.1200 O.co2 157  ASP157     -0.2456
      8  OD2      244.6440  210.2490  156.8120 O.co2 157  ASP157     -0.2456
      9  N        240.1910  212.6920  156.2340 N.am  158  ILE158     -0.1966
     10  CA       239.2100  212.8190  157.3040 C.3   158  ILE158      0.1727
     11  C        237.8080  212.6070  156.7530 C.2   158  ILE158      0.2617
     12  O        237.5360  212.8320  155.5700 O.2   158  ILE158     -0.2715
     13  CB       239.3540  214.1850  157.9900 C.3   158  ILE158      0.0290
     14  CG1      239.1270  215.2870  156.9750 C.3   158  ILE158      0.0022
     15  CG2      240.7350  214.3250  158.5750 C.3   158  ILE158      0.0023
     16  CD1      239.1040  216.6330  157.5570 C.3   158  ILE158      0.0001
     17  N        236.9070  212.1650  157.6230 N.am  159  GLY159     -0.1940
     18  CA       235.6390  211.6350  157.1760 C.3   159  GLY159      0.2014
     19  C        234.4570  212.5710  157.2480 C.2   159  GLY159      0.2639
     20  O        233.3510  212.1580  157.6000 O.2   159  GLY159     -0.2714
     21  N        234.6740  213.8330  156.9320 N.am  160  GLY160     -0.1939
     22  CA       233.5700  214.7600  156.8300 C.3   160  GLY160      0.2014
     23  C        233.4490  215.5910  158.0800 C.2   160  GLY160      0.2638
     24  O        232.7990  215.2090  159.0550 O.2   160  GLY160     -0.2714
     25  N        234.0770  216.7520  158.0450 N.am  161  LEU161     -0.1977
     26  CA       234.1040  217.6200  159.2070 C.3   161  LEU161      0.1596
     27  C        234.0260  219.0620  158.7380 C.2   161  LEU161      0.2287
     28  O        234.4290  219.9830  159.4550 O.2   161  LEU161     -0.2864
     29  CB       235.3560  217.2540  160.0160 C.3   161  LEU161      0.0297
     30  CG       235.5490  217.4160  161.5220 C.3   161  LEU161      0.0022
     31  CD1      236.1270  218.7340  161.9300 C.3   161  LEU161      0.0001
     32  CD2      234.2060  217.1950  162.1850 C.3   161  LEU161      0.0001
     33  N        237.1000  213.1980  173.4140 N.3   199  PRO199     -0.2102
     34  CA       238.3070  212.6320  172.8140 C.3   199  PRO199      0.1504
     35  C        237.9790  211.6510  171.7050 C.2   199  PRO199      0.2576
     36  O        236.8710  211.1260  171.6050 O.2   199  PRO199     -0.2718
     37  CB       238.9760  211.9170  173.9890 C.3   199  PRO199      0.0282
     38  CG       237.8610  211.5750  174.8800 C.3   199  PRO199      0.0208
     39  CD       236.8900  212.6990  174.7790 C.3   199  PRO199      0.0893
     40  N        238.9750  211.4110  170.8620 N.am  200  GLY200     -0.1943
     41  CA       238.7740  210.5240  169.7380 C.3   200  GLY200      0.2014
     42  C        237.9350  211.1130  168.6410 C.2   200  GLY200      0.2640
     43  O        237.2230  210.3800  167.9530 O.2   200  GLY200     -0.2714
     44  N        237.9970  212.4160  168.4530 N.am  201  THR201     -0.1936
     45  CA       237.1340  213.0630  167.4880 C.3   201  THR201      0.2028
     46  C        237.8940  213.5870  166.2840 C.2   201  THR201      0.2643
     47  O        237.3160  213.7030  165.2030 O.2   201  THR201     -0.2714
     48  CB       236.3780  214.2080  168.1660 C.3   201  THR201      0.1808
     49  OG1      235.9520  213.7710  169.4580 O.3   201  THR201     -0.2208
     50  CG2      235.1230  214.5200  167.3980 C.3   201  THR201      0.0379
     51  N        239.1800  213.8590  166.4240 N.am  202  GLY202     -0.1939
     52  CA       239.9440  214.2920  165.2770 C.3   202  GLY202      0.2014
     53  C        240.6220  215.6220  165.4910 C.2   202  GLY202      0.2639
     54  O        240.8940  216.3440  164.5300 O.2   202  GLY202     -0.2714
     55  N        240.8860  215.9610  166.7510 N.am  203  LYS203     -0.1963
     56  CA       241.6190  217.1830  167.0480 C.3   203  LYS203      0.1728
     57  C        243.0560  217.0830  166.5620 C.2   203  LYS203      0.2617
     58  O        243.5930  218.0270  165.9770 O.2   203  LYS203     -0.2715
     59  CB       241.5730  217.4660  168.5460 C.3   203  LYS203      0.0311
     60  CG       240.1770  217.6920  169.0670 C.3   203  LYS203      0.0038
     61  CD       240.1390  218.0950  170.5160 C.3   203  LYS203      0.0206
     62  CE       240.5040  216.9370  171.3990 C.3   203  LYS203      0.1093
     63  NZ       239.5300  215.8200  171.3010 N.3   203  LYS203     -0.1314
     64  N        243.6880  215.9330  166.7790 N.am  204  THR204     -0.1937
     65  CA       245.0670  215.7680  166.3470 C.3   204  THR204      0.2028
     66  C        245.1510  215.6010  164.8330 C.2   204  THR204      0.2642
     67  O        246.1470  216.0070  164.2260 O.2   204  THR204     -0.2714
     68  CB       245.6830  214.5790  167.0840 C.3   204  THR204      0.1808
     69  OG1      245.4200  214.7120  168.4850 O.3   204  THR204     -0.2208
     70  CG2      247.1800  214.5470  166.9110 C.3   204  THR204      0.0379
     71  N        244.1050  215.0400  164.2100 N.am  205  LEU205     -0.1977
     72  CA       244.0720  214.8850  162.7550 C.3   205  LEU205      0.1596
     73  C        244.1340  216.2180  162.0400 C.2   205  LEU205      0.2287
     74  O        244.9200  216.3920  161.1020 O.2   205  LEU205     -0.2864
     75  CB       242.8000  214.1820  162.3130 C.3   205  LEU205      0.0297
     76  CG       242.5630  212.7010  162.4820 C.3   205  LEU205      0.0022
     77  CD1      241.1480  212.4560  162.0450 C.3   205  LEU205      0.0001
     78  CD2      243.5170  211.9570  161.5950 C.3   205  LEU205      0.0001
     79  N        247.2390  220.0310  174.5660 N.3   257  GLU257     -0.1245
     80  CA       246.8230  219.8190  175.9550 C.3   257  GLU257      0.1567
     81  C        247.4100  220.8860  176.8790 C.2   257  GLU257      0.2260
     82  O        248.2400  220.6300  177.7500 O.2   257  GLU257     -0.2867
     83  CB       247.1460  218.4080  176.4510 C.3   257  GLU257      0.0388
     84  CG       246.3240  217.3530  175.7630 C.3   257  GLU257      0.1160
     85  CD       247.0440  216.7490  174.6010 C.2   257  GLU257      0.3649
     86  OE1      248.2560  217.0150  174.4730 O.co2 257  GLU257     -0.2457
     87  OE2      246.4110  216.0250  173.7970 O.co2 257  GLU257     -0.2457
     88  N        240.7180  218.4480  175.6510 N.3   303  ASN303     -0.1240
     89  CA       239.4660  217.7100  175.6750 C.3   303  ASN303      0.1653
     90  C        238.4040  218.4610  176.4630 C.2   303  ASN303      0.2266
     91  O        237.3230  218.7470  175.9440 O.2   303  ASN303     -0.2867
     92  CB       239.6980  216.3250  176.2690 C.3   303  ASN303      0.1155
     93  CG       240.6560  215.5170  175.4490 C.2   303  ASN303      0.2627
     94  OD1      241.7750  215.2500  175.8740 O.2   303  ASN303     -0.2716
     95  ND2      240.2280  215.1240  174.2580 N.am  303  ASN303     -0.0877
     96  N        229.5670  213.0270  165.8680 N.3   327  PRO327     -0.2116
     97  CA       229.0750  213.8070  164.7240 C.3   327  PRO327      0.1372
     98  C        227.5950  213.7180  164.3670 C.2   327  PRO327      0.2244
     99  O        226.8390  214.6490  164.6620 O.2   327  PRO327     -0.2868
    100  CB       229.9160  213.2540  163.5700 C.3   327  PRO327      0.0268
    101  CG       231.0720  212.5490  164.2110 C.3   327  PRO327      0.0207
    102  CD       230.5300  211.9930  165.4660 C.3   327  PRO327      0.0892
    103  N        233.2480  208.0410  157.0570 N.3   335  ILE335     -0.1245
    104  CA       234.3690  207.4390  157.7670 C.3   335  ILE335      0.1561
    105  C        234.4100  205.9430  157.5060 C.2   335  ILE335      0.2260
    106  O        235.4850  205.3550  157.3350 O.2   335  ILE335     -0.2867
    107  CB       234.2860  207.7500  159.2680 C.3   335  ILE335      0.0252
    108  CG1      234.1760  209.2480  159.4810 C.3   335  ILE335      0.0019
    109  CG2      235.5440  207.2930  159.9670 C.3   335  ILE335      0.0019
    110  CD1      233.7840  209.6340  160.8660 C.3   335  ILE335      0.0001
    111  N        235.9470  205.6480  154.2230 N.3   338  ILE338     -0.1231
    112  CA       237.3870  205.8590  154.1460 C.3   338  ILE338      0.1692
    113  C        238.1440  204.6950  154.7580 C.2   338  ILE338      0.2592
    114  O        239.0660  204.1450  154.1470 O.2   338  ILE338     -0.2718
    115  CB       237.7640  207.1920  154.8100 C.3   338  ILE338      0.0266
    116  CG1      237.2910  208.3440  153.9350 C.3   338  ILE338      0.0019
    117  CG2      239.2580  207.2760  155.0660 C.3   338  ILE338      0.0020
    118  CD1      237.3760  209.6580  154.6030 C.3   338  ILE338      0.0001
    119  N        237.7640  204.2860  155.9580 N.am  339  HIS339     -0.1976
    120  CA       238.5370  203.2710  156.6560 C.3   339  HIS339      0.1656
    121  C        238.3130  201.8630  156.1240 C.2   339  HIS339      0.2291
    122  O        238.9770  200.9360  156.5920 O.2   339  HIS339     -0.2864
    123  CB       238.2280  203.3210  158.1480 C.3   339  HIS339      0.0771
    124  CG       238.7890  204.5250  158.8310 C.ar  339  HIS339      0.0820
    125  ND1      238.4650  204.8680  160.1240 N.ar  339  HIS339     -0.2267
    126  CD2      239.6630  205.4630  158.4000 C.ar  339  HIS339      0.1154
    127  CE1      239.1110  205.9690  160.4600 C.ar  339  HIS339      0.1986
    128  NE2      239.8460  206.3500  159.4310 N.ar  339  HIS339     -0.2212
    129  N        235.1830  208.5550  165.7340 N.3   363  GLY363     -0.1210
    130  CA       236.0200  208.1590  164.6160 C.3   363  GLY363      0.1956
    131  C        237.0440  207.1090  164.9960 C.2   363  GLY363      0.2611
    132  O        237.3170  206.1880  164.2240 O.2   363  GLY363     -0.2717
    133  N        237.6100  207.2210  166.1980 N.am  364  ALA364     -0.1979
    134  CA       238.5170  206.1870  166.6770 C.3   364  ALA364      0.1597
    135  C        237.7740  204.9000  166.9900 C.2   364  ALA364      0.2287
    136  O        238.3820  203.8270  167.0260 O.2   364  ALA364     -0.2864
    137  CB       239.2690  206.6750  167.9100 C.3   364  ALA364      0.0319
    138  N        237.5680  203.1740  163.3850 N.3   367  LYS367     -0.1245
    139  CA       238.8310  202.5880  162.9580 C.3   367  LYS367      0.1561
    140  C        239.1360  201.3100  163.7240 C.2   367  LYS367      0.2260
    141  O        239.7260  200.3750  163.1740 O.2   367  LYS367     -0.2867
    142  CB       239.9470  203.6070  163.1440 C.3   367  LYS367      0.0271
    143  CG       241.2850  203.1870  162.6070 C.3   367  LYS367      0.0035
    144  CD       242.2740  204.3140  162.7770 C.3   367  LYS367      0.0206
    145  CE       243.6350  203.9390  162.2510 C.3   367  LYS367      0.1093
    146  NZ       244.5920  205.0590  162.4200 N.3   367  LYS367     -0.1314
@<TRIPOS>BOND
     1     1     2    1
     2   116   118    1
     3   116   115    1
     4   112   111    1
     5   112   113    1
     6   112   115    1
     7   114   113    2
     8   113   119   am
     9   115   117    1
    10     2     5    1
    11     2     3    1
    12     5     6    1
    13    12    11    2
    14     3     9   am
    15     3     4    2
    16   119   120    1
    17     7     6   ar
    18   121   122    2
    19   121   120    1
    20     6     8   ar
    21     9    10    1
    22   120   123    1
    23    11    10    1
    24    11    17   am
    25    22    21    1
    26    22    23    1
    27    21    19   am
    28    14    16    1
    29    14    13    1
    30   103   104    1
    31    18    19    1
    32    18    17    1
    33    19    20    2
    34    10    13    1
    35   106   105    2
    36   105   104    1
    37   104   107    1
    38    13    15    1
    39    25    23   am
    40    25    26    1
    41    23    24    2
    42   123   124    1
    43   126   124   ar
    44   126   128   ar
    45    27    26    1
    46    27    28    2
    47   124   125   ar
    48    26    29    1
    49   107   108    1
    50   107   109    1
    51   128   127   ar
    52   108   110    1
    53    29    30    1
    54   125   127   ar
    55    74    73    2
    56    30    31    1
    57    30    32    1
    58    78    76    1
    59    73    72    1
    60    77    76    1
    61   145   146    1
    62   145   144    1
    63    75    76    1
    64    75    72    1
    65   143   144    1
    66   143   142    1
    67    72    71    1
    68   139   142    1
    69   139   138    1
    70   139   140    1
    71   141   140    2
    72   100   101    1
    73   100    97    1
    74    71    66   am
    75   101   102    1
    76   132   131    2
    77    67    66    2
    78    98    99    2
    79    98    97    1
    80    54    53    2
    81   130   131    1
    82   130   129    1
    83    97    96    1
    84    66    65    1
    85   131   133   am
    86    47    46    2
    87    52    53    1
    88    52    51    1
    89   102    96    1
    90    53    55   am
    91    58    57    2
    92   133   134    1
    93    46    51   am
    94    46    45    1
    95    65    64    1
    96    65    68    1
    97    57    64   am
    98    57    56    1
    99   134   135    1
   100   134   137    1
   101    55    56    1
   102    70    68    1
   103   135   136    2
   104    56    59    1
   105    68    69    1
   106    50    48    1
   107    45    48    1
   108    45    44    1
   109    43    42    2
   110    48    49    1
   111    44    42   am
   112    59    60    1
   113    42    41    1
   114    60    61    1
   115    41    40    1
   116    61    62    1
   117    40    35   am
   118    63    62    1
   119    36    35    2
   120    35    34    1
   121    34    33    1
   122    34    37    1
   123    33    39    1
   124    87    85   ar
   125    37    38    1
   126    95    93   am
   127    86    85   ar
   128    79    80    1
   129    85    84    1
   130    39    38    1
   131    93    94    2
   132    93    92    1
   133    88    89    1
   134    89    92    1
   135    89    90    1
   136    84    83    1
   137    91    90    2
   138    80    83    1
   139    80    81    1
   140    81    82    2
