@<TRIPOS>MOLECULE
tmp/6msjO01.pdb
 163 154 0 0 0
SMALL
GASTEIGER

@<TRIPOS>ATOM
      1  N        252.3120  176.2560  182.3250 N.3   140  MET140     -0.1230
      2  CA       251.8740  176.0900  183.7020 C.3   140  MET140      0.1702
      3  C        250.7570  177.0450  184.0980 C.2   140  MET140      0.2592
      4  O        250.5590  177.2810  185.2940 O.2   140  MET140     -0.2718
      5  CB       253.0570  176.2480  184.6600 C.3   140  MET140      0.0401
      6  CG       253.7510  177.5990  184.6010 C.3   140  MET140      0.0596
      7  SD       255.0460  177.7670  185.8460 S.3   140  MET140     -0.1393
      8  CE       256.3100  176.6570  185.2440 C.3   140  MET140      0.0692
      9  N        250.0140  177.5920  183.1390 N.am  141  ILE141     -0.1966
     10  CA       248.9190  178.4850  183.4870 C.3   141  ILE141      0.1727
     11  C        247.6230  177.6950  183.5800 C.2   141  ILE141      0.2616
     12  O        247.0670  177.5310  184.6680 O.2   141  ILE141     -0.2715
     13  CB       248.8050  179.6340  182.4740 C.3   141  ILE141      0.0290
     14  CG1      250.0700  180.4850  182.5210 C.3   141  ILE141      0.0022
     15  CG2      247.5960  180.4940  182.7710 C.3   141  ILE141      0.0023
     16  CD1      250.1560  181.5020  181.4190 C.3   141  ILE141      0.0001
     17  N        247.1440  177.1720  182.4600 N.am  142  GLY142     -0.1955
     18  CA       245.9610  176.3380  182.5060 C.3   142  GLY142      0.1869
     19  C        244.6540  177.0930  182.6400 C.2   142  GLY142      0.2309
     20  O        244.5360  178.0220  183.4410 O.2   142  GLY142     -0.2863
     21  N        243.0800  179.2170  180.8260 N.3   144  LEU144     -0.1245
     22  CA       242.9770  180.5920  180.3520 C.3   144  LEU144      0.1561
     23  C        243.3410  180.6770  178.8850 C.2   144  LEU144      0.2260
     24  O        243.9960  181.6270  178.4480 O.2   144  LEU144     -0.2867
     25  CB       243.8730  181.5260  181.1600 C.3   144  LEU144      0.0270
     26  CG       243.4860  181.7500  182.6150 C.3   144  LEU144      0.0019
     27  CD1      244.5310  182.5950  183.3100 C.3   144  LEU144      0.0001
     28  CD2      242.1260  182.4140  182.6780 C.3   144  LEU144      0.0001
     29  N        241.0000  192.1690  185.7420 N.3   180  GLY180     -0.1225
     30  CA       240.3790  191.0950  186.4710 C.3   180  GLY180      0.1811
     31  C        240.3570  191.4420  187.9400 C.2   180  GLY180      0.2280
     32  O        241.3710  191.8540  188.5090 O.2   180  GLY180     -0.2866
     33  N        239.7730  189.8910  191.2400 N.3   182  PRO182     -0.2102
     34  CA       240.3760  189.3900  192.4860 C.3   182  PRO182      0.1504
     35  C        241.8790  189.3070  192.4340 C.2   182  PRO182      0.2576
     36  O        242.5330  189.3110  193.4840 O.2   182  PRO182     -0.2718
     37  CB       239.7890  187.9760  192.6200 C.3   182  PRO182      0.0282
     38  CG       238.7170  187.8840  191.5900 C.3   182  PRO182      0.0208
     39  CD       239.2380  188.7310  190.4970 C.3   182  PRO182      0.0893
     40  N        242.4330  189.2390  191.2420 N.am  183  GLY183     -0.1943
     41  CA       243.7900  188.8270  191.0280 C.3   183  GLY183      0.2014
     42  C        243.7740  187.3890  190.5750 C.2   183  GLY183      0.2640
     43  O        243.7740  186.4620  191.3860 O.2   183  GLY183     -0.2714
     44  N        243.7640  187.1980  189.2590 N.am  184  THR184     -0.1936
     45  CA       243.6460  185.8720  188.6550 C.3   184  THR184      0.2028
     46  C        244.5660  185.8710  187.4380 C.2   184  THR184      0.2643
     47  O        244.1390  186.1950  186.3300 O.2   184  THR184     -0.2714
     48  CB       242.2190  185.5420  188.2350 C.3   184  THR184      0.1808
     49  OG1      241.7450  186.5520  187.3390 O.3   184  THR184     -0.2208
     50  CG2      241.2620  185.4130  189.4070 C.3   184  THR184      0.0379
     51  N        245.8120  185.4720  187.6510 N.am  185  GLY185     -0.1939
     52  CA       246.6920  185.2570  186.5250 C.3   185  GLY185      0.2014
     53  C        247.1380  186.4930  185.7870 C.2   185  GLY185      0.2639
     54  O        247.5600  186.3810  184.6340 O.2   185  GLY185     -0.2714
     55  N        247.0560  187.6680  186.4080 N.am  186  LYS186     -0.1963
     56  CA       247.3910  188.8970  185.7000 C.3   186  LYS186      0.1728
     57  C        248.8870  188.9890  185.4460 C.2   186  LYS186      0.2617
     58  O        249.3210  189.6050  184.4690 O.2   186  LYS186     -0.2715
     59  CB       246.9170  190.1080  186.5010 C.3   186  LYS186      0.0311
     60  CG       245.4340  190.1190  186.8380 C.3   186  LYS186      0.0038
     61  CD       244.5680  190.2010  185.6280 C.3   186  LYS186      0.0206
     62  CE       244.6470  191.5710  185.0300 C.3   186  LYS186      0.1093
     63  NZ       244.0990  192.5660  185.9800 N.3   186  LYS186     -0.1314
     64  N        249.6840  188.3570  186.2990 N.am  187  THR187     -0.1937
     65  CA       251.1300  188.4950  186.2810 C.3   187  THR187      0.2028
     66  C        251.8300  187.3310  185.5940 C.2   187  THR187      0.2642
     67  O        252.8380  187.5480  184.9100 O.2   187  THR187     -0.2714
     68  CB       251.6310  188.6330  187.7230 C.3   187  THR187      0.1808
     69  OG1      250.8840  189.6620  188.3820 O.3   187  THR187     -0.2208
     70  CG2      253.0900  189.0140  187.7750 C.3   187  THR187      0.0379
     71  N        251.3010  186.1120  185.7570 N.am  188  LEU188     -0.1977
     72  CA       251.8860  184.9180  185.1480 C.3   188  LEU188      0.1596
     73  C        251.8800  185.0300  183.6410 C.2   188  LEU188      0.2287
     74  O        252.8730  184.7200  182.9720 O.2   188  LEU188     -0.2864
     75  CB       251.0890  183.6680  185.5120 C.3   188  LEU188      0.0297
     76  CG       250.9290  183.0600  186.8920 C.3   188  LEU188      0.0022
     77  CD1      249.8620  183.8240  187.6040 C.3   188  LEU188      0.0001
     78  CD2      250.5390  181.6040  186.7840 C.3   188  LEU188      0.0001
     79  N        254.4860  187.2150  182.7330 N.3   191  ARG191     -0.1245
     80  CA       255.7990  186.5990  182.8780 C.3   191  ARG191      0.1563
     81  C        256.0290  185.5030  181.8550 C.2   191  ARG191      0.2260
     82  O        257.1810  185.2060  181.5200 O.2   191  ARG191     -0.2867
     83  CB       255.9710  186.0370  184.2790 C.3   191  ARG191      0.0307
     84  CG       256.1260  187.1030  185.3110 C.3   191  ARG191      0.0489
     85  CD       256.2370  186.5170  186.6790 C.3   191  ARG191      0.2205
     86  NE       254.9710  185.9270  187.0610 N.pl3 191  ARG191     -0.0865
     87  CZ       254.7890  185.2050  188.1520 C.cat 191  ARG191      0.5346
     88  NH1      253.5940  184.7120  188.4270 N.pl3 191  ARG191      0.1354
     89  NH2      255.8010  184.9740  188.9630 N.pl3 191  ARG191      0.1354
     90  N        249.6040  197.8420  187.5000 N.3   240  GLU240     -0.1245
     91  CA       248.6300  198.4470  188.4030 C.3   240  GLU240      0.1567
     92  C        248.3360  199.9040  188.0430 C.2   240  GLU240      0.2260
     93  O        248.7190  200.8330  188.7510 O.2   240  GLU240     -0.2867
     94  CB       249.1000  198.3370  189.8560 C.3   240  GLU240      0.0388
     95  CG       249.1530  196.9230  190.3670 C.3   240  GLU240      0.1160
     96  CD       247.7820  196.2830  190.4530 C.2   240  GLU240      0.3649
     97  OE1      246.7900  196.9980  190.7160 O.co2 240  GLU240     -0.2457
     98  OE2      247.6990  195.0550  190.2550 O.co2 240  GLU240     -0.2457
     99  N        242.8850  196.1220  188.0130 N.3   286  ASN286     -0.1240
    100  CA       241.4580  196.0920  188.2780 C.3   286  ASN286      0.1653
    101  C        240.9750  197.5390  188.3800 C.2   286  ASN286      0.2266
    102  O        241.6750  198.4580  187.9480 O.2   286  ASN286     -0.2867
    103  CB       241.1870  195.2400  189.5080 C.3   286  ASN286      0.1155
    104  CG       242.1050  195.5750  190.6480 C.2   286  ASN286      0.2627
    105  OD1      242.8960  196.5110  190.5690 O.2   286  ASN286     -0.2716
    106  ND2      242.0300  194.7930  191.7130 N.am  286  ASN286     -0.0877
    107  N        237.7370  181.1500  187.5780 N.3   310  PRO310     -0.2116
    108  CA       237.7730  179.9870  186.6880 C.3   310  PRO310      0.1372
    109  C        236.5850  179.0570  186.8840 C.2   310  PRO310      0.2244
    110  O        235.8040  179.1730  187.8270 O.2   310  PRO310     -0.2868
    111  CB       239.0820  179.3030  187.0770 C.3   310  PRO310      0.0268
    112  CG       239.3070  179.7050  188.4800 C.3   310  PRO310      0.0207
    113  CD       238.7970  181.0950  188.5970 C.3   310  PRO310      0.0892
    114  N        244.2630  173.7900  187.3830 N.3   318  ILE318     -0.1245
    115  CA       245.2250  174.5260  188.1980 C.3   318  ILE318      0.1561
    116  C        245.6120  173.7060  189.4170 C.2   318  ILE318      0.2260
    117  O        246.7660  173.7290  189.8660 O.2   318  ILE318     -0.2867
    118  CB       244.6300  175.8910  188.5830 C.3   318  ILE318      0.0252
    119  CG1      244.3370  176.7030  187.3270 C.3   318  ILE318      0.0019
    120  CG2      245.5700  176.6820  189.4630 C.3   318  ILE318      0.0019
    121  CD1      243.4820  177.9070  187.5860 C.3   318  ILE318      0.0001
    122  N        248.2430  171.4400  188.3840 N.3   321  ILE321     -0.1231
    123  CA       249.5340  172.0750  188.1560 C.3   321  ILE321      0.1692
    124  C        250.3160  172.1770  189.4560 C.2   321  ILE321      0.2592
    125  O        251.5090  171.8600  189.5130 O.2   321  ILE321     -0.2718
    126  CB       249.3350  173.4500  187.5000 C.3   321  ILE321      0.0266
    127  CG1      248.7350  173.2690  186.1130 C.3   321  ILE321      0.0019
    128  CG2      250.6420  174.1990  187.4010 C.3   321  ILE321      0.0020
    129  CD1      248.2350  174.5400  185.5090 C.3   321  ILE321      0.0001
    130  N        249.6550  172.5990  190.5250 N.am  322  HIS322     -0.1976
    131  CA       250.3580  172.8550  191.7710 C.3   322  HIS322      0.1656
    132  C        250.5110  171.6220  192.6420 C.2   322  HIS322      0.2291
    133  O        251.3300  171.6350  193.5640 O.2   322  HIS322     -0.2864
    134  CB       249.6460  173.9550  192.5470 C.3   322  HIS322      0.0771
    135  CG       249.6680  175.2740  191.8490 C.ar  322  HIS322      0.0820
    136  ND1      250.7970  176.0580  191.7860 N.ar  322  HIS322     -0.2267
    137  CD2      248.7090  175.9360  191.1620 C.ar  322  HIS322      0.1154
    138  CE1      250.5310  177.1530  191.0990 C.ar  322  HIS322      0.1986
    139  NE2      249.2700  177.1060  190.7120 N.ar  322  HIS322     -0.2212
    140  N        239.3360  181.8360  193.2330 N.3   345  SER345     -0.1202
    141  CA       240.1480  182.7240  192.4160 C.3   345  SER345      0.2020
    142  C        241.1610  181.9670  191.5770 C.2   345  SER345      0.2619
    143  O        241.3250  182.2570  190.3910 O.2   345  SER345     -0.2717
    144  CB       240.8920  183.7250  193.2960 C.3   345  SER345      0.2103
    145  OG       241.9240  183.0740  194.0150 O.3   345  SER345     -0.2182
    146  N        241.8400  180.9980  192.1660 N.am  346  GLY346     -0.1942
    147  CA       242.9880  180.3850  191.5560 C.3   346  GLY346      0.2014
    148  C        244.2920  180.7580  192.2150 C.2   346  GLY346      0.2638
    149  O        245.2420  179.9740  192.1690 O.2   346  GLY346     -0.2714
    150  N        244.3560  181.9310  192.8380 N.am  347  ALA347     -0.1977
    151  CA       245.4460  182.2160  193.7540 C.3   347  ALA347      0.1597
    152  C        245.2420  181.5340  195.0930 C.2   347  ALA347      0.2287
    153  O        246.1790  181.4720  195.8950 O.2   347  ALA347     -0.2864
    154  CB       245.5960  183.7220  193.9580 C.3   347  ALA347      0.0319
    155  N        246.3190  177.4840  195.1340 N.3   350  LYS350     -0.1245
    156  CA       247.6240  177.3160  195.7600 C.3   350  LYS350      0.1561
    157  C        247.5200  177.2430  197.2700 C.2   350  LYS350      0.2260
    158  O        248.2560  176.4770  197.9030 O.2   350  LYS350     -0.2867
    159  CB       248.5450  178.4700  195.4060 C.3   350  LYS350      0.0271
    160  CG       249.0820  178.4690  194.0150 C.3   350  LYS350      0.0035
    161  CD       249.9790  179.6790  193.8290 C.3   350  LYS350      0.0206
    162  CE       251.4460  179.3580  194.0920 C.3   350  LYS350      0.1093
    163  NZ       251.7880  179.1140  195.5210 N.3   350  LYS350     -0.1314
@<TRIPOS>BOND
     1    24    23    2
     2    23    22    1
     3    22    21    1
     4    22    25    1
     5    25    26    1
     6    16    14    1
     7    82    81    2
     8    81    80    1
     9     1     2    1
    10    17    18    1
    11    17    11   am
    12    13    14    1
    13    13    15    1
    14    13    10    1
    15    18    19    1
    16    26    28    1
    17    26    27    1
    18    19    20    2
    19    79    80    1
    20    80    83    1
    21    74    73    2
    22     9    10    1
    23     9     3   am
    24    10    11    1
    25    11    12    2
    26    73    72    1
    27     2     3    1
    28     2     5    1
    29     3     4    2
    30    83    84    1
    31    58    57    2
    32     6     5    1
    33     6     7    1
    34    54    53    2
    35    67    66    2
    36    62    61    1
    37    62    63    1
    38    72    75    1
    39    72    71    1
    40     8     7    1
    41    84    85    1
    42    57    56    1
    43    57    64   am
    44   129   127    1
    45    75    76    1
    46    66    71   am
    47    66    65    1
    48    61    60    1
    49    56    55    1
    50    56    59    1
    51    29    30    1
    52    53    55   am
    53    53    52    1
    54   127   126    1
    55    65    64    1
    56    65    68    1
    57    47    46    2
    58    30    31    1
    59    59    60    1
    60    52    51    1
    61    85    86    1
    62   108   109    1
    63   108   111    1
    64   108   107    1
    65    78    76    1
    66   109   110    2
    67    76    77    1
    68    86    87    2
    69   111   112    1
    70   119   121    1
    71   119   118    1
    72    49    48    1
    73   114   115    1
    74   128   126    1
    75    46    51   am
    76    46    45    1
    77    90    91    1
    78   126   123    1
    79   107   113    1
    80    68    70    1
    81    68    69    1
    82    31    32    2
    83   102   101    2
    84    99   100    1
    85    92    91    1
    86    92    93    2
    87    87    88    1
    88    87    89    1
    89   123   122    1
    90   123   124    1
    91   115   118    1
    92   115   116    1
    93    48    45    1
    94    48    50    1
    95   100   101    1
    96   100   103    1
    97    91    94    1
    98   112   113    1
    99   118   120    1
   100    45    44    1
   101    44    42   am
   102   116   117    2
   103   124   125    2
   104   124   130   am
   105   103   104    1
   106    94    95    1
   107    98    96   ar
   108    95    96    1
   109   143   142    2
   110    96    97   ar
   111    39    33    1
   112    39    38    1
   113   130   131    1
   114   105   104    2
   115    42    41    1
   116    42    43    2
   117   104   106   am
   118   139   138   ar
   119   139   137   ar
   120    41    40    1
   121   138   136   ar
   122   137   135   ar
   123    33    34    1
   124    40    35   am
   125   147   146    1
   126   147   148    1
   127   142   146   am
   128   142   141    1
   129    38    37    1
   130   131   134    1
   131   131   132    1
   132   136   135   ar
   133   135   134    1
   134   149   148    2
   135   148   150   am
   136   141   140    1
   137   141   144    1
   138    35    34    1
   139    35    36    2
   140    34    37    1
   141   132   133    2
   142   150   151    1
   143   144   145    1
   144   151   154    1
   145   151   152    1
   146   161   160    1
   147   161   162    1
   148   160   159    1
   149   162   163    1
   150   152   153    2
   151   155   156    1
   152   159   156    1
   153   156   157    1
   154   157   158    2
