@<TRIPOS>MOLECULE
tmp/6msjM00.pdb
 156 149 0 0 0
SMALL
GASTEIGER

@<TRIPOS>ATOM
      1  N        237.8870  256.6970  172.0410 N.3   156  ASP156     -0.1225
      2  CA       237.8920  255.2470  171.9180 C.3   156  ASP156      0.1805
      3  C        237.2430  254.5400  173.0940 C.2   156  ASP156      0.2598
      4  O        236.7370  253.4260  172.9290 O.2   156  ASP156     -0.2718
      5  CB       239.3220  254.7240  171.7730 C.3   156  ASP156      0.1424
      6  CG       239.9540  255.1110  170.4570 C.2   156  ASP156      0.3668
      7  OD1      239.2130  255.3200  169.4740 O.co2 156  ASP156     -0.2456
      8  OD2      241.1980  255.1920  170.4050 O.co2 156  ASP156     -0.2456
      9  N        237.2550  255.1400  174.2790 N.am  157  VAL157     -0.1966
     10  CA       236.8280  254.4180  175.4680 C.3   157  VAL157      0.1727
     11  C        235.5620  255.1210  175.9390 C.2   157  VAL157      0.2616
     12  O        235.2820  255.2140  177.1390 O.2   157  VAL157     -0.2715
     13  CB       237.9360  254.3960  176.5420 C.3   157  VAL157      0.0290
     14  CG1      237.7390  253.2380  177.5350 C.3   157  VAL157      0.0023
     15  CG2      239.3160  254.3490  175.9030 C.3   157  VAL157      0.0023
     16  N        234.8050  255.6570  174.9890 N.am  158  GLY158     -0.1955
     17  CA       233.5610  256.3110  175.3310 C.3   158  GLY158      0.1869
     18  C        232.5210  255.3240  175.8250 C.2   158  GLY158      0.2309
     19  O        232.5500  254.1350  175.5060 O.2   158  GLY158     -0.2863
     20  N        232.0250  254.8600  179.2240 N.3   160  CYS160     -0.1235
     21  CA       232.3050  254.7160  180.6450 C.3   160  CYS160      0.1677
     22  C        232.9050  256.0110  181.1640 C.2   160  CYS160      0.2270
     23  O        233.9060  255.9920  181.8860 O.2   160  CYS160     -0.2867
     24  CB       233.2520  253.5440  180.9010 C.3   160  CYS160      0.0956
     25  SG       232.5620  251.9200  180.5130 S.3   160  CYS160     -0.0801
     26  N        237.8390  241.0780  183.1100 N.3   198  PRO198     -0.2102
     27  CA       238.8900  241.2820  182.1110 C.3   198  PRO198      0.1504
     28  C        238.3190  241.8450  180.8230 C.2   198  PRO198      0.2576
     29  O        237.1830  241.5550  180.4420 O.2   198  PRO198     -0.2718
     30  CB       239.4500  239.8750  181.8970 C.3   198  PRO198      0.0282
     31  CG       238.3080  238.9840  182.1910 C.3   198  PRO198      0.0208
     32  CD       237.5310  239.6480  183.2910 C.3   198  PRO198      0.0893
     33  N        239.1250  242.6600  180.1510 N.am  199  GLY199     -0.1943
     34  CA       238.6820  243.2680  178.9120 C.3   199  GLY199      0.2014
     35  C        237.6050  244.3080  179.0910 C.2   199  GLY199      0.2640
     36  O        236.6470  244.3410  178.3130 O.2   199  GLY199     -0.2714
     37  N        237.7320  245.1610  180.0990 N.am  200  THR200     -0.1936
     38  CA       236.6860  246.1150  180.4200 C.3   200  THR200      0.2028
     39  C        237.0580  247.5360  180.0270 C.2   200  THR200      0.2643
     40  O        236.1710  248.3590  179.7810 O.2   200  THR200     -0.2714
     41  CB       236.3820  246.0380  181.9170 C.3   200  THR200      0.1808
     42  OG1      236.2850  244.6600  182.2820 O.3   200  THR200     -0.2208
     43  CG2      235.0390  246.6650  182.2370 C.3   200  THR200      0.0379
     44  N        238.3450  247.8230  179.8890 N.am  201  GLY201     -0.1939
     45  CA       238.7760  249.1750  179.6050 C.3   201  GLY201      0.2014
     46  C        239.8650  249.5830  180.5650 C.2   201  GLY201      0.2639
     47  O        240.1260  250.7730  180.7590 O.2   201  GLY201     -0.2714
     48  N        240.4990  248.5830  181.1770 N.am  202  LYS202     -0.1963
     49  CA       241.5130  248.8430  182.1900 C.3   202  LYS202      0.1728
     50  C        242.7450  249.4660  181.5600 C.2   202  LYS202      0.2617
     51  O        243.1650  250.5700  181.9240 O.2   202  LYS202     -0.2715
     52  CB       241.8920  247.5450  182.9000 C.3   202  LYS202      0.0311
     53  CG       241.0870  247.1900  184.1390 C.3   202  LYS202      0.0038
     54  CD       239.6370  246.8740  183.8320 C.3   202  LYS202      0.0206
     55  CE       238.8870  246.5220  185.0930 C.3   202  LYS202      0.1093
     56  NZ       239.4990  245.3140  185.7060 N.3   202  LYS202     -0.1314
     57  N        243.3230  248.7690  180.5880 N.am  203  THR203     -0.1937
     58  CA       244.4930  249.2820  179.8990 C.3   203  THR203      0.2028
     59  C        244.1220  250.4570  179.0040 C.2   203  THR203      0.2642
     60  O        244.9480  251.3480  178.7760 O.2   203  THR203     -0.2714
     61  CB       245.1270  248.1440  179.1000 C.3   203  THR203      0.1808
     62  OG1      245.2690  247.0000  179.9490 O.3   203  THR203     -0.2208
     63  CG2      246.5020  248.5230  178.5910 C.3   203  THR203      0.0379
     64  N        242.8750  250.4920  178.5290 N.am  204  LEU204     -0.1977
     65  CA       242.4200  251.5950  177.6880 C.3   204  LEU204      0.1596
     66  C        242.3650  252.9030  178.4570 C.2   204  LEU204      0.2287
     67  O        242.9010  253.9180  178.0030 O.2   204  LEU204     -0.2864
     68  CB       241.0470  251.2900  177.1100 C.3   204  LEU204      0.0297
     69  CG       240.9510  250.1820  176.0830 C.3   204  LEU204      0.0022
     70  CD1      239.5080  250.0720  175.6910 C.3   204  LEU204      0.0001
     71  CD2      241.8210  250.4910  174.8880 C.3   204  LEU204      0.0001
     72  N        250.4920  246.7380  186.4490 N.3   255  ASP255     -0.1225
     73  CA       249.5230  245.9490  185.7170 C.3   255  ASP255      0.1805
     74  C        249.8230  244.4900  185.9870 C.2   255  ASP255      0.2597
     75  O        250.9900  244.0880  185.9850 O.2   255  ASP255     -0.2718
     76  CB       249.5880  246.2480  184.2170 C.3   255  ASP255      0.1424
     77  CG       248.3450  245.8060  183.4800 C.2   255  ASP255      0.3668
     78  OD1      247.4350  245.2500  184.1260 O.co2 255  ASP255     -0.2456
     79  OD2      248.2770  246.0050  182.2480 O.co2 255  ASP255     -0.2456
     80  N        248.7560  243.7100  186.1760 N.am  256  GLU256     -0.1979
     81  CA       248.7980  242.2990  186.5620 C.3   256  GLU256      0.1602
     82  C        249.6470  242.1100  187.8210 C.2   256  GLU256      0.2287
     83  O        250.7150  241.5010  187.8180 O.2   256  GLU256     -0.2864
     84  CB       249.2880  241.4050  185.4180 C.3   256  GLU256      0.0415
     85  CG       248.3600  241.3770  184.2150 C.3   256  GLU256      0.1163
     86  CD       248.7270  242.4010  183.1540 C.2   256  GLU256      0.3649
     87  OE1      249.7910  243.0360  183.2820 O.co2 256  GLU256     -0.2457
     88  OE2      247.9530  242.5680  182.1890 O.co2 256  GLU256     -0.2457
     89  N        244.3590  244.8770  188.2520 N.3   301  THR301     -0.1203
     90  CA       244.3750  243.4250  188.2420 C.3   301  THR301      0.1994
     91  C        242.9860  242.8970  187.9280 C.2   301  THR301      0.2617
     92  O        241.9880  243.6180  187.9960 O.2   301  THR301     -0.2717
     93  CB       244.8580  242.8490  189.5750 C.3   301  THR301      0.1784
     94  OG1      244.9670  241.4240  189.4680 O.3   301  THR301     -0.2211
     95  CG2      243.8870  243.2060  190.6830 C.3   301  THR301      0.0376
     96  N        242.9460  241.6170  187.5760 N.am  302  ASN302     -0.1974
     97  CA       241.7040  240.9070  187.3360 C.3   302  ASN302      0.1688
     98  C        241.2010  240.1970  188.5820 C.2   302  ASN302      0.2292
     99  O        240.0170  239.8600  188.6540 O.2   302  ASN302     -0.2864
    100  CB       241.9020  239.8830  186.2130 C.3   302  ASN302      0.1181
    101  CG       240.6030  239.4700  185.5600 C.2   302  ASN302      0.2629
    102  OD1      239.5470  240.0240  185.8480 O.2   302  ASN302     -0.2716
    103  ND2      240.6730  238.4780  184.6850 N.am  302  ASN302     -0.0877
    104  N        228.4730  248.6910  180.2570 N.3   326  PRO326     -0.2116
    105  CA       227.6490  249.7980  179.7570 C.3   326  PRO326      0.1372
    106  C        226.1730  249.4370  179.7550 C.2   326  PRO326      0.2244
    107  O        225.8010  248.2900  179.5020 O.2   326  PRO326     -0.2868
    108  CB       228.1660  250.0020  178.3320 C.3   326  PRO326      0.0268
    109  CG       229.5210  249.3880  178.3250 C.3   326  PRO326      0.0207
    110  CD       229.4220  248.2180  179.2380 C.3   326  PRO326      0.0892
    111  N        230.0280  251.9960  171.5700 N.3   334  ILE334     -0.1245
    112  CA       231.1960  251.1660  171.2930 C.3   334  ILE334      0.1561
    113  C        231.0440  250.4380  169.9620 C.2   334  ILE334      0.2260
    114  O        232.0240  250.2670  169.2230 O.2   334  ILE334     -0.2867
    115  CB       231.4390  250.2030  172.4700 C.3   334  ILE334      0.0252
    116  CG1      231.8820  250.9910  173.6940 C.3   334  ILE334      0.0019
    117  CG2      232.5180  249.1850  172.1760 C.3   334  ILE334      0.0019
    118  CD1      231.8920  250.1770  174.9550 C.3   334  ILE334      0.0001
    119  N        232.1970  252.6340  167.4140 N.3   337  ILE337     -0.1231
    120  CA       233.6480  252.7710  167.3890 C.3   337  ILE337      0.1692
    121  C        234.2690  251.6900  166.5220 C.2   337  ILE337      0.2592
    122  O        235.0470  251.9730  165.6040 O.2   337  ILE337     -0.2718
    123  CB       234.2090  252.7360  168.8170 C.3   337  ILE337      0.0266
    124  CG1      233.7760  253.9830  169.5800 C.3   337  ILE337      0.0019
    125  CG2      235.7140  252.5950  168.7970 C.3   337  ILE337      0.0020
    126  CD1      234.0590  253.9100  171.0460 C.3   337  ILE337      0.0001
    127  N        233.9140  250.4430  166.7740 N.am  338  HIS338     -0.1976
    128  CA       234.5400  249.3250  166.0900 C.3   338  HIS338      0.1656
    129  C        233.9360  249.0440  164.7320 C.2   338  HIS338      0.2291
    130  O        234.2960  248.0460  164.1050 O.2   338  HIS338     -0.2864
    131  CB       234.4600  248.0840  166.9720 C.3   338  HIS338      0.0771
    132  CG       235.2600  248.2020  168.2250 C.ar  338  HIS338      0.0820
    133  ND1      235.0970  247.3530  169.2970 N.ar  338  HIS338     -0.2267
    134  CD2      236.2400  249.0660  168.5750 C.ar  338  HIS338      0.1154
    135  CE1      235.9330  247.6970  170.2580 C.ar  338  HIS338      0.1986
    136  NE2      236.6410  248.7310  169.8440 N.ar  338  HIS338     -0.2212
    137  N        233.4850  245.1160  175.9130 N.3   362  GLY362     -0.1210
    138  CA       233.9270  245.6580  174.6440 C.3   362  GLY362      0.1956
    139  C        234.9010  244.7510  173.9250 C.2   362  GLY362      0.2611
    140  O        235.0660  244.8580  172.7070 O.2   362  GLY362     -0.2717
    141  N        235.5650  243.8610  174.6630 N.am  363  ALA363     -0.1979
    142  CA       236.3440  242.8080  174.0280 C.3   363  ALA363      0.1597
    143  C        235.4430  241.8830  173.2240 C.2   363  ALA363      0.2287
    144  O        235.7850  241.4780  172.1080 O.2   363  ALA363     -0.2864
    145  CB       237.1200  242.0270  175.0830 C.3   363  ALA363      0.0319
    146  N        234.0850  243.9370  170.2130 N.3   366  ARG366     -0.1245
    147  CA       235.0700  243.9490  169.1430 C.3   366  ARG366      0.1563
    148  C        235.0970  242.6120  168.4200 C.2   366  ARG366      0.2260
    149  O        235.2900  242.5670  167.2010 O.2   366  ARG366     -0.2867
    150  CB       236.4410  244.2900  169.7240 C.3   366  ARG366      0.0307
    151  CG       237.5280  244.6970  168.7330 C.3   366  ARG366      0.0489
    152  CD       238.3650  243.5040  168.3540 C.3   366  ARG366      0.2205
    153  NE       238.8200  242.8300  169.5600 N.pl3 366  ARG366     -0.0865
    154  CZ       239.1680  241.5500  169.6170 C.cat 366  ARG366      0.5346
    155  NH1      239.1010  240.7870  168.5350 N.pl3 366  ARG366      0.1354
    156  NH2      239.5650  241.0290  170.7650 N.pl3 366  ARG366      0.1354
@<TRIPOS>BOND
     1   130   129    2
     2   129   128    1
     3   122   121    2
     4   128   127    1
     5   128   131    1
     6   121   127   am
     7   121   120    1
     8   131   132    1
     9   149   148    2
    10   120   119    1
    11   120   123    1
    12   132   134   ar
    13   132   133   ar
    14   152   151    1
    15   152   153    1
    16   148   147    1
    17   155   154    1
    18   134   136   ar
    19   151   150    1
    20   125   123    1
    21   123   124    1
    22   147   150    1
    23   147   146    1
    24   114   113    2
    25   133   135   ar
    26     7     6   ar
    27   153   154    2
    28   124   126    1
    29   154   156    1
    30   136   135   ar
    31   113   112    1
    32     8     6   ar
    33     6     5    1
    34   112   111    1
    35   112   115    1
    36     5     2    1
    37     2     1    1
    38     2     3    1
    39   144   143    2
    40   117   115    1
    41   115   116    1
    42   140   139    2
    43     4     3    2
    44     3     9   am
    45   143   142    1
    46   116   118    1
    47   139   138    1
    48   139   141   am
    49   142   141    1
    50   142   145    1
    51     9    10    1
    52   138   137    1
    53    71    69    1
    54    16    17    1
    55    16    11   am
    56    17    18    1
    57    10    11    1
    58    10    13    1
    59    19    18    2
    60    70    69    1
    61    15    13    1
    62    11    12    2
    63    69    68    1
    64    13    14    1
    65    68    65    1
    66    65    66    1
    67    65    64    1
    68    67    66    2
    69    36    35    2
    70   109   108    1
    71   109   110    1
    72   108   105    1
    73    64    59   am
    74    63    61    1
    75    60    59    2
    76    34    35    1
    77    34    33    1
    78    59    58    1
    79    35    37   am
    80    61    58    1
    81    61    62    1
    82    20    21    1
    83   110   104    1
    84   107   106    2
    85    45    44    1
    86    45    46    1
    87   106   105    1
    88   105   104    1
    89    40    39    2
    90    44    39   am
    91    58    57    1
    92    39    38    1
    93    37    38    1
    94    33    28   am
    95    38    41    1
    96    29    28    2
    97    25    24    1
    98    46    47    2
    99    46    48   am
   100    57    50   am
   101    21    24    1
   102    21    22    1
   103    28    27    1
   104    22    23    2
   105    48    49    1
   106    50    51    2
   107    50    49    1
   108    30    27    1
   109    30    31    1
   110    41    43    1
   111    41    42    1
   112    27    26    1
   113    88    86   ar
   114    49    52    1
   115    31    32    1
   116    79    77   ar
   117    52    53    1
   118    26    32    1
   119    86    87   ar
   120    86    85    1
   121    77    78   ar
   122    77    76    1
   123    54    53    1
   124    54    55    1
   125    85    84    1
   126    76    73    1
   127   103   101   am
   128    55    56    1
   129    84    81    1
   130   101   102    2
   131   101   100    1
   132    73    74    1
   133    73    72    1
   134    75    74    2
   135    74    80   am
   136    80    81    1
   137   100    97    1
   138    81    82    1
   139    97    96    1
   140    97    98    1
   141    96    91   am
   142    83    82    2
   143    91    92    2
   144    91    90    1
   145    90    89    1
   146    90    93    1
   147    98    99    2
   148    94    93    1
   149    93    95    1
