@<TRIPOS>MOLECULE
tmp/6msnA00.pdb
 119 112 0 0 0
SMALL
GASTEIGER

@<TRIPOS>ATOM
      1  N         32.1170   11.0830  -31.9890 N.3   106  CYS106     -0.1221
      2  CA        30.8620   11.0480  -32.7310 C.3   106  CYS106      0.1808
      3  C         29.7410   11.6450  -31.8900 C.2   106  CYS106      0.2601
      4  O         29.7680   11.5720  -30.6580 O.2   106  CYS106     -0.2717
      5  CB        30.4910    9.6200  -33.1500 C.3   106  CYS106      0.0970
      6  SG        29.0890    9.5620  -34.3140 S.3   106  CYS106     -0.0800
      7  N         28.7520   12.2470  -32.5670 N.am  107  GLN107     -0.1965
      8  CA        27.5980   12.7850  -31.8470 C.3   107  GLN107      0.1733
      9  C         26.7790   11.6810  -31.1960 C.2   107  GLN107      0.2616
     10  O         26.1510   11.9080  -30.1540 O.2   107  GLN107     -0.2715
     11  CB        26.7150   13.6300  -32.7760 C.3   107  GLN107      0.0408
     12  CG        25.8000   12.8460  -33.7240 C.3   107  GLN107      0.0908
     13  CD        26.5630   12.1810  -34.8460 C.2   107  GLN107      0.2608
     14  OE1       27.6170   12.6630  -35.2580 O.2   107  GLN107     -0.2717
     15  NE2       26.0400   11.0620  -35.3470 N.am  107  GLN107     -0.0878
     16  N         26.8020   10.4810  -31.7710 N.am  108  ASP108     -0.1971
     17  CA        26.1700    9.3040  -31.1820 C.3   108  ASP108      0.1709
     18  C         27.1500    8.6920  -30.1890 C.2   108  ASP108      0.2293
     19  O         27.9820    7.8570  -30.5460 O.2   108  ASP108     -0.2864
     20  CB        25.7900    8.3080  -32.2720 C.3   108  ASP108      0.1436
     21  CG        25.0380    7.1050  -31.7360 C.2   108  ASP108      0.3671
     22  OD1       24.9360    6.9560  -30.5000 O.co2 108  ASP108     -0.2456
     23  OD2       24.5410    6.3070  -32.5610 O.co2 108  ASP108     -0.2456
     24  N         25.8890   12.5100  -25.1450 N.3   146  ARG146     -0.1245
     25  CA        24.5070   12.6080  -25.5930 C.3   146  ARG146      0.1563
     26  C         23.6440   11.5800  -24.8800 C.2   146  ARG146      0.2260
     27  O         24.0870   10.4590  -24.6120 O.2   146  ARG146     -0.2867
     28  CB        24.3950   12.3960  -27.1110 C.3   146  ARG146      0.0307
     29  CG        23.0570   12.8280  -27.6930 C.3   146  ARG146      0.0489
     30  CD        23.0160   12.6020  -29.1960 C.3   146  ARG146      0.2205
     31  NE        22.8100   11.1930  -29.5200 N.pl3 146  ARG146     -0.0865
     32  CZ        22.7580   10.7050  -30.7580 C.cat 146  ARG146      0.5346
     33  NH1       22.8960   11.5120  -31.8060 N.pl3 146  ARG146      0.1354
     34  NH2       22.5630    9.4060  -30.9510 N.pl3 146  ARG146      0.1354
     35  N         27.5500    2.5270  -31.1190 N.3   187  GLY187     -0.1210
     36  CA        26.7050    3.3990  -31.9110 C.3   187  GLY187      0.1956
     37  C         25.4210    2.7120  -32.3350 C.2   187  GLY187      0.2612
     38  O         25.3760    1.4980  -32.5460 O.2   187  GLY187     -0.2717
     39  N         24.3560    3.5060  -32.4510 N.am  188  GLY188     -0.1942
     40  CA        23.0710    2.9430  -32.8400 C.3   188  GLY188      0.2014
     41  C         23.0660    2.4100  -34.2610 C.2   188  GLY188      0.2639
     42  O         22.5480    1.3200  -34.5250 O.2   188  GLY188     -0.2714
     43  N         23.6460    3.1610  -35.1980 N.am  189  GLY189     -0.1939
     44  CA        23.6050    2.7340  -36.5870 C.3   189  GLY189      0.2014
     45  C         24.4800    1.5380  -36.8860 C.2   189  GLY189      0.2639
     46  O         24.1720    0.7550  -37.7890 O.2   189  GLY189     -0.2714
     47  N         25.5870    1.3820  -36.1570 N.am  190  SER190     -0.1949
     48  CA        26.3610    0.1580  -36.3150 C.3   190  SER190      0.1924
     49  C         25.7120   -1.0050  -35.5740 C.2   190  SER190      0.2314
     50  O         25.7950   -2.1490  -36.0390 O.2   190  SER190     -0.2863
     51  CB        27.8100    0.3600  -35.8590 C.3   190  SER190      0.2116
     52  OG        27.8940    0.8220  -34.5250 O.3   190  SER190     -0.2180
     53  N         26.6270    2.4540  -41.9210 N.3   224  ALA224     -0.1231
     54  CA        27.2540    2.4780  -40.6040 C.3   224  ALA224      0.1694
     55  C         28.6790    3.0270  -40.6650 C.2   224  ALA224      0.2592
     56  O         29.5550    2.5770  -39.9280 O.2   224  ALA224     -0.2718
     57  CB        27.2340    1.0900  -39.9630 C.3   224  ALA224      0.0304
     58  N         28.9230    3.9920  -41.5520 N.am  225  CYS225     -0.1970
     59  CA        30.1610    4.7700  -41.5820 C.3   225  CYS225      0.1712
     60  C         31.4110    3.9050  -41.7180 C.2   225  CYS225      0.2296
     61  O         32.2480    3.8730  -40.8020 O.2   225  CYS225     -0.2864
     62  CB        30.2610    5.6340  -40.3230 C.3   225  CYS225      0.0983
     63  SG        28.8330    6.7360  -40.1180 S.3   225  CYS225     -0.0798
     64  N         15.1870   14.2120  -37.5750 N.3   385  ARG385     -0.1245
     65  CA        15.4170   12.7910  -37.8140 C.3   385  ARG385      0.1563
     66  C         14.1760   11.9620  -37.4740 C.2   385  ARG385      0.2260
     67  O         13.0560   12.3710  -37.7990 O.2   385  ARG385     -0.2867
     68  CB        16.6640   12.3030  -37.0560 C.3   385  ARG385      0.0307
     69  CG        16.7720   12.7070  -35.5890 C.3   385  ARG385      0.0489
     70  CD        18.1760   12.4150  -35.0240 C.3   385  ARG385      0.2205
     71  NE        18.3690   11.0090  -34.6550 N.pl3 385  ARG385     -0.0865
     72  CZ        19.5520   10.4760  -34.3470 C.cat 385  ARG385      0.5346
     73  NH1       20.6460   11.2310  -34.3620 N.pl3 385  ARG385      0.1354
     74  NH2       19.6460    9.1940  -34.0230 N.pl3 385  ARG385      0.1354
     75  N         27.4030   15.2680  -36.2290 N.3   429  GLY429     -0.1210
     76  CA        27.4520   14.6260  -37.5250 C.3   429  GLY429      0.1940
     77  C         26.1230   14.0040  -37.9130 C.2   429  GLY429      0.2454
     78  O         25.1370   14.0630  -37.1700 O.2   429  GLY429     -0.2732
     79  N         26.0790   13.3860  -39.0910 N.am  430  PRO430     -0.2717
     80  CA        24.8030   12.9430  -39.6600 C.3   430  PRO430      0.1536
     81  C         24.3140   11.5970  -39.1430 C.2   430  PRO430      0.2599
     82  O         25.0850   10.7380  -38.7080 O.2   430  PRO430     -0.2715
     83  CB        25.1070   12.8470  -41.1620 C.3   430  PRO430      0.0310
     84  CG        26.5840   12.5520  -41.2140 C.3   430  PRO430      0.0237
     85  CD        27.1690   13.3630  -40.0830 C.3   430  PRO430      0.0939
     86  N         22.9930   11.4420  -39.2400 N.am  431  THR431     -0.1937
     87  CA        22.1840   10.2560  -38.9910 C.3   431  THR431      0.2028
     88  C         22.0760    9.4170  -40.2720 C.2   431  THR431      0.2642
     89  O         22.2750    9.9180  -41.3830 O.2   431  THR431     -0.2714
     90  CB        20.8000   10.7110  -38.4860 C.3   431  THR431      0.1808
     91  OG1       20.9060   11.1400  -37.1220 O.3   431  THR431     -0.2208
     92  CG2       19.7240    9.6380  -38.5920 C.3   431  THR431      0.0379
     93  N         21.7740    8.1220  -40.1080 N.am  432  THR432     -0.1950
     94  CA        21.6100    7.2300  -41.2550 C.3   432  THR432      0.1897
     95  C         20.3780    7.6070  -42.0780 C.2   432  THR432      0.2313
     96  O         19.2520    7.5980  -41.5690 O.2   432  THR432     -0.2863
     97  CB        21.5050    5.7850  -40.7730 C.3   432  THR432      0.1794
     98  OG1       22.6680    5.4620  -40.0000 O.3   432  THR432     -0.2208
     99  CG2       21.4040    4.8220  -41.9500 C.3   432  THR432      0.0378
    100  N         16.7530    5.3580  -42.7660 N.3   435  ARG435     -0.1245
    101  CA        15.6300    5.2630  -41.8380 C.3   435  ARG435      0.1563
    102  C         14.5450    6.2910  -42.1250 C.2   435  ARG435      0.2260
    103  O         13.4260    6.1400  -41.6280 O.2   435  ARG435     -0.2867
    104  CB        16.1210    5.4140  -40.3990 C.3   435  ARG435      0.0307
    105  CG        17.0740    4.2960  -39.9670 C.3   435  ARG435      0.0489
    106  CD        17.0880    4.1360  -38.4570 C.3   435  ARG435      0.2205
    107  NE        17.3110    5.4110  -37.7830 N.pl3 435  ARG435     -0.0865
    108  CZ        18.5110    5.9150  -37.5070 C.cat 435  ARG435      0.5346
    109  NH1       18.6150    7.0830  -36.8920 N.pl3 435  ARG435      0.1354
    110  NH2       19.6100    5.2420  -37.8330 N.pl3 435  ARG435      0.1354
    111  N         23.9060   10.5540  -44.0740 N.3   455  LYS455     -0.1245
    112  CA        24.9230    9.6100  -44.5150 C.3   455  LYS455      0.1561
    113  C         24.2850    8.2590  -44.7910 C.2   455  LYS455      0.2260
    114  O         23.2730    7.8940  -44.1840 O.2   455  LYS455     -0.2867
    115  CB        26.0660    9.4570  -43.4870 C.3   455  LYS455      0.0271
    116  CG        25.6060    9.1710  -42.0580 C.3   455  LYS455      0.0035
    117  CD        25.6410    7.6760  -41.7330 C.3   455  LYS455      0.0206
    118  CE        25.3500    7.4560  -40.2500 C.3   455  LYS455      0.1093
    119  NZ        25.5580    6.0360  -39.8550 N.3   455  LYS455     -0.1314
@<TRIPOS>BOND
     1   113   112    1
     2   113   114    2
     3   112   111    1
     4   112   115    1
     5   115   116    1
     6   100   101    1
     7   102   101    1
     8   102   103    2
     9    95    96    2
    10    95    94    1
    11   116   117    1
    12    99    97    1
    13    53    54    1
    14   101   104    1
    15   117   118    1
    16    60    59    1
    17    60    61    2
    18    59    58    1
    19    59    62    1
    20    58    55   am
    21    89    88    2
    22    94    97    1
    23    94    93    1
    24    84    83    1
    25    84    85    1
    26    83    80    1
    27    97    98    1
    28    55    54    1
    29    55    56    2
    30    54    57    1
    31   104   105    1
    32    62    63    1
    33    88    93   am
    34    88    87    1
    35   118   119    1
    36    85    79    1
    37   105   106    1
    38    80    81    1
    39    80    79    1
    40    86    81   am
    41    86    87    1
    42    81    82    2
    43    79    77   am
    44    87    90    1
    45    92    90    1
    46    90    91    1
    47   106   107    1
    48    77    76    1
    49    77    78    2
    50   110   108    1
    51    65    64    1
    52    65    66    1
    53    65    68    1
    54    67    66    2
    55    46    45    2
    56   107   108    2
    57    76    75    1
    58   108   109    1
    59    68    69    1
    60    45    44    1
    61    45    47   am
    62    44    43    1
    63    48    47    1
    64    48    51    1
    65    48    49    1
    66    50    49    2
    67    51    52    1
    68    69    70    1
    69    15    13   am
    70    14    13    2
    71    43    41   am
    72    70    71    1
    73    13    12    1
    74    71    72    2
    75    42    41    2
    76    73    72    1
    77    72    74    1
    78     6     5    1
    79    41    40    1
    80    12    11    1
    81     5     2    1
    82    40    39    1
    83    11     8    1
    84     2     1    1
    85     2     3    1
    86     7     3   am
    87     7     8    1
    88    23    21   ar
    89    38    37    2
    90    39    37   am
    91    37    36    1
    92    20    21    1
    93    20    17    1
    94    36    35    1
    95     3     4    2
    96     8     9    1
    97    33    32    1
    98    16     9   am
    99    16    17    1
   100    21    22   ar
   101     9    10    2
   102    17    18    1
   103    34    32    1
   104    32    31    2
   105    19    18    2
   106    31    30    1
   107    30    29    1
   108    29    28    1
   109    28    25    1
   110    25    24    1
   111    25    26    1
   112    26    27    2
