@<TRIPOS>MOLECULE
tmp/6msoC03.pdb
 90 85 0 0 0
SMALL
GASTEIGER

@<TRIPOS>ATOM
      1  N         62.5950   17.2400  131.6510 N.3    67  SER67      -0.1217
      2  CA        63.1280   18.4210  130.9790 C.3    67  SER67       0.1889
      3  C         62.7380   18.4540  129.5050 C.2    67  SER67       0.2288
      4  O         62.5820   19.5360  128.9220 O.2    67  SER67      -0.2866
      5  CB        64.6460   18.4650  131.1230 C.3    67  SER67       0.2089
      6  OG        65.0030   18.6810  132.4740 O.3    67  SER67      -0.2183
      7  N         59.0520   19.7030  129.4070 N.3    70  LYS70      -0.1245
      8  CA        58.8020   21.1070  129.7240 C.3    70  LYS70       0.1561
      9  C         58.8070   21.9860  128.4830 C.2    70  LYS70       0.2260
     10  O         58.2380   23.0820  128.5030 O.2    70  LYS70      -0.2867
     11  CB        59.8420   21.6010  130.7410 C.3    70  LYS70       0.0271
     12  CG        60.0190   23.1120  130.8220 C.3    70  LYS70       0.0035
     13  CD        61.1780   23.5090  131.7130 C.3    70  LYS70       0.0206
     14  CE        61.0180   22.9140  133.0900 C.3    70  LYS70       0.1093
     15  NZ        61.8940   23.5760  134.0920 N.3    70  LYS70      -0.1314
     16  N         75.6510   15.4100  136.8950 N.3   249  HIS249     -0.1241
     17  CA        74.8440   15.7660  138.0690 C.3   249  HIS249      0.1621
     18  C         75.3220   15.1050  139.3730 C.2   249  HIS249      0.2264
     19  O         74.5590   15.0040  140.3350 O.2   249  HIS249     -0.2867
     20  CB        73.3590   15.4460  137.8290 C.3   249  HIS249      0.0745
     21  CG        72.6580   16.4370  136.9480 C.ar  249  HIS249      0.0817
     22  ND1       73.3330   17.2920  136.1040 N.ar  249  HIS249     -0.2268
     23  CD2       71.3420   16.7280  136.8060 C.ar  249  HIS249      0.1154
     24  CE1       72.4650   18.0610  135.4740 C.ar  249  HIS249      0.1986
     25  NE2       71.2510   17.7440  135.8870 N.ar  249  HIS249     -0.2212
     26  N         79.2060   24.9020  144.6930 N.3   267  ARG267     -0.1245
     27  CA        78.3830   25.0400  143.4990 C.3   267  ARG267      0.1563
     28  C         77.6990   26.4000  143.5180 C.2   267  ARG267      0.2260
     29  O         76.9650   26.7100  144.4610 O.2   267  ARG267     -0.2867
     30  CB        77.3470   23.9190  143.4390 C.3   267  ARG267      0.0307
     31  CG        76.2330   24.1990  142.4540 C.3   267  ARG267      0.0489
     32  CD        75.1790   23.1050  142.3860 C.3   267  ARG267      0.2205
     33  NE        74.2760   23.3790  141.2740 N.pl3 267  ARG267     -0.0865
     34  CZ        73.0170   22.9750  141.1940 C.cat 267  ARG267      0.5346
     35  NH1       72.4810   22.2570  142.1700 N.pl3 267  ARG267      0.1354
     36  NH2       72.2910   23.2930  140.1290 N.pl3 267  ARG267      0.1354
     37  N         72.5840   30.1430  132.2900 N.3   276  LEU276     -0.1245
     38  CA        71.3510   29.6450  131.6990 C.3   276  LEU276      0.1561
     39  C         70.6900   30.7100  130.8350 C.2   276  LEU276      0.2260
     40  O         70.2240   30.4140  129.7310 O.2   276  LEU276     -0.2867
     41  CB        70.3890   29.1530  132.7850 C.3   276  LEU276      0.0270
     42  CG        69.0810   28.5570  132.2410 C.3   276  LEU276      0.0019
     43  CD1       69.3430   27.2990  131.4050 C.3   276  LEU276      0.0001
     44  CD2       68.0320   28.2960  133.3420 C.3   276  LEU276      0.0001
     45  N         65.8380   26.3510  123.5950 N.3   292  TYR292     -0.1241
     46  CA        66.2790   25.2040  124.3830 C.3   292  TYR292      0.1605
     47  C         67.6480   24.7010  123.9380 C.2   292  TYR292      0.2264
     48  O         67.8370   23.5300  123.6250 O.2   292  TYR292     -0.2867
     49  CB        65.2320   24.1020  124.3360 C.3   292  TYR292      0.0534
     50  CG        64.1270   24.2910  125.3550 C.ar  292  TYR292     -0.0201
     51  CD1       64.3340   23.9790  126.7020 C.ar  292  TYR292     -0.0009
     52  CD2       62.8710   24.7780  124.9800 C.ar  292  TYR292     -0.0009
     53  CE1       63.3220   24.1450  127.6440 C.ar  292  TYR292      0.0417
     54  CE2       61.8560   24.9440  125.9180 C.ar  292  TYR292      0.0417
     55  CZ        62.0860   24.6250  127.2450 C.ar  292  TYR292      0.1957
     56  OH        61.0900   24.7820  128.1790 O.3   292  TYR292     -0.2866
     57  N         69.8940   24.6280  126.2290 N.3   294  ALA294     -0.1231
     58  CA        70.2590   23.8840  127.4330 C.3   294  ALA294      0.1694
     59  C         69.0520   23.5970  128.3270 C.2   294  ALA294      0.2592
     60  O         68.2580   24.4990  128.6290 O.2   294  ALA294     -0.2718
     61  CB        71.3220   24.6320  128.2380 C.3   294  ALA294      0.0304
     62  N         68.9460   22.3390  128.7800 N.am  295  HIS295     -0.1962
     63  CA        68.0340   22.0060  129.8710 C.3   295  HIS295      0.1787
     64  C         68.3550   22.8170  131.1190 C.2   295  HIS295      0.2620
     65  O         67.4870   23.4900  131.6740 O.2   295  HIS295     -0.2715
     66  CB        68.1360   20.5190  130.2210 C.3   295  HIS295      0.0785
     67  CG        67.8260   19.5810  129.0990 C.ar  295  HIS295      0.0821
     68  ND1       66.6090   19.5540  128.4580 N.ar  295  HIS295     -0.2267
     69  CD2       68.5780   18.6150  128.5190 C.ar  295  HIS295      0.1154
     70  CE1       66.6230   18.6060  127.5380 C.ar  295  HIS295      0.1986
     71  NE2       67.8090   18.0240  127.5540 N.ar  295  HIS295     -0.2212
     72  N         69.6050   22.7850  131.5630 N.am  296  ASP296     -0.1971
     73  CA        69.9920   23.4470  132.8010 C.3   296  ASP296      0.1709
     74  C         71.4960   23.6540  132.8010 C.2   296  ASP296      0.2293
     75  O         72.1910   23.2620  131.8620 O.2   296  ASP296     -0.2864
     76  CB        69.5700   22.6260  134.0040 C.3   296  ASP296      0.1436
     77  CG        69.8220   21.1800  133.8000 C.2   296  ASP296      0.3671
     78  OD1       70.8530   20.8560  133.1820 O.co2 296  ASP296     -0.2456
     79  OD2       68.9940   20.3630  134.2400 O.co2 296  ASP296     -0.2456
     80  N         75.1430   23.7960  135.4370 N.3   298  ARG298     -0.1245
     81  CA        75.8220   23.4890  136.6910 C.3   298  ARG298      0.1563
     82  C         77.1430   24.2290  136.7070 C.2   298  ARG298      0.2260
     83  O         77.8760   24.2090  135.7170 O.2   298  ARG298     -0.2867
     84  CB        76.0760   22.0040  136.8590 C.3   298  ARG298      0.0307
     85  CG        74.8200   21.1780  136.8650 C.3   298  ARG298      0.0489
     86  CD        74.0550   21.3220  138.1810 C.3   298  ARG298      0.2205
     87  NE        72.8900   20.4420  138.2110 N.pl3 298  ARG298     -0.0865
     88  CZ        71.6520   20.8040  137.8860 C.cat 298  ARG298      0.5346
     89  NH1       71.3830   22.0470  137.5030 N.pl3 298  ARG298      0.1354
     90  NH2       70.6760   19.9120  137.9510 N.pl3 298  ARG298      0.1354
@<TRIPOS>BOND
     1    45    46    1
     2    48    47    2
     3    47    46    1
     4    49    46    1
     5    49    50    1
     6    52    50   ar
     7    52    54   ar
     8    50    51   ar
     9    54    55   ar
    10    57    58    1
    11    51    53   ar
    12    55    53   ar
    13    55    56    1
    14    58    61    1
    15    58    59    1
    16    70    71   ar
    17    70    68   ar
    18    71    69   ar
    19    59    60    2
    20    59    62   am
    21    68    67   ar
    22     9    10    2
    23     9     8    1
    24    69    67   ar
    25    62    63    1
    26     4     3    2
    27    67    66    1
    28     7     8    1
    29     3     2    1
    30     8    11    1
    31    40    39    2
    32    63    66    1
    33    63    64    1
    34    11    12    1
    35    12    13    1
    36    39    38    1
    37     2     5    1
    38     2     1    1
    39    64    72   am
    40    64    65    2
    41     5     6    1
    42    43    42    1
    43    72    73    1
    44    38    37    1
    45    38    41    1
    46    13    14    1
    47    75    74    2
    48    42    41    1
    49    42    44    1
    50    74    73    1
    51    73    76    1
    52    14    15    1
    53    78    77   ar
    54    77    76    1
    55    77    79   ar
    56    80    81    1
    57    24    25   ar
    58    24    22   ar
    59    83    82    2
    60    25    23   ar
    61    22    21   ar
    62    81    82    1
    63    81    84    1
    64    23    21   ar
    65    84    85    1
    66    85    86    1
    67    16    17    1
    68    21    20    1
    69    89    88    1
    70    20    17    1
    71    88    90    1
    72    88    87    2
    73    17    18    1
    74    86    87    1
    75    18    19    2
    76    36    34    1
    77    34    33    2
    78    34    35    1
    79    33    32    1
    80    32    31    1
    81    31    30    1
    82    30    27    1
    83    27    28    1
    84    27    26    1
    85    28    29    2
