@<TRIPOS>MOLECULE
tmp/6msoA00.pdb
 117 109 0 0 0
SMALL
GASTEIGER

@<TRIPOS>ATOM
      1  N         88.4050   -6.0520   73.9940 N.3   105  CYS105     -0.1221
      2  CA        89.2820   -7.0540   73.4100 C.3   105  CYS105      0.1808
      3  C         90.1300   -7.7100   74.4920 C.2   105  CYS105      0.2601
      4  O         90.5430   -7.0570   75.4560 O.2   105  CYS105     -0.2717
      5  CB        90.1800   -6.4320   72.3390 C.3   105  CYS105      0.0970
      6  SG        91.0620   -7.6070   71.3230 S.3   105  CYS105     -0.0800
      7  N         90.4130   -9.0060   74.3070 N.am  106  GLN106     -0.1965
      8  CA        91.3140   -9.7090   75.2180 C.3   106  GLN106      0.1733
      9  C         92.6950   -9.0730   75.2210 C.2   106  GLN106      0.2616
     10  O         93.3490   -9.0130   76.2660 O.2   106  GLN106     -0.2715
     11  CB        91.4030  -11.1960   74.8520 C.3   106  GLN106      0.0408
     12  CG        92.2940  -11.5210   73.6560 C.3   106  GLN106      0.0908
     13  CD        91.6480  -11.1720   72.3280 C.2   106  GLN106      0.2608
     14  OE1       90.4220  -11.1280   72.2220 O.2   106  GLN106     -0.2717
     15  NE2       92.4710  -10.9150   71.3070 N.am  106  GLN106     -0.0878
     16  N         93.1410   -8.5510   74.0880 N.am  107  ASP107     -0.1971
     17  CA        94.3960   -7.8190   74.1010 C.3   107  ASP107      0.1709
     18  C         94.1130   -6.4040   74.5360 C.2   107  ASP107      0.2293
     19  O         93.7450   -5.5600   73.7250 O.2   107  ASP107     -0.2864
     20  CB        95.0760   -7.7890   72.7510 C.3   107  ASP107      0.1436
     21  CG        96.3110   -6.9110   72.7810 C.2   107  ASP107      0.3671
     22  OD1       96.8720   -6.7120   73.8670 O.co2 107  ASP107     -0.2456
     23  OD2       96.7230   -6.3940   71.7410 O.co2 107  ASP107     -0.2456
     24  N         94.6250   -7.4990   80.7160 N.3   145  ARG145     -0.1245
     25  CA        95.6460   -8.5040   80.4290 C.3   145  ARG145      0.1563
     26  C         97.0370   -7.9110   80.5810 C.2   145  ARG145      0.2260
     27  O         97.2680   -6.7550   80.2210 O.2   145  ARG145     -0.2867
     28  CB        95.4900   -9.0540   79.0130 C.3   145  ARG145      0.0307
     29  CG        96.0760  -10.4440   78.7950 C.3   145  ARG145      0.0489
     30  CD        95.8430  -10.9070   77.3590 C.3   145  ARG145      0.2205
     31  NE        96.7250  -10.2380   76.4240 N.pl3 145  ARG145     -0.0865
     32  CZ        96.6870  -10.3850   75.1030 C.cat 145  ARG145      0.5346
     33  NH1       95.7970  -11.1850   74.5310 N.pl3 145  ARG145      0.1354
     34  NH2       97.5440   -9.7220   74.3470 N.pl3 145  ARG145      0.1354
     35  N         96.6450   -2.3650   70.2710 N.3   186  GLY186     -0.1210
     36  CA        96.7580   -3.8050   70.1680 C.3   186  GLY186      0.1956
     37  C         97.9910   -4.2180   69.3830 C.2   186  GLY186      0.2612
     38  O         98.4660   -3.4940   68.5160 O.2   186  GLY186     -0.2717
     39  N         98.5270   -5.4000   69.7150 N.am  187  GLY187     -0.1942
     40  CA        99.7350   -5.8800   69.0530 C.3   187  GLY187      0.2014
     41  C         99.5400   -6.2110   67.5880 C.2   187  GLY187      0.2639
     42  O        100.4180   -5.9690   66.7650 O.2   187  GLY187     -0.2714
     43  N         98.3950   -6.7790   67.2380 N.am  188  GLY188     -0.1939
     44  CA        98.1980   -7.1940   65.8640 C.3   188  GLY188      0.2014
     45  C         97.9810   -6.0300   64.9280 C.2   188  GLY188      0.2639
     46  O         98.4010   -6.0760   63.7700 O.2   188  GLY188     -0.2714
     47  N         97.3040   -4.9810   65.4090 N.am  189  SER189     -0.1949
     48  CA        97.2210   -3.7430   64.6480 C.3   189  SER189      0.1924
     49  C         98.5550   -3.0140   64.6150 C.2   189  SER189      0.2314
     50  O         98.9070   -2.4170   63.5930 O.2   189  SER189     -0.2863
     51  CB        96.1540   -2.8300   65.2360 C.3   189  SER189      0.2116
     52  OG        96.3020   -2.7130   66.6370 O.3   189  SER189     -0.2180
     53  N         94.2660   -7.6190   61.0970 N.3   223  ALA223     -0.1245
     54  CA        94.1080   -6.6090   62.1360 C.3   223  ALA223      0.1562
     55  C         92.6370   -6.2790   62.3990 C.2   223  ALA223      0.2260
     56  O         92.3010   -5.1510   62.7680 O.2   223  ALA223     -0.2867
     57  CB        94.8950   -5.3510   61.7690 C.3   223  ALA223      0.0290
     58  N         99.2330  -20.1100   71.5920 N.3   395  ARG395     -0.1245
     59  CA        99.6760  -19.2030   70.5430 C.3   395  ARG395      0.1563
     60  C        101.2110  -19.1100   70.4610 C.2   395  ARG395      0.2260
     61  O        101.8890  -20.1460   70.4860 O.2   395  ARG395     -0.2867
     62  CB        99.0160  -17.8200   70.7070 C.3   395  ARG395      0.0307
     63  CG        98.8500  -17.2790   72.1190 C.3   395  ARG395      0.0489
     64  CD        98.4480  -15.7860   72.0740 C.3   395  ARG395      0.2205
     65  NE        99.6420  -14.9570   71.9910 N.pl3 395  ARG395     -0.0865
     66  CZ        99.6710  -13.6540   71.7440 C.cat 395  ARG395      0.5346
     67  NH1       98.5570  -12.9740   71.5390 N.pl3 395  ARG395      0.1354
     68  NH2      100.8420  -13.0290   71.7180 N.pl3 395  ARG395      0.1354
     69  N         94.8460  -15.7140   73.8700 N.3   425  GLY425     -0.1225
     70  CA        95.3500  -15.5090   75.2070 C.3   425  GLY425      0.1811
     71  C         94.3820  -14.6630   76.0070 C.2   425  GLY425      0.2280
     72  O         94.1750  -13.4880   75.7180 O.2   425  GLY425     -0.2866
     73  N         89.0710  -13.4760   72.8080 N.3   439  GLY439     -0.1210
     74  CA        88.9740  -13.5230   71.3650 C.3   439  GLY439      0.1940
     75  C         90.2250  -14.0790   70.7150 C.2   439  GLY439      0.2454
     76  O         91.2180  -14.3780   71.3690 O.2   439  GLY439     -0.2732
     77  N         90.1760  -14.2300   69.3880 N.am  440  PRO440     -0.2717
     78  CA        91.2550  -14.9180   68.6730 C.3   440  PRO440      0.1536
     79  C         92.4520  -14.0430   68.3050 C.2   440  PRO440      0.2599
     80  O         92.3510  -12.8280   68.1180 O.2   440  PRO440     -0.2715
     81  CB        90.5510  -15.4310   67.4130 C.3   440  PRO440      0.0310
     82  CG        89.5180  -14.3940   67.1390 C.3   440  PRO440      0.0237
     83  CD        89.0310  -13.9450   68.5020 C.3   440  PRO440      0.0939
     84  N         93.5970  -14.7180   68.1730 N.am  441  THR441     -0.1937
     85  CA        94.9180  -14.2160   67.8210 C.3   441  THR441      0.2028
     86  C         95.1420  -14.3140   66.3050 C.2   441  THR441      0.2642
     87  O         94.5150  -15.1210   65.6160 O.2   441  THR441     -0.2714
     88  CB        95.9670  -15.0370   68.6020 C.3   441  THR441      0.1808
     89  OG1       96.0560  -14.5680   69.9490 O.3   441  THR441     -0.2208
     90  CG2       97.3660  -15.0360   67.9800 C.3   441  THR441      0.0379
     91  N         96.0400  -13.4690   65.7930 N.am  442  THR442     -0.1950
     92  CA        96.3740  -13.4640   64.3730 C.3   442  THR442      0.1897
     93  C         96.9580  -14.7990   63.9300 C.2   442  THR442      0.2313
     94  O         98.0070  -15.2280   64.4230 O.2   442  THR442     -0.2863
     95  CB        97.3540  -12.3400   64.0680 C.3   442  THR442      0.1794
     96  OG1       96.8410  -11.1280   64.6080 O.3   442  THR442     -0.2208
     97  CG2       97.5380  -12.1760   62.5810 C.3   442  THR442      0.0378
     98  N        100.8460  -15.4030   62.3170 N.3   445  ARG445     -0.1245
     99  CA       102.0720  -15.5440   63.0880 C.3   445  ARG445      0.1563
    100  C        102.3890  -16.9890   63.4400 C.2   445  ARG445      0.2260
    101  O        103.5260  -17.2830   63.7910 O.2   445  ARG445     -0.2867
    102  CB       101.9870  -14.7390   64.3830 C.3   445  ARG445      0.0307
    103  CG       101.7390  -13.2500   64.1850 C.3   445  ARG445      0.0489
    104  CD       102.1690  -12.5000   65.3920 C.3   445  ARG445      0.2205
    105  NE       101.5600  -13.0600   66.5870 N.pl3 445  ARG445     -0.0865
    106  CZ       100.4430  -12.6180   67.1470 C.cat 445  ARG445      0.5346
    107  NH1       99.9930  -13.2180   68.2360 N.pl3 445  ARG445      0.1354
    108  NH2       99.7900  -11.5720   66.6310 N.pl3 445  ARG445      0.1354
    109  N         91.9960  -15.9750   63.8280 N.3   465  LYS465     -0.1245
    110  CA        91.4700  -14.9080   62.9850 C.3   465  LYS465      0.1561
    111  C         92.5370  -14.4680   61.9960 C.2   465  LYS465      0.2260
    112  O         93.7290  -14.5580   62.2730 O.2   465  LYS465     -0.2867
    113  CB        90.9840  -13.7000   63.8060 C.3   465  LYS465      0.0271
    114  CG        91.9870  -13.1220   64.7970 C.3   465  LYS465      0.0035
    115  CD        92.4170  -11.7300   64.3960 C.3   465  LYS465      0.0206
    116  CE        93.3550  -11.1320   65.4380 C.3   465  LYS465      0.1093
    117  NZ        93.9650   -9.8660   64.9740 N.3   465  LYS465     -0.1314
@<TRIPOS>BOND
     1    53    54    1
     2    57    54    1
     3   111   112    2
     4   111   110    1
     5    54    55    1
     6    98    99    1
     7    55    56    2
     8    97    95    1
     9   110   113    1
    10   110   109    1
    11    99   100    1
    12    99   102    1
    13   100   101    2
    14    50    49    2
    15    46    45    2
    16   113   114    1
    17    93    92    1
    18    93    94    2
    19    95    92    1
    20    95    96    1
    21   103   102    1
    22   103   104    1
    23    92    91    1
    24   115   114    1
    25   115   116    1
    26    49    48    1
    27    48    51    1
    28    48    47    1
    29    45    47   am
    30    45    44    1
    31   117   116    1
    32    51    52    1
    33   104   105    1
    34    87    86    2
    35    91    86   am
    36    44    43    1
    37    86    85    1
    38   105   106    2
    39   108   106    1
    40    42    41    2
    41    82    81    1
    42    82    83    1
    43   106   107    1
    44    43    41   am
    45    81    78    1
    46    41    40    1
    47    85    84    1
    48    85    88    1
    49    90    88    1
    50    80    79    2
    51    84    79   am
    52    79    78    1
    53    83    77    1
    54    38    37    2
    55    88    89    1
    56    78    77    1
    57    40    39    1
    58    37    39   am
    59    37    36    1
    60    77    75   am
    61    36    35    1
    62    60    61    2
    63    60    59    1
    64    59    62    1
    65    59    58    1
    66    62    63    1
    67    75    74    1
    68    75    76    2
    69    15    13   am
    70     6     5    1
    71    74    73    1
    72    67    66    1
    73    68    66    1
    74    23    21   ar
    75    66    65    2
    76    65    64    1
    77    64    63    1
    78    14    13    2
    79    13    12    1
    80     5     2    1
    81    20    21    1
    82    20    17    1
    83    21    22   ar
    84     2     1    1
    85     2     3    1
    86    12    11    1
    87    19    18    2
    88    69    70    1
    89    16    17    1
    90    16     9   am
    91    17    18    1
    92     7     3   am
    93     7     8    1
    94    34    32    1
    95     3     4    2
    96    33    32    1
    97    11     8    1
    98    32    31    2
    99    70    71    1
   100     8     9    1
   101     9    10    2
   102    72    71    2
   103    31    30    1
   104    30    29    1
   105    29    28    1
   106    28    25    1
   107    27    26    2
   108    25    26    1
   109    25    24    1
