@<TRIPOS>MOLECULE
tmp/6mt0A00.pdb
 169 158 0 0 0
SMALL
GASTEIGER

@<TRIPOS>ATOM
      1  N        -41.9460    4.6000    5.0530 N.3    12  LEU12      -0.1231
      2  CA       -42.5080    3.3120    5.4580 C.3    12  LEU12       0.1693
      3  C        -41.4900    2.5160    6.2380 C.2    12  LEU12       0.2592
      4  O        -41.8400    1.8050    7.1680 O.2    12  LEU12      -0.2718
      5  CB       -42.9810    2.5260    4.2410 C.3    12  LEU12       0.0284
      6  CG       -44.1020    3.2070    3.4530 C.3    12  LEU12       0.0019
      7  CD1      -44.5290    2.3410    2.2780 C.3    12  LEU12       0.0001
      8  CD2      -45.2930    3.5250    4.3500 C.3    12  LEU12       0.0001
      9  N        -40.2230    2.6330    5.8670 N.am   13  GLY13      -0.1957
     10  CA       -39.1690    1.9410    6.5840 C.3    13  GLY13       0.1869
     11  C        -37.7980    2.1920    6.0010 C.2    13  GLY13       0.2309
     12  O        -37.6600    2.7260    4.9040 O.2    13  GLY13      -0.2863
     13  N        -31.6110   -2.2060    3.1970 N.3    17  PHE17      -0.1241
     14  CA       -32.1690   -2.0440    1.8520 C.3    17  PHE17       0.1605
     15  C        -32.2110   -0.5970    1.3390 C.2    17  PHE17       0.2264
     16  O        -32.3980   -0.3730    0.1330 O.2    17  PHE17      -0.2867
     17  CB       -33.5890   -2.6320    1.7900 C.3    17  PHE17       0.0534
     18  CG       -34.5100   -2.1490    2.8920 C.ar   17  PHE17      -0.0203
     19  CD1      -35.2270   -0.9660    2.7540 C.ar   17  PHE17      -0.0042
     20  CD2      -34.6710   -2.8940    4.0640 C.ar   17  PHE17      -0.0042
     21  CE1      -36.0760   -0.5220    3.7630 C.ar   17  PHE17      -0.0003
     22  CE2      -35.5130   -2.4560    5.0760 C.ar   17  PHE17      -0.0003
     23  CZ       -36.2220   -1.2660    4.9220 C.ar   17  PHE17      -0.0000
     24  N        -37.5840    3.4700    2.1690 N.3    20  VAL20      -0.1245
     25  CA       -38.7780    3.3090    1.3480 C.3    20  VAL20       0.1561
     26  C        -39.8930    4.2260    1.8470 C.2    20  VAL20       0.2260
     27  O        -40.2510    4.1740    3.0230 O.2    20  VAL20      -0.2867
     28  CB       -39.2800    1.8440    1.3620 C.3    20  VAL20       0.0252
     29  CG1      -40.5970    1.7190    0.6070 C.3    20  VAL20       0.0019
     30  CG2      -38.2360    0.9200    0.7640 C.3    20  VAL20       0.0019
     31  N        -44.7680    2.8190   -3.8950 N.3    33  ALA33      -0.1245
     32  CA       -43.7070    2.8790   -2.9080 C.3    33  ALA33       0.1562
     33  C        -42.4710    3.3770   -3.6340 C.2    33  ALA33       0.2260
     34  O        -42.2730    3.0640   -4.8020 O.2    33  ALA33      -0.2867
     35  CB       -43.4650    1.5090   -2.2840 C.3    33  ALA33       0.0290
     36  N        -38.4060    3.6930   -3.3880 N.3    35  LYS35      -0.1245
     37  CA       -37.2290    3.1540   -2.7280 C.3    35  LYS35       0.1561
     38  C        -35.9880    3.8990   -3.1850 C.2    35  LYS35       0.2260
     39  O        -35.6950    3.9370   -4.3790 O.2    35  LYS35      -0.2867
     40  CB       -37.0890    1.6590   -3.0420 C.3    35  LYS35       0.0271
     41  CG       -35.8960    0.9710   -2.3940 C.3    35  LYS35       0.0035
     42  CD       -35.9080   -0.5260   -2.7020 C.3    35  LYS35       0.0206
     43  CE       -34.5790   -1.1670   -2.3570 C.3    35  LYS35       0.1093
     44  NZ       -34.6110   -2.6570   -2.3480 N.3    35  LYS35      -0.1314
     45  N        -30.7720   -5.1870   -8.6950 N.3    57  GLU57      -0.1245
     46  CA       -32.2060   -5.2590   -8.4040 C.3    57  GLU57       0.1567
     47  C        -33.0670   -4.7430   -9.5620 C.2    57  GLU57       0.2260
     48  O        -34.1540   -5.2670   -9.8200 O.2    57  GLU57      -0.2867
     49  CB       -32.5580   -4.5090   -7.1090 C.3    57  GLU57       0.0388
     50  CG       -34.0540   -4.4700   -6.8260 C.3    57  GLU57       0.1160
     51  CD       -34.4160   -3.9960   -5.4230 C.2    57  GLU57       0.3649
     52  OE1      -33.6640   -3.1680   -4.8560 O.co2  57  GLU57      -0.2457
     53  OE2      -35.4800   -4.4290   -4.9050 O.co2  57  GLU57      -0.2457
     54  N        -43.6240   -8.0920   -6.4430 N.3    72  ILE72      -0.1245
     55  CA       -43.8130   -6.6470   -6.4540 C.3    72  ILE72       0.1561
     56  C        -43.3390   -6.0650   -7.7900 C.2    72  ILE72       0.2260
     57  O        -42.2390   -6.3630   -8.2580 O.2    72  ILE72      -0.2867
     58  CB       -43.0430   -6.0020   -5.2870 C.3    72  ILE72       0.0252
     59  CG1      -43.6070   -4.6180   -4.9600 C.3    72  ILE72       0.0019
     60  CG2      -41.5290   -6.0170   -5.5540 C.3    72  ILE72       0.0019
     61  CD1      -44.9040   -4.6990   -4.1830 C.3    72  ILE72       0.0001
     62  N        -42.1910    1.3660   -6.9970 N.3    88  LEU88      -0.1231
     63  CA       -42.7650    0.0350   -6.8520 C.3    88  LEU88       0.1693
     64  C        -44.2570    0.1620   -6.6260 C.2    88  LEU88       0.2592
     65  O        -44.7370    1.1850   -6.1350 O.2    88  LEU88      -0.2718
     66  CB       -42.1310   -0.6900   -5.6590 C.3    88  LEU88       0.0284
     67  CG       -40.6050   -0.7450   -5.6610 C.3    88  LEU88       0.0019
     68  CD1      -40.0750   -1.2170   -4.3120 C.3    88  LEU88       0.0001
     69  CD2      -40.1020   -1.6430   -6.7810 C.3    88  LEU88       0.0001
     70  N        -45.0010   -0.8780   -6.9690 N.am   89  GLU89      -0.1966
     71  CA       -46.4240   -0.8660   -6.6920 C.3    89  GLU89       0.1733
     72  C        -46.6540   -0.9730   -5.1840 C.2    89  GLU89       0.2616
     73  O        -45.7810   -1.4290   -4.4360 O.2    89  GLU89      -0.2715
     74  CB       -47.1420   -1.9630   -7.4770 C.3    89  GLU89       0.0429
     75  CG       -47.1860   -3.3270   -6.8260 C.3    89  GLU89       0.1163
     76  CD       -47.5700   -4.4150   -7.8180 C.2    89  GLU89       0.3649
     77  OE1      -46.9390   -5.4900   -7.7780 O.co2  89  GLU89      -0.2457
     78  OE2      -48.4730   -4.1850   -8.6560 O.co2  89  GLU89      -0.2457
     79  N        -47.8100   -0.5010   -4.7360 N.am   90  ARG90      -0.1964
     80  CA       -48.1530   -0.5240   -3.3220 C.3    90  ARG90       0.1714
     81  C        -49.5930   -0.9870   -3.1710 C.2    90  ARG90       0.2458
     82  O        -50.5180   -0.2570   -3.5310 O.2    90  ARG90      -0.2730
     83  CB       -47.9480    0.8550   -2.6700 C.3    90  ARG90       0.0347
     84  CG       -48.4280    0.9350   -1.2230 C.3    90  ARG90       0.0492
     85  CD       -47.9300    2.1830   -0.5080 C.3    90  ARG90       0.2205
     86  NE       -48.3810    3.4290   -1.1400 N.pl3  90  ARG90      -0.0865
     87  CZ       -49.5400    4.0470   -0.8850 C.cat  90  ARG90       0.5346
     88  NH1      -50.4100    3.5540   -0.0100 N.pl3  90  ARG90       0.1354
     89  NH2      -49.8350    5.1730   -1.5240 N.pl3  90  ARG90       0.1354
     90  N        -49.7880   -2.2150   -2.6590 N.am   91  PRO91      -0.2727
     91  CA       -51.1390   -2.6520   -2.3170 C.3    91  PRO91       0.1402
     92  C        -51.7090   -1.8230   -1.1680 C.2    91  PRO91       0.2269
     93  O        -50.9460   -1.3200   -0.3400 O.2    91  PRO91      -0.2865
     94  CB       -50.9530   -4.1190   -1.8860 C.3    91  PRO91       0.0296
     95  CG       -49.6000   -4.5240   -2.3600 C.3    91  PRO91       0.0237
     96  CD       -48.7820   -3.2680   -2.4260 C.3    91  PRO91       0.0939
     97  N        -52.4660   -3.1030    3.2550 N.3    94  VAL94      -0.1231
     98  CA       -51.3480   -4.0300    3.1710 C.3    94  VAL94       0.1692
     99  C        -50.6950   -4.1740    4.5370 C.2    94  VAL94       0.2592
    100  O        -50.7140   -3.2440    5.3370 O.2    94  VAL94      -0.2718
    101  CB       -50.3130   -3.5520    2.1210 C.3    94  VAL94       0.0266
    102  CG1      -49.6440   -2.2550    2.5590 C.3    94  VAL94       0.0020
    103  CG2      -49.2680   -4.6190    1.8480 C.3    94  VAL94       0.0020
    104  N        -50.1590   -5.3610    4.8000 N.am   95  GLN95      -0.1966
    105  CA       -49.3410   -5.6200    5.9750 C.3    95  GLN95       0.1733
    106  C        -48.2300   -6.6020    5.6000 C.2    95  GLN95       0.2616
    107  O        -48.4440   -7.5380    4.8220 O.2    95  GLN95      -0.2715
    108  CB       -50.1830   -6.1990    7.1150 C.3    95  GLN95       0.0408
    109  CG       -49.4150   -6.3390    8.4210 C.3    95  GLN95       0.0908
    110  CD       -50.2930   -6.7850    9.5790 C.2    95  GLN95       0.2608
    111  OE1      -51.2070   -7.5770    9.3990 O.2    95  GLN95      -0.2717
    112  NE2      -50.0090   -6.2760   10.7800 N.am   95  GLN95      -0.0878
    113  N        -47.0470   -6.4090    6.1590 N.am   96  ASP96      -0.1971
    114  CA       -45.9720   -7.3280    5.8570 C.3    96  ASP96       0.1709
    115  C        -46.0940   -8.5520    6.7580 C.2    96  ASP96       0.2293
    116  O        -46.6450   -8.4870    7.8630 O.2    96  ASP96      -0.2864
    117  CB       -44.6110   -6.6420    5.9130 C.3    96  ASP96       0.1436
    118  CG       -43.8260   -6.9960    7.1320 C.2    96  ASP96       0.3671
    119  OD1      -43.9760   -6.2910    8.1420 O.co2  96  ASP96      -0.2456
    120  OD2      -43.0510   -7.9790    7.0770 O.co2  96  ASP96      -0.2456
    121  N        -44.9370   -8.7020   10.5690 N.3    99  ASP99      -0.1239
    122  CA       -45.8340   -8.0410   11.5180 C.3    99  ASP99       0.1674
    123  C        -47.1100   -8.8340   11.6950 C.2    99  ASP99       0.2266
    124  O        -47.6430   -8.9010   12.7990 O.2    99  ASP99      -0.2867
    125  CB       -46.1610   -6.6190   11.0600 C.3    99  ASP99       0.1410
    126  CG       -44.9490   -5.7370   11.0410 C.2    99  ASP99       0.3668
    127  OD1      -44.0320   -5.9940   11.8360 O.co2  99  ASP99      -0.2456
    128  OD2      -44.8900   -4.8010   10.2260 O.co2  99  ASP99      -0.2456
    129  N        -40.2670  -10.9230    6.4130 N.3   139  GLU139     -0.1231
    130  CA       -40.0440   -9.4760    6.2200 C.3   139  GLU139      0.1699
    131  C        -40.0710   -9.0420    4.7620 C.2   139  GLU139      0.2592
    132  O        -40.3170   -7.8750    4.4820 O.2   139  GLU139     -0.2718
    133  CB       -38.6980   -9.0390    6.8200 C.3   139  GLU139      0.0402
    134  CG       -38.5850   -9.2200    8.3250 C.3   139  GLU139      0.1161
    135  CD       -37.2070   -8.8470    8.8610 C.2   139  GLU139      0.3649
    136  OE1      -36.1980   -9.4510    8.4380 O.co2 139  GLU139     -0.2457
    137  OE2      -37.1350   -7.9430    9.7160 O.co2 139  GLU139     -0.2457
    138  N        -39.7890   -9.9620    3.8300 N.am  140  ASN140     -0.1974
    139  CA       -39.8050   -9.6380    2.3920 C.3   140  ASN140      0.1688
    140  C        -41.0610  -10.1130    1.6820 C.2   140  ASN140      0.2292
    141  O        -41.0630  -10.3100    0.4640 O.2   140  ASN140     -0.2864
    142  CB       -38.5410  -10.1690    1.7150 C.3   140  ASN140      0.1181
    143  CG       -37.3160   -9.3660    2.0920 C.2   140  ASN140      0.2629
    144  OD1      -37.4270   -8.1860    2.4280 O.2   140  ASN140     -0.2716
    145  ND2      -36.1480   -9.9890    2.0460 N.am  140  ASN140     -0.0877
    146  N        -45.2880   -9.1300    1.4880 N.3   142  LEU142     -0.1245
    147  CA       -46.4180   -8.2650    1.7920 C.3   142  LEU142      0.1561
    148  C        -47.7150   -9.0060    1.5390 C.2   142  LEU142      0.2260
    149  O        -47.8110   -9.8080    0.5980 O.2   142  LEU142     -0.2867
    150  CB       -46.3880   -7.0100    0.9290 C.3   142  LEU142      0.0270
    151  CG       -45.1350   -6.1540    1.0410 C.3   142  LEU142      0.0019
    152  CD1      -45.2490   -4.9770    0.0900 C.3   142  LEU142      0.0001
    153  CD2      -44.9140   -5.6850    2.4700 C.3   142  LEU142      0.0001
    154  N        -40.9850   -8.9960   -2.1310 N.3   153  ILE153     -0.1231
    155  CA       -40.2920   -7.7240   -2.2910 C.3   153  ILE153      0.1692
    156  C        -38.8010   -7.8560   -2.0580 C.2   153  ILE153      0.2592
    157  O        -38.3260   -8.8330   -1.4840 O.2   153  ILE153     -0.2718
    158  CB       -40.8540   -6.6330   -1.3480 C.3   153  ILE153      0.0266
    159  CG1      -40.7450   -7.0520    0.1180 C.3   153  ILE153      0.0019
    160  CG2      -42.3090   -6.3590   -1.6840 C.3   153  ILE153      0.0020
    161  CD1      -41.0670   -5.9450    1.1040 C.3   153  ILE153      0.0001
    162  N        -38.0850   -6.8440   -2.5290 N.am  154  ASP154     -0.1974
    163  CA       -36.6760   -6.6500   -2.2510 C.3   154  ASP154      0.1709
    164  C        -35.8020   -7.7020   -2.9340 C.2   154  ASP154      0.2293
    165  O        -35.5370   -8.7630   -2.3850 O.2   154  ASP154     -0.2864
    166  CB       -36.4150   -6.5930   -0.7360 C.3   154  ASP154      0.1436
    167  CG       -35.0820   -5.9250   -0.3920 C.2   154  ASP154      0.3671
    168  OD1      -34.1980   -5.8240   -1.2680 O.co2 154  ASP154     -0.2456
    169  OD2      -34.9190   -5.4930    0.7640 O.co2 154  ASP154     -0.2456
@<TRIPOS>BOND
     1    48    47    2
     2    47    46    1
     3    45    46    1
     4    78    76   ar
     5    46    49    1
     6    57    56    2
     7    76    77   ar
     8    76    75    1
     9    56    55    1
    10    74    75    1
    11    74    71    1
    12    49    50    1
    13    62    63    1
    14    70    71    1
    15    70    64   am
    16    63    64    1
    17    63    66    1
    18    50    51    1
    19    69    67    1
    20    71    72    1
    21    64    65    2
    22    55    54    1
    23    55    58    1
    24    67    66    1
    25    67    68    1
    26    60    58    1
    27    51    53   ar
    28    51    52   ar
    29    58    59    1
    30    72    79   am
    31    72    73    2
    32    59    61    1
    33    34    33    2
    34    79    80    1
    35    39    38    2
    36    31    32    1
    37    33    32    1
    38    82    81    2
    39    36    37    1
    40    80    81    1
    41    80    83    1
    42    38    37    1
    43    81    90   am
    44    40    37    1
    45    40    41    1
    46   164   165    2
    47   164   163    1
    48    32    35    1
    49    42    41    1
    50    42    43    1
    51    83    84    1
    52    90    96    1
    53    90    91    1
    54   162   163    1
    55   162   156   am
    56    96    95    1
    57    95    94    1
    58    43    44    1
    59    91    94    1
    60    91    92    1
    61   155   154    1
    62   155   156    1
    63   155   158    1
    64   163   166    1
    65   156   157    2
    66   160   158    1
    67    89    87    1
    68   158   159    1
    69   168   167   ar
    70    84    85    1
    71    92    93    2
    72    86    87    2
    73    86    85    1
    74    87    88    1
    75   166   167    1
    76   167   169   ar
    77   152   151    1
    78   159   161    1
    79    16    15    2
    80   141   140    2
    81   149   148    2
    82    29    28    1
    83    30    28    1
    84   150   151    1
    85   150   147    1
    86   151   153    1
    87    15    14    1
    88    25    28    1
    89    25    26    1
    90    25    24    1
    91   146   147    1
    92   148   147    1
    93   140   139    1
    94   142   143    1
    95   142   139    1
    96    17    14    1
    97    17    18    1
    98    26    27    2
    99   103   101    1
   100    14    13    1
   101   145   143   am
   102   143   144    2
   103   101   102    1
   104   101    98    1
   105     7     6    1
   106   139   138    1
   107    19    18   ar
   108    19    21   ar
   109    18    20   ar
   110    98    97    1
   111    98    99    1
   112     6     5    1
   113     6     8    1
   114    21    23   ar
   115   138   131   am
   116    20    22   ar
   117     5     2    1
   118   132   131    2
   119    99   104   am
   120    99   100    2
   121   131   130    1
   122   104   105    1
   123   107   106    2
   124    12    11    2
   125    23    22   ar
   126     1     2    1
   127     2     3    1
   128   106   105    1
   129   106   113   am
   130   114   117    1
   131   114   113    1
   132   114   115    1
   133     9     3   am
   134     9    10    1
   135   117   118    1
   136   105   108    1
   137    11    10    1
   138   130   129    1
   139   130   133    1
   140     3     4    2
   141   115   116    2
   142   133   134    1
   143   120   118   ar
   144   108   109    1
   145   118   119   ar
   146   134   135    1
   147   109   110    1
   148   136   135   ar
   149   135   137   ar
   150   111   110    2
   151   110   112   am
   152   128   126   ar
   153   121   122    1
   154   126   125    1
   155   126   127   ar
   156   125   122    1
   157   122   123    1
   158   123   124    2
