@<TRIPOS>MOLECULE
tmp/6mtnD03.pdb
 201 198 0 0 0
SMALL
GASTEIGER

@<TRIPOS>ATOM
      1  N       -467.5640  282.7600   20.2790 N.3    34  TRP34      -0.1241
      2  CA      -466.9720  282.7480   21.6020 C.3    34  TRP34       0.1605
      3  C       -467.5390  281.6540   22.4960 C.2    34  TRP34       0.2264
      4  O       -467.1830  281.6120   23.6770 O.2    34  TRP34      -0.2867
      5  CB      -467.1610  284.1190   22.2430 C.3    34  TRP34       0.0550
      6  CG      -467.1300  285.2140   21.2230 C.ar   34  TRP34       0.0003
      7  CD1     -468.2060  285.8220   20.6420 C.ar   34  TRP34       0.0946
      8  CD2     -465.9670  285.8170   20.6430 C.ar   34  TRP34       0.0152
      9  NE1     -467.7860  286.7740   19.7480 N.ar   34  TRP34      -0.2442
     10  CE2     -466.4160  286.7930   19.7300 C.ar   34  TRP34       0.0810
     11  CE3     -464.5910  285.6330   20.8130 C.ar   34  TRP34       0.0012
     12  CZ2     -465.5400  287.5810   18.9890 C.ar   34  TRP34       0.0191
     13  CZ3     -463.7220  286.4200   20.0750 C.ar   34  TRP34       0.0001
     14  CH2     -464.2010  287.3800   19.1740 C.ar   34  TRP34       0.0015
     15  N       -459.2500  283.3470   22.8150 N.3    73  ILE73      -0.1231
     16  CA      -459.9270  283.8680   21.6300 C.3    73  ILE73       0.1692
     17  C       -459.4650  283.1290   20.3810 C.2    73  ILE73       0.2591
     18  O       -460.2740  282.7810   19.5120 O.2    73  ILE73      -0.2718
     19  CB      -459.6930  285.3860   21.5090 C.3    73  ILE73       0.0266
     20  CG1     -460.2540  286.1180   22.7320 C.3    73  ILE73       0.0019
     21  CG2     -460.3030  285.9220   20.2280 C.3    73  ILE73       0.0020
     22  CD1     -461.6920  285.7700   23.0520 C.3    73  ILE73       0.0001
     23  N       -458.1580  282.8720   20.2740 N.am   74  ILE74      -0.1980
     24  CA      -457.6280  282.1410   19.1240 C.3    74  ILE74       0.1595
     25  C       -458.1850  280.7230   19.0940 C.2    74  ILE74       0.2287
     26  O       -458.6780  280.2510   18.0630 O.2    74  ILE74      -0.2864
     27  CB      -456.0900  282.1370   19.1530 C.3    74  ILE74       0.0276
     28  CG1     -455.5480  283.5560   18.9960 C.3    74  ILE74       0.0022
     29  CG2     -455.5320  281.2320   18.0650 C.3    74  ILE74       0.0022
     30  CD1     -454.0440  283.6230   19.0540 C.3    74  ILE74       0.0001
     31  N       -461.7180  280.5080   18.0280 N.3    77  TRP77      -0.1227
     32  CA      -461.9090  280.6800   16.5920 C.3    77  TRP77       0.1737
     33  C       -461.5440  279.4140   15.8270 C.2    77  TRP77       0.2595
     34  O       -462.2580  279.0170   14.8980 O.2    77  TRP77      -0.2718
     35  CB      -461.0910  281.8700   16.0990 C.3    77  TRP77       0.0564
     36  CG      -461.8340  283.1630   16.1580 C.ar   77  TRP77       0.0003
     37  CD1     -462.2090  283.8420   17.2800 C.ar   77  TRP77       0.0946
     38  CD2     -462.2940  283.9370   15.0460 C.ar   77  TRP77       0.0152
     39  NE1     -462.8780  284.9920   16.9350 N.ar   77  TRP77      -0.2442
     40  CE2     -462.9430  285.0740   15.5690 C.ar   77  TRP77       0.0810
     41  CE3     -462.2200  283.7810   13.6580 C.ar   77  TRP77       0.0012
     42  CZ2     -463.5140  286.0490   14.7540 C.ar   77  TRP77       0.0191
     43  CZ3     -462.7880  284.7490   12.8500 C.ar   77  TRP77       0.0001
     44  CH2     -463.4290  285.8680   13.4010 C.ar   77  TRP77       0.0015
     45  N       -460.4360  278.7680   16.2010 N.am   78  ASP78      -0.1974
     46  CA      -460.0750  277.4980   15.5770 C.3    78  ASP78       0.1709
     47  C       -461.1330  276.4360   15.8460 C.2    78  ASP78       0.2293
     48  O       -461.4300  275.6070   14.9770 O.2    78  ASP78      -0.2864
     49  CB      -458.7080  277.0350   16.0810 C.3    78  ASP78       0.1436
     50  CG      -457.5880  277.9830   15.6930 C.2    78  ASP78       0.3671
     51  OD1     -457.8710  279.0050   15.0320 O.co2  78  ASP78      -0.2456
     52  OD2     -456.4220  277.7020   16.0480 O.co2  78  ASP78      -0.2456
     53  N       -464.2370  277.2530   13.4960 N.3    81  LEU81      -0.1245
     54  CA      -464.0170  276.9990   12.0770 C.3    81  LEU81       0.1561
     55  C       -463.8710  275.5200   11.7520 C.2    81  LEU81       0.2260
     56  O       -464.0470  275.1380   10.5900 O.2    81  LEU81      -0.2867
     57  CB      -462.7670  277.7350   11.5870 C.3    81  LEU81       0.0270
     58  CG      -462.8980  279.2250   11.2730 C.3    81  LEU81       0.0019
     59  CD1     -461.6180  279.7470   10.6290 C.3    81  LEU81       0.0001
     60  CD2     -464.1010  279.4860   10.3790 C.3    81  LEU81       0.0001
     61  N       -462.5040  292.9690   18.5460 N.3   210  VAL210     -0.1245
     62  CA      -461.2500  293.1030   17.8180 C.3   210  VAL210      0.1561
     63  C       -461.3920  294.2870   16.8720 C.2   210  VAL210      0.2260
     64  O       -462.1220  294.2190   15.8770 O.2   210  VAL210     -0.2867
     65  CB      -460.8880  291.8260   17.0510 C.3   210  VAL210      0.0252
     66  CG1     -459.5530  292.0150   16.3550 C.3   210  VAL210      0.0019
     67  CG2     -460.8480  290.6280   17.9880 C.3   210  VAL210      0.0019
     68  N       -454.5440  295.5300    7.7030 N.3   324  GLU324     -0.1245
     69  CA      -455.1690  295.5630    9.0210 C.3   324  GLU324      0.1567
     70  C       -454.4770  296.5220    9.9810 C.2   324  GLU324      0.2260
     71  O       -455.0580  296.8510   11.0210 O.2   324  GLU324     -0.2867
     72  CB      -455.1930  294.1600    9.6340 C.3   324  GLU324      0.0388
     73  CG      -456.1020  293.1720    8.9180 C.3   324  GLU324      0.1160
     74  CD      -455.4290  292.5040    7.7350 C.2   324  GLU324      0.3649
     75  OE1     -454.2460  292.8100    7.4710 O.co2 324  GLU324     -0.2457
     76  OE2     -456.0830  291.6700    7.0720 O.co2 324  GLU324     -0.2457
     77  N       -459.6580  298.7870   11.2130 N.3   329  SER329     -0.1202
     78  CA      -460.2960  297.5290   10.8570 C.3   329  SER329      0.2020
     79  C       -461.1340  297.0170   12.0200 C.2   329  SER329      0.2619
     80  O       -460.7720  297.1780   13.1880 O.2   329  SER329     -0.2717
     81  CB      -459.2550  296.4780   10.4680 C.3   329  SER329      0.2103
     82  OG      -458.5520  296.0110   11.6050 O.3   329  SER329     -0.2182
     83  N       -462.2590  296.3910   11.6840 N.am  330  PHE330     -0.1961
     84  CA      -463.2100  295.8890   12.6690 C.3   330  PHE330      0.1771
     85  C       -464.2990  295.1270   11.9220 C.2   330  PHE330      0.2619
     86  O       -464.3730  295.1570   10.6900 O.2   330  PHE330     -0.2715
     87  CB      -463.8170  297.0160   13.5020 C.3   330  PHE330      0.0574
     88  CG      -464.7070  297.9310   12.7160 C.ar  330  PHE330     -0.0200
     89  CD1     -464.1710  298.8560   11.8350 C.ar  330  PHE330     -0.0042
     90  CD2     -466.0820  297.8680   12.8560 C.ar  330  PHE330     -0.0042
     91  CE1     -464.9880  299.6960   11.1080 C.ar  330  PHE330     -0.0003
     92  CE2     -466.9020  298.7120   12.1360 C.ar  330  PHE330     -0.0003
     93  CZ      -466.3550  299.6230   11.2580 C.ar  330  PHE330     -0.0000
     94  N       -465.1490  294.4500   12.6890 N.am  331  ASN331     -0.1972
     95  CA      -466.2820  293.7030   12.1570 C.3   331  ASN331      0.1688
     96  C       -467.5640  294.4460   12.5070 C.2   331  ASN331      0.2292
     97  O       -467.8390  294.6940   13.6860 O.2   331  ASN331     -0.2864
     98  CB      -466.3080  292.2800   12.7160 C.3   331  ASN331      0.1181
     99  CG      -467.5880  291.5420   12.3740 C.2   331  ASN331      0.2629
    100  OD1     -468.5850  291.6470   13.0880 O.2   331  ASN331     -0.2716
    101  ND2     -467.5630  290.7850   11.2820 N.am  331  ASN331     -0.0877
    102  N       -466.2080  292.5750    7.3370 N.3   336  PHE336     -0.1241
    103  CA      -465.0020  293.1450    7.9250 C.3   336  PHE336      0.1605
    104  C       -464.6350  294.4300    7.1930 C.2   336  PHE336      0.2264
    105  O       -464.1890  294.3950    6.0410 O.2   336  PHE336     -0.2867
    106  CB      -463.8650  292.1270    7.8860 C.3   336  PHE336      0.0534
    107  CG      -464.1110  290.9230    8.7510 C.ar  336  PHE336     -0.0203
    108  CD1     -463.6800  290.9030   10.0680 C.ar  336  PHE336     -0.0042
    109  CD2     -464.7910  289.8210    8.2560 C.ar  336  PHE336     -0.0042
    110  CE1     -463.9110  289.8030   10.8710 C.ar  336  PHE336     -0.0003
    111  CE2     -465.0260  288.7170    9.0560 C.ar  336  PHE336     -0.0003
    112  CZ      -464.5850  288.7090   10.3640 C.ar  336  PHE336     -0.0000
    113  N       -462.6260  298.1650    6.6170 N.3   338  TYR338     -0.1241
    114  CA      -461.2470  298.6590    6.6400 C.3   338  TYR338      0.1605
    115  C       -461.3030  300.1430    6.2670 C.2   338  TYR338      0.2264
    116  O       -461.1890  300.5090    5.0950 O.2   338  TYR338     -0.2867
    117  CB      -460.3520  297.8600    5.7020 C.3   338  TYR338      0.0534
    118  CG      -460.1770  296.4180    6.1340 C.ar  338  TYR338     -0.0201
    119  CD1     -459.1760  296.0570    7.0210 C.ar  338  TYR338     -0.0009
    120  CD2     -461.0230  295.4230    5.6670 C.ar  338  TYR338     -0.0009
    121  CE1     -459.0160  294.7460    7.4270 C.ar  338  TYR338      0.0417
    122  CE2     -460.8730  294.1100    6.0690 C.ar  338  TYR338      0.0417
    123  CZ      -459.8670  293.7760    6.9480 C.ar  338  TYR338      0.1957
    124  OH      -459.7090  292.4680    7.3500 O.3   338  TYR338     -0.2866
    125  N       -460.5370  287.1350    5.2680 N.3   365  ILE365     -0.1231
    126  CA      -459.7310  287.5880    6.3940 C.3   365  ILE365      0.1692
    127  C       -458.8670  286.4250    6.8570 C.2   365  ILE365      0.2592
    128  O       -459.3290  285.2790    6.9270 O.2   365  ILE365     -0.2718
    129  CB      -460.6070  288.1420    7.5360 C.3   365  ILE365      0.0266
    130  CG1     -461.5400  287.0650    8.0990 C.3   365  ILE365      0.0019
    131  CG2     -461.4050  289.3470    7.0540 C.3   365  ILE365      0.0020
    132  CD1     -461.0650  286.4710    9.4180 C.3   365  ILE365      0.0001
    133  N       -457.6050  286.7100    7.1490 N.am  366  ASN366     -0.1960
    134  CA      -456.6480  285.6870    7.5390 C.3   366  ASN366      0.1819
    135  C       -456.2180  285.8980    8.9870 C.2   366  ASN366      0.2621
    136  O       -456.6710  286.8180    9.6740 O.2   366  ASN366     -0.2715
    137  CB      -455.4460  285.6840    6.5920 C.3   366  ASN366      0.1195
    138  CG      -454.8720  287.0680    6.3740 C.2   366  ASN366      0.2630
    139  OD1     -455.6040  288.0550    6.3160 O.2   366  ASN366     -0.2716
    140  ND2     -453.5520  287.1460    6.2530 N.am  366  ASN366     -0.0877
    141  N       -455.3270  285.0230    9.4480 N.am  367  MET367     -0.1963
    142  CA      -454.9080  284.9960   10.8420 C.3   367  MET367      0.1736
    143  C       -453.7240  285.9310   11.0570 C.2   367  MET367      0.2616
    144  O       -452.7740  285.9340   10.2680 O.2   367  MET367     -0.2715
    145  CB      -454.5420  283.5700   11.2570 C.3   367  MET367      0.0427
    146  CG      -454.2490  283.3980   12.7370 C.3   367  MET367      0.0599
    147  SD      -453.8150  281.6960   13.1450 S.3   367  MET367     -0.1393
    148  CE      -455.2680  280.8230   12.5630 C.3   367  MET367      0.0692
    149  N       -453.7870  286.7210   12.1300 N.am  368  TRP368     -0.1960
    150  CA      -452.7010  287.6270   12.4760 C.3   368  TRP368      0.1771
    151  C       -451.5410  286.9240   13.1680 C.2   368  TRP368      0.2619
    152  O       -450.5060  287.5570   13.4040 O.2   368  TRP368     -0.2715
    153  CB      -453.2190  288.7570   13.3720 C.3   368  TRP368      0.0590
    154  CG      -454.2320  289.6530   12.7160 C.ar  368  TRP368      0.0006
    155  CD1     -454.6430  289.6190   11.4150 C.ar  368  TRP368      0.0946
    156  CD2     -454.9630  290.7190   13.3380 C.ar  368  TRP368      0.0152
    157  NE1     -455.5830  290.5960   11.1890 N.ar  368  TRP368     -0.2442
    158  CE2     -455.7960  291.2860   12.3540 C.ar  368  TRP368      0.0810
    159  CE3     -454.9900  291.2490   14.6300 C.ar  368  TRP368      0.0012
    160  CZ2     -456.6510  292.3540   12.6240 C.ar  368  TRP368      0.0191
    161  CZ3     -455.8390  292.3090   14.8970 C.ar  368  TRP368      0.0001
    162  CH2     -456.6580  292.8500   13.8990 C.ar  368  TRP368      0.0015
    163  N       -451.6850  285.6410   13.5000 N.am  369  GLN369     -0.1977
    164  CA      -450.6220  284.8980   14.1660 C.3   369  GLN369      0.1601
    165  C       -449.8130  284.1000   13.1530 C.2   369  GLN369      0.2287
    166  O       -448.7790  284.5700   12.6670 O.2   369  GLN369     -0.2864
    167  CB      -451.2070  283.9760   15.2370 C.3   369  GLN369      0.0394
    168  CG      -451.8880  284.7160   16.3730 C.3   369  GLN369      0.0908
    169  CD      -450.9340  285.6210   17.1280 C.2   369  GLN369      0.2608
    170  OE1     -450.0710  285.1520   17.8710 O.2   369  GLN369     -0.2717
    171  NE2     -451.0820  286.9280   16.9380 N.am  369  GLN369     -0.0878
    172  N       -453.6610  279.7140    7.5400 N.3   373  GLN373     -0.1231
    173  CA      -455.0770  279.4690    7.7710 C.3   373  GLN373      0.1698
    174  C       -455.8310  280.7770    7.5900 C.2   373  GLN373      0.2592
    175  O       -455.4520  281.7980    8.1720 O.2   373  GLN373     -0.2718
    176  CB      -455.3250  278.8970    9.1700 C.3   373  GLN373      0.0381
    177  CG      -456.7670  278.4910    9.4080 C.3   373  GLN373      0.0905
    178  CD      -457.3390  277.7110    8.2410 C.2   373  GLN373      0.2608
    179  OE1     -458.2810  278.1550    7.5850 O.2   373  GLN373     -0.2717
    180  NE2     -456.7670  276.5430    7.9720 N.am  373  GLN373     -0.0878
    181  N       -456.8890  280.7460    6.7800 N.am  374  ALA374     -0.1966
    182  CA      -457.6560  281.9380    6.4520 C.3   374  ALA374      0.1728
    183  C       -459.1340  281.5900    6.3450 C.2   374  ALA374      0.2616
    184  O       -459.5010  280.4780    5.9530 O.2   374  ALA374     -0.2715
    185  CB      -457.1770  282.5790    5.1460 C.3   374  ALA374      0.0334
    186  N       -459.9780  282.5630    6.6790 N.am  375  MET375     -0.1977
    187  CA      -461.4200  282.3770    6.7480 C.3   375  MET375      0.1605
    188  C       -462.1180  283.1840    5.6610 C.2   375  MET375      0.2287
    189  O       -461.7200  284.3140    5.3610 O.2   375  MET375     -0.2864
    190  CB      -461.9590  282.7980    8.1200 C.3   375  MET375      0.0413
    191  CG      -463.4660  282.6340    8.2780 C.3   375  MET375      0.0598
    192  SD      -464.1030  283.2260    9.8610 S.3   375  MET375     -0.1393
    193  CE      -464.2900  284.9760    9.5330 C.3   375  MET375      0.0692
    194  N       -453.4830  291.5330   18.6420 N.3   410  MET410     -0.1245
    195  CA      -454.8060  291.4330   19.2550 C.3   410  MET410      0.1570
    196  C       -454.7830  291.7150   20.7520 C.2   410  MET410      0.2261
    197  O       -455.7590  292.2500   21.2910 O.2   410  MET410     -0.2867
    198  CB      -455.3990  290.0460   19.0050 C.3   410  MET410      0.0387
    199  CG      -455.8320  289.7870   17.5780 C.3   410  MET410      0.0595
    200  SD      -456.4260  288.1000   17.3250 S.3   410  MET410     -0.1393
    201  CE      -457.8670  288.0730   18.3910 C.3   410  MET410      0.0692
@<TRIPOS>BOND
     1   116   115    2
     2   185   182    1
     3   125   126    1
     4   189   188    2
     5   188   187    1
     6   120   122   ar
     7   120   118   ar
     8   117   118    1
     9   117   114    1
    10   184   183    2
    11   105   104    2
    12   122   123   ar
    13   118   119   ar
    14   140   138   am
    15   115   114    1
    16   139   138    2
    17   183   182    1
    18   183   186   am
    19   138   137    1
    20   126   127    1
    21   126   129    1
    22   182   181    1
    23   137   134    1
    24   113   114    1
    25   186   187    1
    26   187   190    1
    27   181   174   am
    28   127   128    2
    29   127   133   am
    30   123   124    1
    31   123   121   ar
    32   119   121   ar
    33   131   129    1
    34    76    74   ar
    35   133   134    1
    36   104   103    1
    37   102   103    1
    38    75    74   ar
    39   129   130    1
    40   134   135    1
    41   172   173    1
    42   179   178    2
    43   174   173    1
    44   174   175    2
    45    68    69    1
    46    74    73    1
    47   173   176    1
    48   106   103    1
    49   106   107    1
    50   180   178   am
    51   130   132    1
    52   190   191    1
    53   178   177    1
    54   109   107   ar
    55   109   111   ar
    56   191   192    1
    57   107   108   ar
    58    73    72    1
    59   135   141   am
    60   135   136    2
    61    69    72    1
    62    69    70    1
    63   111   112   ar
    64   176   177    1
    65   141   142    1
    66   193   192    1
    67    70    71    2
    68   108   110   ar
    69   144   143    2
    70   112   110   ar
    71    60    58    1
    72    81    78    1
    73    81    82    1
    74    56    55    2
    75    59    58    1
    76    86    85    2
    77   142   143    1
    78   142   145    1
    79    78    77    1
    80    78    79    1
    81   143   149   am
    82    91    93   ar
    83    91    89   ar
    84   157   155   ar
    85   157   158   ar
    86   145   146    1
    87    93    92   ar
    88    58    57    1
    89   101    99   am
    90   155   154   ar
    91    57    54    1
    92    83    79   am
    93    83    84    1
    94    55    54    1
    95    89    88   ar
    96    85    84    1
    97    85    94   am
    98    79    80    2
    99    54    53    1
   100   149   150    1
   101    92    90   ar
   102    95    96    1
   103    95    94    1
   104    95    98    1
   105   158   160   ar
   106   158   156   ar
   107    99    98    1
   108    99   100    2
   109   150   151    1
   110   150   153    1
   111    96    97    2
   112   148   147    1
   113   160   162   ar
   114   166   165    2
   115    84    87    1
   116   154   156   ar
   117   154   153    1
   118    88    90   ar
   119    88    87    1
   120   146   147    1
   121    43    44   ar
   122    43    41   ar
   123   165   164    1
   124   151   152    2
   125   151   163   am
   126   156   159   ar
   127    44    42   ar
   128   163   164    1
   129    41    38   ar
   130   162   161   ar
   131   164   167    1
   132   159   161   ar
   133    42    40   ar
   134    34    33    2
   135    48    47    2
   136    51    50   ar
   137    38    40   ar
   138    38    36   ar
   139   167   168    1
   140    40    39   ar
   141    46    47    1
   142    46    49    1
   143    46    45    1
   144    50    52   ar
   145    50    49    1
   146    33    45   am
   147    33    32    1
   148    64    63    2
   149    35    36    1
   150    35    32    1
   151    36    37   ar
   152    66    65    1
   153   168   169    1
   154    32    31    1
   155    63    62    1
   156    39    37   ar
   157   171   169   am
   158    65    62    1
   159    65    67    1
   160   169   170    2
   161   200   199    1
   162   200   201    1
   163   199   198    1
   164    62    61    1
   165    26    25    2
   166    29    27    1
   167   194   195    1
   168    12    14   ar
   169    12    10   ar
   170    28    30    1
   171    28    27    1
   172   198   195    1
   173    25    24    1
   174    24    27    1
   175    24    23    1
   176    14    13   ar
   177   195   196    1
   178    18    17    2
   179    10     9   ar
   180    10     8   ar
   181     9     7   ar
   182    13    11   ar
   183    21    19    1
   184    23    17   am
   185     1     2    1
   186    17    16    1
   187     7     6   ar
   188     8    11   ar
   189     8     6   ar
   190   196   197    2
   191     6     5    1
   192    19    16    1
   193    19    20    1
   194     2     5    1
   195     2     3    1
   196    16    15    1
   197     3     4    2
   198    20    22    1
