@<TRIPOS>MOLECULE
tmp/6mu0A00.pdb
 94 91 0 0 0
SMALL
GASTEIGER

@<TRIPOS>ATOM
      1  N        -22.0800   15.3150   14.5390 N.3    11  ASP11      -0.1225
      2  CA       -22.4610   15.9760   15.7750 C.3    11  ASP11       0.1805
      3  C        -23.0560   14.9420   16.7290 C.2    11  ASP11       0.2598
      4  O        -22.9970   13.7280   16.4880 O.2    11  ASP11      -0.2718
      5  CB       -23.3630   17.1930   15.5350 C.3    11  ASP11       0.1424
      6  CG       -24.7760   16.8270   15.1000 C.2    11  ASP11       0.3668
      7  OD1      -25.0590   15.6260   14.8850 O.co2  11  ASP11      -0.2456
      8  OD2      -25.6030   17.7690   14.9660 O.co2  11  ASP11      -0.2456
      9  N        -23.6360   15.4320   17.8270 N.am   12  HIS12      -0.1961
     10  CA       -24.2090   14.5690   18.8530 C.3    12  HIS12       0.1787
     11  C        -25.2720   13.6160   18.3270 C.2    12  HIS12       0.2620
     12  O        -25.5730   12.6320   19.0080 O.2    12  HIS12      -0.2715
     13  CB       -24.8400   15.4190   19.9590 C.3    12  HIS12       0.0785
     14  CG       -25.8530   16.4100   19.4640 C.ar   12  HIS12       0.0821
     15  ND1      -25.5190   17.6990   19.1050 N.ar   12  HIS12      -0.2267
     16  CD2      -27.1880   16.2990   19.2610 C.ar   12  HIS12       0.1154
     17  CE1      -26.6050   18.3400   18.7040 C.ar   12  HIS12       0.1986
     18  NE2      -27.6320   17.5110   18.7880 N.ar   12  HIS12      -0.2212
     19  N        -25.8720   13.8900   17.1640 N.am   13  THR13      -0.1951
     20  CA       -26.9400   13.0260   16.6680 C.3    13  THR13       0.1897
     21  C        -26.4200   11.7400   16.0470 C.2    13  THR13       0.2313
     22  O        -27.2210   10.8380   15.7850 O.2    13  THR13      -0.2863
     23  CB       -27.8100   13.7380   15.6150 C.3    13  THR13       0.1794
     24  OG1      -27.0710   13.8920   14.3960 O.3    13  THR13      -0.2208
     25  CG2      -28.2940   15.0950   16.1000 C.3    13  THR13       0.0378
     26  N        -25.4580   16.7490   24.1030 N.3    42  ALA42      -0.1231
     27  CA       -26.7070   17.0340   23.3980 C.3    42  ALA42       0.1694
     28  C        -26.7040   18.3830   22.6940 C.2    42  ALA42       0.2592
     29  O        -27.5210   18.5910   21.7910 O.2    42  ALA42      -0.2718
     30  CB       -27.8790   17.0050   24.3760 C.3    42  ALA42       0.0304
     31  N        -25.8280   19.3030   23.0980 N.am   43  ASN43      -0.1974
     32  CA       -25.8320   20.6660   22.5820 C.3    43  ASN43       0.1688
     33  C        -24.6890   20.9740   21.6240 C.2    43  ASN43       0.2292
     34  O        -24.5590   22.1310   21.2080 O.2    43  ASN43      -0.2864
     35  CB       -25.8180   21.6470   23.7460 C.3    43  ASN43       0.1181
     36  CG       -26.9090   21.3470   24.7290 C.2    43  ASN43       0.2629
     37  OD1      -28.0720   21.2190   24.3440 O.2    43  ASN43      -0.2716
     38  ND2      -26.5420   21.1570   25.9930 N.am   43  ASN43      -0.0877
     39  N        -22.5330   21.0020   14.9460 N.3    46  TYR46      -0.1241
     40  CA       -22.0200   20.3220   13.7560 C.3    46  TYR46       0.1605
     41  C        -20.9390   21.0870   12.9900 C.2    46  TYR46       0.2264
     42  O        -20.0500   20.4230   12.4360 O.2    46  TYR46      -0.2867
     43  CB       -23.1640   19.8740   12.8220 C.3    46  TYR46       0.0534
     44  CG       -23.8980   21.0400   12.2320 C.ar   46  TYR46      -0.0201
     45  CD1      -23.4390   21.6690   11.0790 C.ar   46  TYR46      -0.0009
     46  CD2      -25.0160   21.5640   12.8680 C.ar   46  TYR46      -0.0009
     47  CE1      -24.0690   22.7940   10.5830 C.ar   46  TYR46       0.0417
     48  CE2      -25.6700   22.6780   12.3680 C.ar   46  TYR46       0.0417
     49  CZ       -25.1900   23.2940   11.2250 C.ar   46  TYR46       0.1957
     50  OH       -25.8100   24.4180   10.7120 O.3    46  TYR46      -0.2866
     51  N        -28.1990   15.4500   11.7400 N.3    70  GLY70      -0.1210
     52  CA       -29.6020   15.0580   11.6760 C.3    70  GLY70       0.1956
     53  C        -30.1270   14.8000   10.2710 C.2    70  GLY70       0.2613
     54  O        -30.7170   13.7430   10.0080 O.2    70  GLY70      -0.2717
     55  N        -29.9190   15.7590    9.3660 N.am   71  THR71      -0.1938
     56  CA       -30.3910   15.6540    7.9880 C.3    71  THR71       0.2028
     57  C        -29.2640   15.5320    6.9720 C.2    71  THR71       0.2643
     58  O        -29.5300   15.1760    5.8190 O.2    71  THR71      -0.2714
     59  CB       -31.2110   16.8900    7.6070 C.3    71  THR71       0.1808
     60  OG1      -30.3670   18.0350    7.7640 O.3    71  THR71      -0.2208
     61  CG2      -32.4750   17.0170    8.4530 C.3    71  THR71       0.0379
     62  N        -28.0250   15.8330    7.3670 N.am   72  GLY72      -0.1939
     63  CA       -26.9050   15.9760    6.4630 C.3    72  GLY72       0.2014
     64  C        -26.6880   17.3830    5.9380 C.2    72  GLY72       0.2639
     65  O        -25.6260   17.6620    5.3780 O.2    72  GLY72      -0.2714
     66  N        -27.6620   18.2800    6.1020 N.am   73  VAL73      -0.1963
     67  CA       -27.5980   19.5860    5.4460 C.3    73  VAL73       0.1727
     68  C        -26.4950   20.4570    6.0310 C.2    73  VAL73       0.2617
     69  O        -25.7350   21.0910    5.2920 O.2    73  VAL73      -0.2715
     70  CB       -28.9610   20.2910    5.5300 C.3    73  VAL73       0.0290
     71  CG1      -28.8300   21.7550    5.1240 C.3    73  VAL73       0.0023
     72  CG2      -29.9800   19.5830    4.6700 C.3    73  VAL73       0.0023
     73  N        -26.4410   20.5610    7.3590 N.am   74  GLY74      -0.1940
     74  CA       -25.5320   21.5120    7.9780 C.3    74  GLY74       0.2014
     75  C        -24.0740   21.2050    7.7030 C.2    74  GLY74       0.2638
     76  O        -23.2950   22.0930    7.3340 O.2    74  GLY74      -0.2714
     77  N        -23.6840   19.9390    7.8760 N.am   75  VAL75      -0.1977
     78  CA       -22.3030   19.5590    7.5920 C.3    75  VAL75       0.1596
     79  C        -21.9770   19.7400    6.1200 C.2    75  VAL75       0.2287
     80  O        -20.8310   20.0370    5.7690 O.2    75  VAL75      -0.2864
     81  CB       -21.9930   18.1230    8.0660 C.3    75  VAL75       0.0276
     82  CG1      -22.0800   18.0100    9.5800 C.3    75  VAL75       0.0022
     83  CG2      -22.8860   17.0900    7.3650 C.3    75  VAL75       0.0022
     84  N        -30.9770   11.0520   11.3630 N.3   113  ARG113     -0.1245
     85  CA       -32.3470   11.0170   11.8620 C.3   113  ARG113      0.1563
     86  C        -33.3610   10.5090   10.8470 C.2   113  ARG113      0.2260
     87  O        -34.4740   10.1510   11.2470 O.2   113  ARG113     -0.2867
     88  CB       -32.7760   12.4070   12.3430 C.3   113  ARG113      0.0307
     89  CG       -32.1880   12.7860   13.6800 C.3   113  ARG113      0.0489
     90  CD       -32.5380   14.2150   14.0700 C.3   113  ARG113      0.2205
     91  NE       -32.1570   14.4870   15.4510 N.pl3 113  ARG113     -0.0865
     92  CZ       -31.8230   15.6750   15.9340 C.cat 113  ARG113      0.5346
     93  NH1      -31.7730   16.7380   15.1390 N.pl3 113  ARG113      0.1354
     94  NH2      -31.5340   15.7870   17.2230 N.pl3 113  ARG113      0.1354
@<TRIPOS>BOND
     1    72    70    1
     2    71    70    1
     3    69    68    2
     4    65    64    2
     5    67    70    1
     6    67    68    1
     7    67    66    1
     8    80    79    2
     9    58    57    2
    10    64    66   am
    11    64    63    1
    12    68    73   am
    13    79    78    1
    14    63    62    1
    15    57    62   am
    16    57    56    1
    17    76    75    2
    18    73    74    1
    19    83    81    1
    20    78    77    1
    21    78    81    1
    22    59    60    1
    23    59    56    1
    24    59    61    1
    25    75    77   am
    26    75    74    1
    27    56    55    1
    28    81    82    1
    29    55    53   am
    30    54    53    2
    31    53    52    1
    32    47    45   ar
    33    47    49   ar
    34    50    49    1
    35    86    87    2
    36    86    85    1
    37    45    44   ar
    38    49    48   ar
    39    84    85    1
    40    52    51    1
    41    85    88    1
    42    44    43    1
    43    44    46   ar
    44    88    89    1
    45    48    46   ar
    46    42    41    2
    47    43    40    1
    48    41    40    1
    49    89    90    1
    50    40    39    1
    51    90    91    1
    52    24    23    1
    53     1     2    1
    54     7     6   ar
    55     8     6   ar
    56     6     5    1
    57    93    92    1
    58    91    92    2
    59     5     2    1
    60    23    25    1
    61    23    20    1
    62     2     3    1
    63    22    21    2
    64    92    94    1
    65    21    20    1
    66     4     3    2
    67    20    19    1
    68     3     9   am
    69    19    11   am
    70     9    10    1
    71    11    10    1
    72    11    12    2
    73    17    18   ar
    74    17    15   ar
    75    18    16   ar
    76    10    13    1
    77    15    14   ar
    78    16    14   ar
    79    14    13    1
    80    34    33    2
    81    33    32    1
    82    29    28    2
    83    32    31    1
    84    32    35    1
    85    28    31   am
    86    28    27    1
    87    27    26    1
    88    27    30    1
    89    35    36    1
    90    37    36    2
    91    36    38   am
