@<TRIPOS>MOLECULE
tmp/6mu6D04.pdb
 248 243 0 0 0
SMALL
GASTEIGER

@<TRIPOS>ATOM
      1  N        -54.6730  -22.7720   -7.1880 N.3    34  TRP34      -0.1241
      2  CA       -54.3330  -23.2750   -5.8640 C.3    34  TRP34       0.1605
      3  C        -55.5250  -23.3110   -4.9170 C.2    34  TRP34       0.2264
      4  O        -55.3620  -23.7340   -3.7660 O.2    34  TRP34      -0.2867
      5  CB       -53.2130  -22.4220   -5.2670 C.3    34  TRP34       0.0550
      6  CG       -52.2560  -21.9240   -6.3060 C.ar   34  TRP34       0.0003
      7  CD1      -52.2150  -20.6730   -6.8500 C.ar   34  TRP34       0.0946
      8  CD2      -51.2150  -22.6730   -6.9450 C.ar   34  TRP34       0.0152
      9  NE1      -51.2070  -20.5930   -7.7790 N.ar   34  TRP34      -0.2442
     10  CE2      -50.5760  -21.8070   -7.8550 C.ar   34  TRP34       0.0810
     11  CE3      -50.7550  -23.9880   -6.8290 C.ar   34  TRP34       0.0012
     12  CZ2      -49.5050  -22.2140   -8.6480 C.ar   34  TRP34       0.0191
     13  CZ3      -49.6900  -24.3900   -7.6160 C.ar   34  TRP34       0.0001
     14  CH2      -49.0780  -23.5060   -8.5140 C.ar   34  TRP34       0.0015
     15  N        -50.0210  -29.7590   -4.6190 N.3    73  ILE73      -0.1231
     16  CA       -49.9610  -28.8350   -5.7490 C.3    73  ILE73       0.1692
     17  C        -50.3420  -29.5490   -7.0400 C.2    73  ILE73       0.2591
     18  O        -51.0530  -28.9930   -7.8870 O.2    73  ILE73      -0.2718
     19  CB       -48.5630  -28.1890   -5.8360 C.3    73  ILE73       0.0266
     20  CG1      -48.5530  -26.8270   -5.1340 C.3    73  ILE73       0.0019
     21  CG2      -48.1090  -28.0430   -7.2840 C.3    73  ILE73       0.0020
     22  CD1      -48.9190  -26.8730   -3.6660 C.3    73  ILE73       0.0001
     23  N        -49.8950  -30.7960   -7.2040 N.am   74  ILE74      -0.1980
     24  CA       -50.2690  -31.5680   -8.3850 C.3    74  ILE74       0.1595
     25  C        -51.7650  -31.8590   -8.3800 C.2    74  ILE74       0.2287
     26  O        -52.4250  -31.8070   -9.4250 O.2    74  ILE74      -0.2864
     27  CB       -49.4380  -32.8620   -8.4610 C.3    74  ILE74       0.0276
     28  CG1      -47.9570  -32.5310   -8.6420 C.3    74  ILE74       0.0022
     29  CG2      -49.9280  -33.7530   -9.5920 C.3    74  ILE74       0.0022
     30  CD1      -47.0520  -33.7300   -8.5160 C.3    74  ILE74       0.0001
     31  N        -53.7340  -28.8370   -9.4270 N.3    77  TRP77      -0.1227
     32  CA       -53.7410  -28.6480  -10.8730 C.3    77  TRP77       0.1737
     33  C        -54.6500  -29.6550  -11.5660 C.2    77  TRP77       0.2595
     34  O        -55.4070  -29.2880  -12.4710 O.2    77  TRP77      -0.2718
     35  CB       -52.3170  -28.7420  -11.4190 C.3    77  TRP77       0.0564
     36  CG       -51.5460  -27.4690  -11.2910 C.ar   77  TRP77       0.0003
     37  CD1      -51.1340  -26.8730  -10.1360 C.ar   77  TRP77       0.0946
     38  CD2      -51.0910  -26.6320  -12.3590 C.ar   77  TRP77       0.0152
     39  NE1      -50.4530  -25.7150  -10.4170 N.ar   77  TRP77      -0.2442
     40  CE2      -50.4120  -25.5440  -11.7760 C.ar   77  TRP77       0.0810
     41  CE3      -51.1920  -26.6950  -13.7520 C.ar   77  TRP77       0.0012
     42  CZ2      -49.8370  -24.5270  -12.5360 C.ar   77  TRP77       0.0191
     43  CZ3      -50.6200  -25.6860  -14.5050 C.ar   77  TRP77       0.0001
     44  CH2      -49.9510  -24.6170  -13.8960 C.ar   77  TRP77       0.0015
     45  N        -54.5860  -30.9260  -11.1580 N.am   78  ASP78      -0.1974
     46  CA       -55.4900  -31.9290  -11.7140 C.3    78  ASP78       0.1709
     47  C        -56.9460  -31.5480  -11.4780 C.2    78  ASP78       0.2293
     48  O        -57.7990  -31.7450  -12.3520 O.2    78  ASP78      -0.2864
     49  CB       -55.1970  -33.3010  -11.1040 C.3    78  ASP78       0.1436
     50  CG       -53.8650  -33.8680  -11.5500 C.2    78  ASP78       0.3671
     51  OD1      -53.4440  -33.5740  -12.6870 O.co2  78  ASP78      -0.2456
     52  OD2      -53.2420  -34.6150  -10.7650 O.co2  78  ASP78      -0.2456
     53  N        -57.8050  -28.3640  -13.8700 N.3    81  LEU81      -0.1231
     54  CA       -57.8720  -28.7260  -15.2800 C.3    81  LEU81       0.1693
     55  C        -58.9230  -29.7890  -15.5680 C.2    81  LEU81       0.2591
     56  O        -59.0780  -30.1880  -16.7270 O.2    81  LEU81      -0.2718
     57  CB       -56.5020  -29.2090  -15.7630 C.3    81  LEU81       0.0284
     58  CG       -55.4900  -28.0990  -16.0410 C.3    81  LEU81       0.0019
     59  CD1      -54.0850  -28.6580  -16.1050 C.3    81  LEU81       0.0001
     60  CD2      -55.8420  -27.3880  -17.3370 C.3    81  LEU81       0.0001
     61  N        -59.6440  -30.2510  -14.5430 N.am   82  LYS82      -0.1980
     62  CA       -60.6620  -31.2770  -14.7620 C.3    82  LYS82       0.1596
     63  C        -61.8370  -30.7640  -15.5890 C.2    82  LYS82       0.2287
     64  O        -62.1900  -31.4170  -16.5870 O.2    82  LYS82      -0.2864
     65  CB       -61.1120  -31.8510  -13.4140 C.3    82  LYS82       0.0298
     66  CG       -61.1000  -33.3690  -13.3350 C.3    82  LYS82       0.0038
     67  CD       -62.4870  -33.9510  -13.5470 C.3    82  LYS82       0.0206
     68  CE       -62.4720  -35.4650  -13.4090 C.3    82  LYS82       0.1093
     69  NZ       -61.9130  -35.8960  -12.0960 N.3    82  LYS82      -0.1314
     70  N        -61.1880  -30.0490  -23.5080 N.3    86  LYS86      -0.1245
     71  CA       -60.2840  -31.0420  -24.0810 C.3    86  LYS86       0.1561
     72  C        -60.0540  -30.6880  -25.5470 C.2    86  LYS86       0.2260
     73  O        -60.9560  -30.8380  -26.3780 O.2    86  LYS86      -0.2867
     74  CB       -60.8640  -32.4470  -23.9400 C.3    86  LYS86       0.0271
     75  CG       -60.8280  -33.0150  -22.5270 C.3    86  LYS86       0.0035
     76  CD       -59.4520  -33.5670  -22.1900 C.3    86  LYS86       0.0206
     77  CE       -59.4510  -34.2840  -20.8470 C.3    86  LYS86       0.1093
     78  NZ       -59.7020  -33.3520  -19.7130 N.3    86  LYS86      -0.1314
     79  N        -55.2510  -30.2850  -22.7730 N.3   157  THR157     -0.1218
     80  CA       -56.3680  -29.6500  -22.0810 C.3   157  THR157      0.1862
     81  C        -55.9980  -28.2020  -21.8090 C.2   157  THR157      0.2287
     82  O        -55.0370  -27.9380  -21.0800 O.2   157  THR157     -0.2866
     83  CB       -56.6910  -30.3710  -20.7680 C.3   157  THR157      0.1770
     84  OG1      -56.9250  -31.7610  -21.0230 O.3   157  THR157     -0.2211
     85  CG2      -57.9220  -29.7640  -20.1110 C.3   157  THR157      0.0375
     86  N        -53.1400  -18.2970  -12.7040 N.3   165  PHE165     -0.1241
     87  CA       -51.9010  -18.9900  -12.3770 C.3   165  PHE165      0.1605
     88  C        -51.0430  -18.2240  -11.3780 C.2   165  PHE165      0.2264
     89  O        -49.8960  -18.6160  -11.1400 O.2   165  PHE165     -0.2867
     90  CB       -51.0920  -19.2600  -13.6490 C.3   165  PHE165      0.0534
     91  CG       -51.6960  -20.3040  -14.5440 C.ar  165  PHE165     -0.0203
     92  CD1      -52.6640  -21.1720  -14.0670 C.ar  165  PHE165     -0.0042
     93  CD2      -51.2890  -20.4220  -15.8630 C.ar  165  PHE165     -0.0042
     94  CE1      -53.2200  -22.1350  -14.8900 C.ar  165  PHE165     -0.0003
     95  CE2      -51.8400  -21.3830  -16.6910 C.ar  165  PHE165     -0.0003
     96  CZ       -52.8070  -22.2400  -16.2040 C.ar  165  PHE165     -0.0000
     97  N        -43.5150  -22.4890   -9.0050 N.3   210  VAL210     -0.1245
     98  CA       -42.7790  -23.5920   -9.6080 C.3   210  VAL210      0.1561
     99  C        -41.8710  -22.9920  -10.6730 C.2   210  VAL210      0.2260
    100  O        -42.3110  -22.6950  -11.7890 O.2   210  VAL210     -0.2867
    101  CB       -43.7110  -24.6540  -10.2010 C.3   210  VAL210      0.0252
    102  CG1      -42.8970  -25.7980  -10.7790 C.3   210  VAL210      0.0019
    103  CG2      -44.6770  -25.1620   -9.1430 C.3   210  VAL210      0.0019
    104  N        -37.4530  -27.6660  -19.9230 N.3   324  GLU324     -0.1245
    105  CA       -37.8060  -27.0570  -18.6460 C.3   324  GLU324      0.1567
    106  C        -36.6380  -27.0230  -17.6700 C.2   324  GLU324      0.2260
    107  O        -36.6550  -26.2160  -16.7360 O.2   324  GLU324     -0.2867
    108  CB       -38.9840  -27.8000  -18.0080 C.3   324  GLU324      0.0388
    109  CG       -40.3230  -27.5850  -18.6990 C.3   324  GLU324      0.1160
    110  CD       -40.4270  -28.3150  -20.0250 C.2   324  GLU324      0.3649
    111  OE1      -39.6300  -29.2500  -20.2540 O.co2 324  GLU324     -0.2457
    112  OE2      -41.3040  -27.9510  -20.8370 O.co2 324  GLU324     -0.2457
    113  N        -37.1020  -21.7960  -16.6050 N.3   329  SER329     -0.1202
    114  CA       -38.5180  -21.8910  -16.9190 C.3   329  SER329      0.2020
    115  C        -39.3460  -21.5160  -15.7000 C.2   329  SER329      0.2619
    116  O        -38.9990  -21.8610  -14.5670 O.2   329  SER329     -0.2717
    117  CB       -38.8730  -23.3030  -17.3850 C.3   329  SER329      0.2103
    118  OG       -38.7100  -24.2450  -16.3390 O.3   329  SER329     -0.2182
    119  N        -40.4380  -20.8030  -15.9370 N.am  330  PHE330     -0.1961
    120  CA       -41.3050  -20.3080  -14.8720 C.3   330  PHE330      0.1771
    121  C        -42.5880  -19.7950  -15.5170 C.2   330  PHE330      0.2619
    122  O        -42.8100  -19.9680  -16.7210 O.2   330  PHE330     -0.2715
    123  CB       -40.6060  -19.2250  -14.0460 C.3   330  PHE330      0.0574
    124  CG       -40.3130  -17.9690  -14.8160 C.ar  330  PHE330     -0.0200
    125  CD1      -39.2500  -17.9150  -15.7010 C.ar  330  PHE330     -0.0042
    126  CD2      -41.0960  -16.8400  -14.6490 C.ar  330  PHE330     -0.0042
    127  CE1      -38.9790  -16.7620  -16.4090 C.ar  330  PHE330     -0.0003
    128  CE2      -40.8260  -15.6840  -15.3530 C.ar  330  PHE330     -0.0003
    129  CZ       -39.7690  -15.6460  -16.2350 C.ar  330  PHE330     -0.0000
    130  N        -43.4340  -19.1570  -14.7110 N.am  331  ASN331     -0.1972
    131  CA       -44.6990  -18.5990  -15.1690 C.3   331  ASN331      0.1688
    132  C        -44.7520  -17.1280  -14.7870 C.2   331  ASN331      0.2292
    133  O        -44.4710  -16.7710  -13.6380 O.2   331  ASN331     -0.2864
    134  CB       -45.8850  -19.3570  -14.5640 C.3   331  ASN331      0.1181
    135  CG       -47.2210  -18.7840  -14.9870 C.2   331  ASN331      0.2629
    136  OD1      -47.7520  -19.1310  -16.0420 O.2   331  ASN331     -0.2716
    137  ND2      -47.7770  -17.9060  -14.1590 N.am  331  ASN331     -0.0877
    138  N        -45.7580  -19.0490  -20.1340 N.3   336  PHE336     -0.1241
    139  CA       -44.6870  -19.8450  -19.5400 C.3   336  PHE336      0.1605
    140  C        -43.3820  -19.5390  -20.2680 C.2   336  PHE336      0.2264
    141  O        -43.1580  -19.9970  -21.3910 O.2   336  PHE336     -0.2867
    142  CB       -45.0380  -21.3280  -19.5850 C.3   336  PHE336      0.0534
    143  CG       -46.1660  -21.7000  -18.6670 C.ar  336  PHE336     -0.0203
    144  CD1      -47.4810  -21.6210  -19.0950 C.ar  336  PHE336     -0.0042
    145  CD2      -45.9130  -22.1050  -17.3680 C.ar  336  PHE336     -0.0042
    146  CE1      -48.5210  -21.9520  -18.2460 C.ar  336  PHE336     -0.0003
    147  CE2      -46.9470  -22.4370  -16.5160 C.ar  336  PHE336     -0.0003
    148  CZ       -48.2530  -22.3590  -16.9550 C.ar  336  PHE336     -0.0000
    149  N        -39.2280  -19.4680  -20.9240 N.3   338  TYR338     -0.1241
    150  CA       -38.1260  -20.4370  -20.9300 C.3   338  TYR338      0.1605
    151  C        -36.8600  -19.6470  -21.2590 C.2   338  TYR338      0.2264
    152  O        -36.5110  -19.4690  -22.4290 O.2   338  TYR338     -0.2867
    153  CB       -38.3750  -21.5630  -21.9250 C.3   338  TYR338      0.0534
    154  CG       -39.4900  -22.5020  -21.5180 C.ar  338  TYR338     -0.0201
    155  CD1      -40.8210  -22.1700  -21.7330 C.ar  338  TYR338     -0.0009
    156  CD2      -39.2100  -23.7230  -20.9230 C.ar  338  TYR338     -0.0009
    157  CE1      -41.8410  -23.0230  -21.3590 C.ar  338  TYR338      0.0417
    158  CE2      -40.2240  -24.5850  -20.5500 C.ar  338  TYR338      0.0417
    159  CZ       -41.5370  -24.2300  -20.7700 C.ar  338  TYR338      0.1957
    160  OH       -42.5510  -25.0840  -20.4010 O.3   338  TYR338     -0.2866
    161  N        -47.4590  -27.0090  -22.5990 N.3   368  ILE368     -0.1231
    162  CA       -46.4780  -27.4350  -21.6080 C.3   368  ILE368      0.1692
    163  C        -46.8750  -28.8070  -21.0800 C.2   368  ILE368      0.2592
    164  O        -48.0330  -29.0350  -20.7040 O.2   368  ILE368     -0.2718
    165  CB       -46.3520  -26.4040  -20.4730 C.3   368  ILE368      0.0266
    166  CG1      -47.6920  -26.1740  -19.7770 C.3   368  ILE368      0.0019
    167  CG2      -45.8150  -25.0860  -21.0130 C.3   368  ILE368      0.0020
    168  CD1      -47.5690  -25.3730  -18.5100 C.3   368  ILE368      0.0001
    169  N        -45.9200  -29.7310  -21.0720 N.am  369  ASN369     -0.1960
    170  CA       -46.1990  -31.0970  -20.6680 C.3   369  ASN369      0.1819
    171  C        -46.1620  -31.2320  -19.1480 C.2   369  ASN369      0.2621
    172  O        -45.6910  -30.3510  -18.4230 O.2   369  ASN369     -0.2715
    173  CB       -45.2080  -32.0610  -21.3170 C.3   369  ASN369      0.1195
    174  CG       -45.6980  -32.5900  -22.6510 C.2   369  ASN369      0.2630
    175  OD1      -45.7390  -31.8630  -23.6440 O.2   369  ASN369     -0.2716
    176  ND2      -46.0700  -33.8650  -22.6800 N.am  369  ASN369     -0.0877
    177  N        -46.6720  -32.3630  -18.6710 N.am  370  MET370     -0.1963
    178  CA       -46.7380  -32.6400  -17.2460 C.3   370  MET370      0.1736
    179  C        -45.3760  -33.0920  -16.7300 C.2   370  MET370      0.2616
    180  O        -44.6000  -33.7380  -17.4410 O.2   370  MET370     -0.2715
    181  CB       -47.7970  -33.7080  -16.9710 C.3   370  MET370      0.0427
    182  CG       -48.3090  -33.7560  -15.5440 C.3   370  MET370      0.0599
    183  SD       -49.8180  -34.7380  -15.4310 S.3   370  MET370     -0.1393
    184  CE       -50.0230  -34.8560  -13.6560 C.3   370  MET370      0.0692
    185  N        -45.0880  -32.7420  -15.4770 N.am  371  TRP371     -0.1960
    186  CA       -43.7850  -33.0180  -14.8840 C.3   371  TRP371      0.1771
    187  C        -43.6860  -34.3910  -14.2350 C.2   371  TRP371      0.2620
    188  O        -42.5780  -34.8090  -13.8810 O.2   371  TRP371     -0.2715
    189  CB       -43.4380  -31.9510  -13.8400 C.3   371  TRP371      0.0590
    190  CG       -42.9330  -30.6740  -14.4270 C.ar  371  TRP371      0.0006
    191  CD1      -43.1250  -30.2220  -15.6990 C.ar  371  TRP371      0.0946
    192  CD2      -42.1380  -29.6840  -13.7650 C.ar  371  TRP371      0.0152
    193  NE1      -42.5050  -29.0080  -15.8690 N.ar  371  TRP371     -0.2442
    194  CE2      -41.8900  -28.6570  -14.6960 C.ar  371  TRP371      0.0810
    195  CE3      -41.6130  -29.5670  -12.4760 C.ar  371  TRP371      0.0012
    196  CZ2      -41.1410  -27.5270  -14.3780 C.ar  371  TRP371      0.0191
    197  CZ3      -40.8700  -28.4440  -12.1620 C.ar  371  TRP371      0.0001
    198  CH2      -40.6410  -27.4390  -13.1090 C.ar  371  TRP371      0.0015
    199  N        -44.7990  -35.1000  -14.0640 N.am  372  GLN372     -0.1963
    200  CA       -44.7550  -36.4030  -13.4120 C.3   372  GLN372      0.1733
    201  C        -45.0900  -37.5170  -14.3940 C.2   372  GLN372      0.2616
    202  O        -44.1900  -38.1810  -14.9180 O.2   372  GLN372     -0.2715
    203  CB       -45.7090  -36.4330  -12.2180 C.3   372  GLN372      0.0408
    204  CG       -45.4230  -35.3600  -11.1820 C.3   372  GLN372      0.0908
    205  CD       -44.0340  -35.4780  -10.5810 C.2   372  GLN372      0.2608
    206  OE1      -43.7770  -36.3450   -9.7450 O.2   372  GLN372     -0.2717
    207  NE2      -43.1300  -34.6010  -11.0050 N.am  372  GLN372     -0.0878
    208  N        -46.3770  -37.7290  -14.6490 N.am  373  ARG373     -0.1977
    209  CA       -46.7950  -38.7880  -15.5520 C.3   373  ARG373      0.1597
    210  C        -46.6810  -38.3340  -17.0040 C.2   373  ARG373      0.2287
    211  O        -46.6170  -37.1410  -17.3110 O.2   373  ARG373     -0.2864
    212  CB       -48.2300  -39.2220  -15.2460 C.3   373  ARG373      0.0334
    213  CG       -48.4310  -39.7430  -13.8300 C.3   373  ARG373      0.0492
    214  CD       -49.3640  -38.8440  -13.0340 C.3   373  ARG373      0.2205
    215  NE       -49.2920  -39.1130  -11.6000 N.pl3 373  ARG373     -0.0865
    216  CZ       -50.1290  -39.9080  -10.9400 C.cat 373  ARG373      0.5346
    217  NH1      -49.9800  -40.0890   -9.6340 N.pl3 373  ARG373      0.1354
    218  NH2      -51.1150  -40.5180  -11.5820 N.pl3 373  ARG373      0.1354
    219  N        -50.0300  -36.6350  -20.6860 N.3   376  GLN376     -0.1231
    220  CA       -50.8570  -35.5340  -20.2190 C.3   376  GLN376      0.1698
    221  C        -50.0980  -34.2270  -20.3990 C.2   376  GLN376      0.2592
    222  O        -48.8910  -34.1630  -20.1490 O.2   376  GLN376     -0.2718
    223  CB       -51.2510  -35.7290  -18.7510 C.3   376  GLN376      0.0381
    224  CG       -52.5590  -35.0690  -18.3530 C.3   376  GLN376      0.0905
    225  CD       -53.7860  -35.8250  -18.8440 C.2   376  GLN376      0.2608
    226  OE1      -53.7780  -36.4290  -19.9170 O.2   376  GLN376     -0.2717
    227  NE2      -54.8490  -35.7940  -18.0520 N.am  376  GLN376     -0.0878
    228  N        -50.8130  -33.1920  -20.8330 N.am  377  ALA377     -0.1966
    229  CA       -50.2160  -31.8810  -21.0510 C.3   377  ALA377      0.1728
    230  C        -51.3130  -30.8290  -21.0110 C.2   377  ALA377      0.2616
    231  O        -52.5010  -31.1390  -21.1360 O.2   377  ALA377     -0.2715
    232  CB       -49.4560  -31.8210  -22.3800 C.3   377  ALA377      0.0334
    233  N        -50.8970  -29.5760  -20.8390 N.am  378  MET378     -0.1977
    234  CA       -51.8110  -28.4500  -20.7140 C.3   378  MET378      0.1605
    235  C        -51.5240  -27.4190  -21.7970 C.2   378  MET378      0.2287
    236  O        -50.3660  -27.1950  -22.1640 O.2   378  MET378     -0.2864
    237  CB       -51.6910  -27.7920  -19.3340 C.3   378  MET378      0.0413
    238  CG       -52.7210  -26.7040  -19.0700 C.3   378  MET378      0.0598
    239  SD       -52.4290  -25.8030  -17.5360 S.3   378  MET378     -0.1393
    240  CE       -51.0440  -24.7760  -18.0060 C.3   378  MET378      0.0692
    241  N        -40.1180  -30.8720   -8.7060 N.3   413  MET413     -0.1245
    242  CA       -40.9620  -29.8130   -8.1640 C.3   413  MET413      0.1570
    243  C        -40.8150  -29.6870   -6.6530 C.2   413  MET413      0.2261
    244  O        -41.0130  -28.5970   -6.1030 O.2   413  MET413     -0.2867
    245  CB       -42.4220  -30.0720   -8.5360 C.3   413  MET413      0.0387
    246  CG       -43.2600  -28.8170   -8.6990 C.3   413  MET413      0.0595
    247  SD       -44.9720  -29.2040   -9.1050 S.3   413  MET413     -0.1393
    248  CE       -44.7390  -30.4340  -10.3870 C.3   413  MET413      0.0692
@<TRIPOS>BOND
     1    73    72    2
     2    72    71    1
     3    71    74    1
     4    71    70    1
     5    74    75    1
     6   175   174    2
     7    79    80    1
     8   176   174   am
     9   174   173    1
    10   161   162    1
    11    75    76    1
    12   152   151    2
    13   232   229    1
    14    76    77    1
    15   236   235    2
    16    80    81    1
    17    80    83    1
    18   153   154    1
    19   153   150    1
    20    81    82    2
    21   235   234    1
    22   155   154   ar
    23   155   157   ar
    24   162   163    1
    25   162   165    1
    26   154   156   ar
    27   141   140    2
    28   157   159   ar
    29   173   170    1
    30   151   150    1
    31   231   230    2
    32   163   169   am
    33   163   164    2
    34   169   170    1
    35   229   230    1
    36   229   228    1
    37    84    83    1
    38   167   165    1
    39   230   233   am
    40   150   149    1
    41   156   158   ar
    42    77    78    1
    43   233   234    1
    44   112   110   ar
    45   228   221   am
    46   159   158   ar
    47   159   160    1
    48    83    85    1
    49   234   237    1
    50   219   220    1
    51   170   171    1
    52   165   166    1
    53   221   220    1
    54   221   222    2
    55   140   139    1
    56   111   110   ar
    57   220   223    1
    58   138   139    1
    59   110   109    1
    60   104   105    1
    61   226   225    2
    62   166   168    1
    63   142   139    1
    64   142   143    1
    65   237   238    1
    66   171   177   am
    67   171   172    2
    68   144   143   ar
    69   144   146   ar
    70   238   239    1
    71   225   224    1
    72   225   227   am
    73   223   224    1
    74   109   108    1
    75   177   178    1
    76   143   145   ar
    77   105   108    1
    78   105   106    1
    79   146   148   ar
    80   240   239    1
    81   106   107    2
    82   180   179    2
    83   117   114    1
    84   117   118    1
    85   145   147   ar
    86    60    58    1
    87   211   210    2
    88   178   181    1
    89   178   179    1
    90   210   209    1
    91   181   182    1
    92   148   147   ar
    93   114   113    1
    94   114   115    1
    95   179   185   am
    96    56    55    2
    97   122   121    2
    98    95    96   ar
    99    95    93   ar
   100    64    63    2
   101   127   129   ar
   102   127   125   ar
   103   129   128   ar
   104    96    94   ar
   105    59    58    1
   106   136   135    2
   107    58    57    1
   108   119   115   am
   109   119   120    1
   110   193   191   ar
   111   193   194   ar
   112    93    91   ar
   113    57    54    1
   114   125   124   ar
   115   115   116    2
   116   191   190   ar
   117    63    62    1
   118    55    54    1
   119    55    61   am
   120   209   212    1
   121   209   208    1
   122   182   183    1
   123   121   120    1
   124   121   130   am
   125   185   186    1
   126   183   184    1
   127   128   126   ar
   128    54    53    1
   129   212   213    1
   130   131   132    1
   131   131   130    1
   132   131   134    1
   133   135   134    1
   134   135   137   am
   135   202   201    2
   136    94    92   ar
   137   186   187    1
   138   186   189    1
   139   120   123    1
   140   124   126   ar
   141   124   123    1
   142   132   133    2
   143    62    61    1
   144    62    65    1
   145   194   196   ar
   146   194   192   ar
   147   208   201   am
   148    91    92   ar
   149    91    90    1
   150    43    44   ar
   151    43    41   ar
   152   190   189    1
   153   190   192   ar
   154   201   200    1
   155   196   198   ar
   156   187   199   am
   157   187   188    2
   158   199   200    1
   159    44    42   ar
   160   213   214    1
   161   192   195   ar
   162    41    38   ar
   163    90    87    1
   164    67    68    1
   165    67    66    1
   166    65    66    1
   167   200   203    1
   168    68    69    1
   169   198   197   ar
   170   214   215    1
   171    86    87    1
   172    51    50   ar
   173    42    40   ar
   174   195   197   ar
   175    34    33    2
   176    87    88    1
   177    38    40   ar
   178    38    36   ar
   179    48    47    2
   180   203   204    1
   181   100    99    2
   182    40    39   ar
   183    46    47    1
   184    46    45    1
   185    46    49    1
   186   215   216    2
   187   218   216    1
   188    33    45   am
   189    33    32    1
   190    50    49    1
   191    50    52   ar
   192    35    36    1
   193    35    32    1
   194    88    89    2
   195    36    37   ar
   196   204   205    1
   197   207   205   am
   198   216   217    1
   199    32    31    1
   200   102   101    1
   201    99    98    1
   202   205   206    2
   203    39    37   ar
   204   248   247    1
   205   101    98    1
   206   101   103    1
   207    98    97    1
   208    29    27    1
   209    26    25    2
   210   247   246    1
   211   241   242    1
   212   246   245    1
   213    12    14   ar
   214    12    10   ar
   215    28    30    1
   216    28    27    1
   217   245   242    1
   218    14    13   ar
   219    27    24    1
   220    24    25    1
   221    24    23    1
   222   242   243    1
   223    18    17    2
   224    10     9   ar
   225    10     8   ar
   226     9     7   ar
   227    13    11   ar
   228    21    19    1
   229    23    17   am
   230     1     2    1
   231    17    16    1
   232     8    11   ar
   233     8     6   ar
   234     7     6   ar
   235   243   244    2
   236     6     5    1
   237     2     5    1
   238     2     3    1
   239    19    16    1
   240    19    20    1
   241    16    15    1
   242    20    22    1
   243     3     4    2
