@<TRIPOS>MOLECULE
tmp/6mu7D04.pdb
 260 253 0 0 0
SMALL
GASTEIGER

@<TRIPOS>ATOM
      1  N         54.6190  -22.9140    7.1440 N.3    34  TRP34      -0.1241
      2  CA        54.2730  -23.4130    5.8190 C.3    34  TRP34       0.1605
      3  C         55.4610  -23.4380    4.8660 C.2    34  TRP34       0.2264
      4  O         55.3080  -23.8990    3.7290 O.2    34  TRP34      -0.2867
      5  CB        53.1420  -22.5630    5.2370 C.3    34  TRP34       0.0550
      6  CG        52.2030  -22.0860    6.3030 C.ar   34  TRP34       0.0003
      7  CD1       52.1770  -20.8490    6.8810 C.ar   34  TRP34       0.0946
      8  CD2       51.1770  -22.8500    6.9470 C.ar   34  TRP34       0.0152
      9  NE1       51.1890  -20.7920    7.8340 N.ar   34  TRP34      -0.2442
     10  CE2       50.5600  -22.0080    7.8920 C.ar   34  TRP34       0.0810
     11  CE3       50.7160  -24.1620    6.8100 C.ar   34  TRP34       0.0012
     12  CZ2       49.5060  -22.4360    8.6970 C.ar   34  TRP34       0.0191
     13  CZ3       49.6670  -24.5850    7.6090 C.ar   34  TRP34       0.0001
     14  CH2       49.0750  -23.7250    8.5400 C.ar   34  TRP34       0.0015
     15  N         50.0390  -29.9520    4.5590 N.3    73  ILE73      -0.1231
     16  CA        49.9980  -29.0350    5.6950 C.3    73  ILE73       0.1692
     17  C         50.3700  -29.7650    6.9790 C.2    73  ILE73       0.2591
     18  O         51.1430  -29.2530    7.7980 O.2    73  ILE73      -0.2718
     19  CB        48.6130  -28.3640    5.7870 C.3    73  ILE73       0.0266
     20  CG1       48.5940  -27.0650    4.9780 C.3    73  ILE73       0.0019
     21  CG2       48.2270  -28.0900    7.2350 C.3    73  ILE73       0.0020
     22  CD1       48.7780  -27.2460    3.4880 C.3    73  ILE73       0.0001
     23  N         49.8480  -30.9800    7.1630 N.am   74  ILE74      -0.1980
     24  CA        50.1960  -31.7700    8.3430 C.3    74  ILE74       0.1595
     25  C         51.6860  -32.0790    8.3570 C.2    74  ILE74       0.2287
     26  O         52.3250  -32.0850    9.4150 O.2    74  ILE74      -0.2864
     27  CB        49.3510  -33.0550    8.3910 C.3    74  ILE74       0.0276
     28  CG1       47.8770  -32.7180    8.5830 C.3    74  ILE74       0.0022
     29  CG2       49.8210  -33.9660    9.5050 C.3    74  ILE74       0.0022
     30  CD1       46.9900  -33.9310    8.5750 C.3    74  ILE74       0.0001
     31  N         53.6440  -28.9960    9.4480 N.3    77  TRP77      -0.1227
     32  CA        53.6420  -28.8540   10.9000 C.3    77  TRP77       0.1737
     33  C         54.5620  -29.8750   11.5550 C.2    77  TRP77       0.2595
     34  O         55.2890  -29.5450   12.5000 O.2    77  TRP77      -0.2718
     35  CB        52.2190  -28.9870   11.4420 C.3    77  TRP77       0.0564
     36  CG        51.4110  -27.7390   11.3020 C.ar   77  TRP77       0.0003
     37  CD1       50.7860  -27.2910   10.1770 C.ar   77  TRP77       0.0946
     38  CD2       51.1380  -26.7720   12.3240 C.ar   77  TRP77       0.0152
     39  NE1       50.1420  -26.1040   10.4330 N.ar   77  TRP77      -0.2442
     40  CE2       50.3430  -25.7640   11.7440 C.ar   77  TRP77       0.0810
     41  CE3       51.4900  -26.6610   13.6720 C.ar   77  TRP77       0.0012
     42  CZ2       49.8940  -24.6600   12.4650 C.ar   77  TRP77       0.0191
     43  CZ3       51.0430  -25.5620   14.3860 C.ar   77  TRP77       0.0001
     44  CH2       50.2530  -24.5770   13.7800 C.ar   77  TRP77       0.0015
     45  N         54.5400  -31.1200   11.0750 N.am   78  ASP78      -0.1974
     46  CA        55.4610  -32.1230   11.5950 C.3    78  ASP78       0.1709
     47  C         56.9050  -31.7190   11.3420 C.2    78  ASP78       0.2293
     48  O         57.7670  -31.8810   12.2130 O.2    78  ASP78      -0.2864
     49  CB        55.1710  -33.4830   10.9630 C.3    78  ASP78       0.1436
     50  CG        53.8530  -34.0660   11.4140 C.2    78  ASP78       0.3671
     51  OD1       53.5400  -33.9630   12.6190 O.co2  78  ASP78      -0.2456
     52  OD2       53.1290  -34.6270   10.5640 O.co2  78  ASP78      -0.2456
     53  N         57.8600  -28.8270   13.8850 N.3    81  LEU81      -0.1231
     54  CA        57.8670  -29.1340   15.3060 C.3    81  LEU81       0.1693
     55  C         58.8860  -30.2010   15.6840 C.2    81  LEU81       0.2591
     56  O         59.0550  -30.4740   16.8770 O.2    81  LEU81      -0.2718
     57  CB        56.4700  -29.5730   15.7480 C.3    81  LEU81       0.0284
     58  CG        55.4980  -28.4140   15.9490 C.3    81  LEU81       0.0019
     59  CD1       54.0680  -28.8860   15.8150 C.3    81  LEU81       0.0001
     60  CD2       55.7270  -27.7850   17.3130 C.3    81  LEU81       0.0001
     61  N         59.5630  -30.8080   14.7060 N.am   82  LYS82      -0.1980
     62  CA        60.6100  -31.7800   15.0190 C.3    82  LYS82       0.1596
     63  C         61.7450  -31.1780   15.8390 C.2    82  LYS82       0.2287
     64  O         62.0290  -31.6880   16.9370 O.2    82  LYS82      -0.2864
     65  CB        61.1210  -32.4170   13.7220 C.3    82  LYS82       0.0298
     66  CG        60.4420  -33.7210   13.3360 C.3    82  LYS82       0.0038
     67  CD        60.9160  -34.8720   14.2100 C.3    82  LYS82       0.0206
     68  CE        60.7420  -36.2100   13.5060 C.3    82  LYS82       0.1093
     69  NZ        61.5410  -36.2760   12.2510 N.3    82  LYS82      -0.1314
     70  N         61.2300  -30.3160   23.6310 N.3    86  LYS86      -0.1245
     71  CA        60.3330  -31.2660   24.2770 C.3    86  LYS86       0.1561
     72  C         60.1080  -30.8080   25.7120 C.2    86  LYS86       0.2260
     73  O         61.0610  -30.7110   26.4910 O.2    86  LYS86      -0.2867
     74  CB        60.9140  -32.6800   24.2480 C.3    86  LYS86       0.0271
     75  CG        60.9260  -33.3390   22.8770 C.3    86  LYS86       0.0035
     76  CD        59.5530  -33.8740   22.5050 C.3    86  LYS86       0.0206
     77  CE        59.5630  -34.5110   21.1210 C.3    86  LYS86       0.1093
     78  NZ        59.9380  -33.5450   20.0470 N.3    86  LYS86      -0.1314
     79  N         52.7140  -36.4990   24.6590 N.3   155  ALA155     -0.1245
     80  CA        53.8930  -35.6880   24.9100 C.3   155  ALA155      0.1562
     81  C         53.7140  -34.3360   24.2370 C.2   155  ALA155      0.2260
     82  O         52.9820  -34.2040   23.2520 O.2   155  ALA155     -0.2867
     83  CB        55.1560  -36.3770   24.3980 C.3   155  ALA155      0.0290
     84  N         55.3550  -30.5750   22.7700 N.3   157  THR157     -0.1218
     85  CA        56.4970  -29.9370   22.1220 C.3   157  THR157      0.1862
     86  C         56.1320  -28.4920   21.8180 C.2   157  THR157      0.2287
     87  O         55.2090  -28.2400   21.0360 O.2   157  THR157     -0.2866
     88  CB        56.8800  -30.6600   20.8240 C.3   157  THR157      0.1770
     89  OG1       57.2760  -32.0060   21.1100 O.3   157  THR157     -0.2211
     90  CG2       58.0190  -29.9370   20.1260 C.3   157  THR157      0.0375
     91  N         52.9730  -18.4120   12.5720 N.3   165  PHE165     -0.1241
     92  CA        51.7640  -19.1600   12.2540 C.3   165  PHE165      0.1605
     93  C         50.9000  -18.4690   11.2090 C.2   165  PHE165      0.2264
     94  O         49.8800  -19.0350   10.8000 O.2   165  PHE165     -0.2867
     95  CB        50.9340  -19.4010   13.5190 C.3   165  PHE165      0.0534
     96  CG        51.5550  -20.3730   14.4830 C.ar  165  PHE165     -0.0203
     97  CD1       52.5870  -21.2060   14.0830 C.ar  165  PHE165     -0.0042
     98  CD2       51.1010  -20.4580   15.7890 C.ar  165  PHE165     -0.0042
     99  CE1       53.1600  -22.1030   14.9700 C.ar  165  PHE165     -0.0003
    100  CE2       51.6690  -21.3530   16.6810 C.ar  165  PHE165     -0.0003
    101  CZ        52.7000  -22.1770   16.2700 C.ar  165  PHE165     -0.0000
    102  N         43.4570  -22.8750    9.0030 N.3   210  VAL210     -0.1245
    103  CA        42.6930  -23.9360    9.6460 C.3   210  VAL210      0.1561
    104  C         41.7620  -23.2850   10.6590 C.2   210  VAL210      0.2260
    105  O         42.2110  -22.7680   11.6880 O.2   210  VAL210     -0.2867
    106  CB        43.6050  -24.9740   10.3100 C.3   210  VAL210      0.0252
    107  CG1       42.7740  -25.9830   11.0800 C.3   210  VAL210      0.0019
    108  CG2       44.4500  -25.6740    9.2660 C.3   210  VAL210      0.0019
    109  N         37.4240  -23.4960   12.3380 N.3   212  THR212     -0.1218
    110  CA        36.2670  -24.3410   12.5910 C.3   212  THR212      0.1862
    111  C         34.9860  -23.5320   12.4360 C.2   212  THR212      0.2287
    112  O         34.9470  -22.3370   12.7460 O.2   212  THR212     -0.2866
    113  CB        36.3310  -24.9570   13.9940 C.3   212  THR212      0.1770
    114  OG1       37.5630  -25.6720   14.1420 O.3   212  THR212     -0.2211
    115  CG2       35.1790  -25.9190   14.2120 C.3   212  THR212      0.0375
    116  N         37.4880  -28.1040   19.9910 N.3   324  GLU324     -0.1245
    117  CA        37.8740  -27.4880   18.7240 C.3   324  GLU324      0.1567
    118  C         36.7030  -27.4020   17.7540 C.2   324  GLU324      0.2260
    119  O         36.6740  -26.5070   16.9030 O.2   324  GLU324     -0.2867
    120  CB        39.0250  -28.2650   18.0800 C.3   324  GLU324      0.0388
    121  CG        40.4050  -27.9970   18.6710 C.3   324  GLU324      0.1160
    122  CD        40.5810  -28.5760   20.0630 C.2   324  GLU324      0.3649
    123  OE1       39.8030  -29.4800   20.4420 O.co2 324  GLU324     -0.2457
    124  OE2       41.5000  -28.1240   20.7810 O.co2 324  GLU324     -0.2457
    125  N         37.0410  -22.1920   16.4940 N.3   329  SER329     -0.1202
    126  CA        38.4500  -22.2530   16.8520 C.3   329  SER329      0.2020
    127  C         39.3040  -21.8890   15.6480 C.2   329  SER329      0.2619
    128  O         39.0240  -22.3040   14.5200 O.2   329  SER329     -0.2717
    129  CB        38.8260  -23.6420   17.3700 C.3   329  SER329      0.2103
    130  OG        38.6080  -24.6360   16.3900 O.3   329  SER329     -0.2182
    131  N         40.3420  -21.1020   15.8950 N.am  330  PHE330     -0.1961
    132  CA        41.2140  -20.6050   14.8400 C.3   330  PHE330      0.1771
    133  C         42.4820  -20.0760   15.5000 C.2   330  PHE330      0.2619
    134  O         42.6720  -20.2100   16.7130 O.2   330  PHE330     -0.2715
    135  CB        40.5050  -19.5330   14.0070 C.3   330  PHE330      0.0574
    136  CG        40.1890  -18.2850   14.7760 C.ar  330  PHE330     -0.0200
    137  CD1       39.0970  -18.2360   15.6230 C.ar  330  PHE330     -0.0042
    138  CD2       40.9880  -17.1610   14.6550 C.ar  330  PHE330     -0.0042
    139  CE1       38.8080  -17.0910   16.3350 C.ar  330  PHE330     -0.0003
    140  CE2       40.7020  -16.0130   15.3640 C.ar  330  PHE330     -0.0003
    141  CZ        39.6140  -15.9790   16.2040 C.ar  330  PHE330     -0.0000
    142  N         43.3530  -19.4700   14.7010 N.am  331  ASN331     -0.1972
    143  CA        44.6030  -18.9100   15.1910 C.3   331  ASN331      0.1688
    144  C         44.6550  -17.4290   14.8540 C.2   331  ASN331      0.2292
    145  O         44.4850  -17.0450   13.6920 O.2   331  ASN331     -0.2864
    146  CB        45.8050  -19.6360   14.5880 C.3   331  ASN331      0.1181
    147  CG        47.1210  -19.0700   15.0680 C.2   331  ASN331      0.2629
    148  OD1       47.5900  -19.3990   16.1580 O.2   331  ASN331     -0.2716
    149  ND2       47.7250  -18.2080   14.2580 N.am  331  ASN331     -0.0877
    150  N         45.6310  -19.4380   20.0590 N.3   336  PHE336     -0.1241
    151  CA        44.5530  -20.2250   19.4700 C.3   336  PHE336      0.1605
    152  C         43.2500  -19.8930   20.1870 C.2   336  PHE336      0.2264
    153  O         43.0490  -20.2900   21.3400 O.2   336  PHE336     -0.2867
    154  CB        44.8700  -21.7170   19.5490 C.3   336  PHE336      0.0534
    155  CG        46.0190  -22.1310   18.6770 C.ar  336  PHE336     -0.0203
    156  CD1       47.3190  -22.0890   19.1520 C.ar  336  PHE336     -0.0042
    157  CD2       45.8000  -22.5470   17.3740 C.ar  336  PHE336     -0.0042
    158  CE1       48.3780  -22.4590   18.3490 C.ar  336  PHE336     -0.0003
    159  CE2       46.8560  -22.9190   16.5640 C.ar  336  PHE336     -0.0003
    160  CZ        48.1470  -22.8730   17.0530 C.ar  336  PHE336     -0.0000
    161  N         39.1110  -19.8820   20.8900 N.3   338  TYR338     -0.1241
    162  CA        38.0170  -20.8570   20.9200 C.3   338  TYR338      0.1605
    163  C         36.7480  -20.0770   21.2600 C.2   338  TYR338      0.2264
    164  O         36.4240  -19.8820   22.4350 O.2   338  TYR338     -0.2867
    165  CB        38.2900  -21.9680   21.9260 C.3   338  TYR338      0.0534
    166  CG        39.4160  -22.8920   21.5250 C.ar  338  TYR338     -0.0201
    167  CD1       40.7420  -22.5380   21.7340 C.ar  338  TYR338     -0.0009
    168  CD2       39.1520  -24.1230   20.9410 C.ar  338  TYR338     -0.0009
    169  CE1       41.7730  -23.3810   21.3650 C.ar  338  TYR338      0.0417
    170  CE2       40.1750  -24.9740   20.5740 C.ar  338  TYR338      0.0417
    171  CZ        41.4840  -24.5990   20.7890 C.ar  338  TYR338      0.1957
    172  OH        42.5080  -25.4440   20.4250 O.3   338  TYR338     -0.2866
    173  N         47.4930  -27.3050   22.5650 N.3   368  ILE368     -0.1231
    174  CA        46.5580  -27.7670   21.5480 C.3   368  ILE368      0.1692
    175  C         47.0500  -29.0970   20.9960 C.2   368  ILE368      0.2592
    176  O         48.2550  -29.2950   20.7900 O.2   368  ILE368     -0.2718
    177  CB        46.3770  -26.7230   20.4290 C.3   368  ILE368      0.0266
    178  CG1       47.6430  -26.5860   19.5960 C.3   368  ILE368      0.0019
    179  CG2       46.0100  -25.3690   21.0170 C.3   368  ILE368      0.0020
    180  CD1       47.3790  -25.9910   18.2500 C.3   368  ILE368      0.0001
    181  N         46.1190  -30.0190   20.7760 N.am  369  ASN369     -0.1960
    182  CA        46.4540  -31.3670   20.3510 C.3   369  ASN369      0.1819
    183  C         46.4430  -31.4770   18.8320 C.2   369  ASN369      0.2621
    184  O         45.7960  -30.6960   18.1290 O.2   369  ASN369     -0.2715
    185  CB        45.4800  -32.3840   20.9520 C.3   369  ASN369      0.1195
    186  CG        45.7220  -32.6240   22.4300 C.2   369  ASN369      0.2630
    187  OD1       46.1400  -31.7240   23.1580 O.2   369  ASN369     -0.2716
    188  ND2       45.4640  -33.8480   22.8810 N.am  369  ASN369     -0.0877
    189  N         47.1820  -32.4630   18.3320 N.am  370  MET370     -0.1963
    190  CA        47.1210  -32.7930   16.9190 C.3   370  MET370      0.1736
    191  C         45.7830  -33.4500   16.6050 C.2   370  MET370      0.2616
    192  O         45.2840  -34.2760   17.3740 O.2   370  MET370     -0.2715
    193  CB        48.2790  -33.7130   16.5370 C.3   370  MET370      0.0427
    194  CG        48.2340  -34.1960   15.0990 C.3   370  MET370      0.0599
    195  SD        49.8150  -34.8120   14.5010 S.3   370  MET370     -0.1393
    196  CE        49.3520  -35.3520   12.8570 C.3   370  MET370      0.0692
    197  N         45.1940  -33.0690   15.4700 N.am  371  TRP371     -0.1960
    198  CA        43.8470  -33.5310   15.1550 C.3   371  TRP371      0.1771
    199  C         43.8350  -34.9990   14.7450 C.2   371  TRP371      0.2620
    200  O         42.9470  -35.7550   15.1550 O.2   371  TRP371     -0.2715
    201  CB        43.2370  -32.6610   14.0590 C.3   371  TRP371      0.0590
    202  CG        42.8600  -31.2950   14.5350 C.ar  371  TRP371      0.0006
    203  CD1       43.1840  -30.7240   15.7320 C.ar  371  TRP371      0.0946
    204  CD2       42.0770  -30.3260   13.8270 C.ar  371  TRP371      0.0152
    205  NE1       42.6550  -29.4580   15.8100 N.ar  371  TRP371     -0.2442
    206  CE2       41.9700  -29.1910   14.6540 C.ar  371  TRP371      0.0810
    207  CE3       41.4590  -30.3080   12.5740 C.ar  371  TRP371      0.0012
    208  CZ2       41.2710  -28.0510   14.2690 C.ar  371  TRP371      0.0191
    209  CZ3       40.7660  -29.1780   12.1950 C.ar  371  TRP371      0.0001
    210  CH2       40.6770  -28.0640   13.0390 C.ar  371  TRP371      0.0015
    211  N         44.8060  -35.4240   13.9400 N.am  372  GLN372     -0.1963
    212  CA        44.7980  -36.7890   13.4310 C.3   372  GLN372      0.1733
    213  C         45.1890  -37.7880   14.5140 C.2   372  GLN372      0.2616
    214  O         44.3460  -38.5500   14.9970 O.2   372  GLN372     -0.2715
    215  CB        45.7300  -36.9140   12.2250 C.3   372  GLN372      0.0408
    216  CG        45.4250  -35.9230   11.1140 C.3   372  GLN372      0.0908
    217  CD        43.9840  -35.9950   10.6390 C.2   372  GLN372      0.2608
    218  OE1       43.5930  -36.9350    9.9480 O.2   372  GLN372     -0.2717
    219  NE2       43.1870  -34.9980   11.0100 N.am  372  GLN372     -0.0878
    220  N         46.4600  -37.7880   14.9040 N.am  373  ARG373     -0.1977
    221  CA        46.9520  -38.7790   15.8450 C.3   373  ARG373      0.1597
    222  C         46.5860  -38.3950   17.2780 C.2   373  ARG373      0.2287
    223  O         46.1160  -37.2900   17.5590 O.2   373  ARG373     -0.2864
    224  CB        48.4670  -38.9370   15.7150 C.3   373  ARG373      0.0334
    225  CG        49.0050  -38.7500   14.3040 C.3   373  ARG373      0.0492
    226  CD        50.4580  -39.1960   14.2150 C.3   373  ARG373      0.2205
    227  NE        51.2510  -38.3360   13.3410 N.pl3 373  ARG373     -0.0865
    228  CZ        52.0330  -37.3490   13.7740 C.cat 373  ARG373      0.5346
    229  NH1       52.1280  -37.0940   15.0720 N.pl3 373  ARG373      0.1354
    230  NH2       52.7200  -36.6170   12.9080 N.pl3 373  ARG373      0.1354
    231  N         50.2380  -36.7360   20.4770 N.3   376  GLN376     -0.1231
    232  CA        51.0490  -35.6730   19.9010 C.3   376  GLN376      0.1698
    233  C         50.3350  -34.3520   20.1340 C.2   376  GLN376      0.2592
    234  O         49.2310  -34.1440   19.6200 O.2   376  GLN376     -0.2718
    235  CB        51.2720  -35.9120   18.4050 C.3   376  GLN376      0.0381
    236  CG        52.4550  -35.1750   17.8130 C.3   376  GLN376      0.0905
    237  CD        53.7740  -35.8630   18.1000 C.2   376  GLN376      0.2608
    238  OE1       54.1300  -36.0960   19.2560 O.2   376  GLN376     -0.2717
    239  NE2       54.5060  -36.1990   17.0440 N.am  376  GLN376     -0.0878
    240  N         50.9580  -33.4650   20.9090 N.am  377  ALA377     -0.1966
    241  CA        50.3680  -32.1760   21.2380 C.3   377  ALA377      0.1728
    242  C         51.4410  -31.0970   21.1940 C.2   377  ALA377      0.2616
    243  O         52.6210  -31.3600   21.4400 O.2   377  ALA377     -0.2715
    244  CB        49.6950  -32.1990   22.6150 C.3   377  ALA377      0.0334
    245  N         51.0150  -29.8770   20.8810 N.am  378  MET378     -0.1977
    246  CA        51.9070  -28.7360   20.7360 C.3   378  MET378      0.1605
    247  C         51.6270  -27.7110   21.8250 C.2   378  MET378      0.2287
    248  O         50.4770  -27.5300   22.2390 O.2   378  MET378     -0.2864
    249  CB        51.7390  -28.0790   19.3610 C.3   378  MET378      0.0413
    250  CG        52.6900  -26.9230   19.1050 C.3   378  MET378      0.0598
    251  SD        52.3200  -26.0120   17.5960 S.3   378  MET378     -0.1393
    252  CE        50.8630  -25.1130   18.0960 C.3   378  MET378      0.0692
    253  N         40.0930  -31.3560    8.5700 N.3   413  MET413     -0.1245
    254  CA        40.9050  -30.2930    7.9950 C.3   413  MET413      0.1570
    255  C         40.7340  -30.1840    6.4880 C.2   413  MET413      0.2261
    256  O         40.9730  -29.1080    5.9280 O.2   413  MET413     -0.2867
    257  CB        42.3770  -30.5180    8.3370 C.3   413  MET413      0.0387
    258  CG        43.1170  -29.2680    8.7850 C.3   413  MET413      0.0595
    259  SD        44.8290  -29.6360    9.2220 S.3   413  MET413     -0.1393
    260  CE        44.6110  -31.0520   10.3040 C.3   413  MET413      0.0692
@<TRIPOS>BOND
     1    22    20    1
     2     4     3    2
     3    15    16    1
     4     3     2    1
     5    20    19    1
     6     5     2    1
     7     5     6    1
     8    16    19    1
     9    16    17    1
    10    19    21    1
    11     2     1    1
    12   256   255    2
    13     6     7   ar
    14     6     8   ar
    15   255   254    1
    16    11     8   ar
    17    11    13   ar
    18     7     9   ar
    19     8    10   ar
    20    17    23   am
    21    17    18    2
    22    23    24    1
    23    13    14   ar
    24     9    10   ar
    25    10    12   ar
    26   254   257    1
    27   254   253    1
    28   257   258    1
    29    24    25    1
    30    24    27    1
    31    25    26    2
    32    27    28    1
    33    27    29    1
    34    14    12   ar
    35    30    28    1
    36   258   259    1
    37   102   103    1
    38   259   260    1
    39   108   106    1
    40    31    32    1
    41   103   106    1
    42   103   104    1
    43   218   217    2
    44    37    39   ar
    45    37    36   ar
    46   106   107    1
    47    39    40   ar
    48    52    50   ar
    49   217   219   am
    50   217   216    1
    51   104   105    2
    52    94    93    2
    53    32    35    1
    54    32    33    1
    55    49    50    1
    56    49    46    1
    57    45    33   am
    58    45    46    1
    59   216   215    1
    60    93    92    1
    61    36    35    1
    62    36    38   ar
    63    47    46    1
    64    47    48    2
    65    50    51   ar
    66    33    34    2
    67    40    38   ar
    68    40    42   ar
    69   209   207   ar
    70   209   210   ar
    71   215   212    1
    72    69    68    1
    73    92    91    1
    74    92    95    1
    75    38    41   ar
    76   109   110    1
    77   111   110    1
    78   111   112    2
    79    42    44   ar
    80   207   204   ar
    81   110   113    1
    82   196   195    1
    83   230   228    1
    84   210   208   ar
    85    66    65    1
    86    66    67    1
    87   227   228    2
    88   227   226    1
    89   212   211    1
    90   212   213    1
    91    68    67    1
    92    95    96    1
    93    41    43   ar
    94   145   144    2
    95    65    62    1
    96   228   229    1
    97    44    43   ar
    98   204   202   ar
    99   204   206   ar
   100    53    54    1
   101   211   199   am
   102   113   114    1
   103   113   115    1
   104   135   136    1
   105   135   132    1
   106   201   202    1
   107   201   198    1
   108    97    96   ar
   109    97    99   ar
   110   226   225    1
   111   149   147   am
   112   208   206   ar
   113   225   224    1
   114    96    98   ar
   115   195   194    1
   116   213   220   am
   117   213   214    2
   118   128   127    2
   119   202   203   ar
   120   146   147    1
   121   146   143    1
   122   206   205   ar
   123   138   136   ar
   124   138   140   ar
   125   142   143    1
   126   142   133   am
   127    61    62    1
   128    61    55   am
   129   199   200    2
   130   199   198    1
   131   136   137   ar
   132   132   133    1
   133   132   131    1
   134   144   143    1
   135   220   221    1
   136    99   101   ar
   137    62    63    1
   138   147   148    2
   139   194   193    1
   140   198   197    1
   141    54    55    1
   142    54    57    1
   143   140   141   ar
   144   197   191   am
   145   133   134    2
   146   137   139   ar
   147   127   131   am
   148   127   126    1
   149    55    56    2
   150   224   221    1
   151   203   205   ar
   152    57    58    1
   153    98   100   ar
   154    59    58    1
   155    63    64    2
   156   221   222    1
   157    58    60    1
   158   141   139   ar
   159   101   100   ar
   160   130   129    1
   161   125   126    1
   162   193   190    1
   163   159   160   ar
   164   159   157   ar
   165   191   190    1
   166   191   192    2
   167   126   129    1
   168   119   118    2
   169   190   189    1
   170   239   237   am
   171   160   158   ar
   172   222   223    2
   173   157   155   ar
   174   251   252    1
   175   251   250    1
   176   118   117    1
   177   236   237    1
   178   236   235    1
   179   120   121    1
   180   120   117    1
   181   237   238    2
   182   184   183    2
   183   180   178    1
   184   189   183   am
   185   158   156   ar
   186   235   232    1
   187   121   122    1
   188   155   156   ar
   189   155   154    1
   190   117   116    1
   191   183   182    1
   192   250   249    1
   193   249   246    1
   194   151   154    1
   195   151   150    1
   196   151   152    1
   197   178   177    1
   198   234   233    2
   199   232   233    1
   200   232   231    1
   201    78    77    1
   202   122   123   ar
   203   122   124   ar
   204    90    88    1
   205   233   240   am
   206   152   153    2
   207   182   181    1
   208   182   185    1
   209   172   171    1
   210   177   179    1
   211   177   174    1
   212   170   171   ar
   213   170   168   ar
   214   246   245    1
   215   246   247    1
   216   181   175   am
   217   171   169   ar
   218   176   175    2
   219    88    89    1
   220    88    85    1
   221   245   242   am
   222   161   162    1
   223   240   241    1
   224   162   163    1
   225   162   165    1
   226   168   166   ar
   227   185   186    1
   228   175   174    1
   229    87    86    2
   230    77    76    1
   231   242   241    1
   232   242   243    2
   233   241   244    1
   234   163   164    2
   235   169   167   ar
   236   166   167   ar
   237   166   165    1
   238   174   173    1
   239    86    85    1
   240   247   248    2
   241    85    84    1
   242   186   188   am
   243   186   187    2
   244    76    75    1
   245    75    74    1
   246    82    81    2
   247    70    71    1
   248    81    80    1
   249    74    71    1
   250    71    72    1
   251    83    80    1
   252    79    80    1
   253    72    73    2
