@<TRIPOS>MOLECULE
tmp/6mu8D04.pdb
 208 204 0 0 0
SMALL
GASTEIGER

@<TRIPOS>ATOM
      1  N        -54.6790  -22.7120   78.6100 N.3    34  TRP34      -0.1241
      2  CA       -54.3500  -23.2320   79.9300 C.3    34  TRP34       0.1605
      3  C        -55.5490  -23.2710   80.8670 C.2    34  TRP34       0.2264
      4  O        -55.4150  -23.7590   81.9950 O.2    34  TRP34      -0.2867
      5  CB       -53.2240  -22.3930   80.5370 C.3    34  TRP34       0.0550
      6  CG       -52.2630  -21.9070   79.4960 C.ar   34  TRP34       0.0003
      7  CD1      -52.2100  -20.6580   78.9470 C.ar   34  TRP34       0.0946
      8  CD2      -51.2350  -22.6710   78.8530 C.ar   34  TRP34       0.0152
      9  NE1      -51.2030  -20.5930   78.0140 N.ar   34  TRP34      -0.2442
     10  CE2      -50.5890  -21.8150   77.9390 C.ar   34  TRP34       0.0810
     11  CE3      -50.7920  -23.9910   78.9700 C.ar   34  TRP34       0.0012
     12  CZ2      -49.5270  -22.2390   77.1430 C.ar   34  TRP34       0.0191
     13  CZ3      -49.7370  -24.4090   78.1810 C.ar   34  TRP34       0.0001
     14  CH2      -49.1160  -23.5360   77.2790 C.ar   34  TRP34       0.0015
     15  N        -49.9580  -29.8000   81.2020 N.3    73  ILE73      -0.1231
     16  CA       -49.9000  -28.9000   80.0540 C.3    73  ILE73       0.1692
     17  C        -50.3260  -29.6260   78.7840 C.2    73  ILE73       0.2591
     18  O        -51.0830  -29.0890   77.9670 O.2    73  ILE73      -0.2718
     19  CB       -48.4860  -28.3010   79.9210 C.3    73  ILE73       0.0266
     20  CG1      -48.1720  -27.4000   81.1190 C.3    73  ILE73       0.0019
     21  CG2      -48.3360  -27.5480   78.6080 C.3    73  ILE73       0.0020
     22  CD1      -49.2430  -26.3740   81.4130 C.3    73  ILE73       0.0001
     23  N        -49.8580  -30.8620   78.6080 N.am   74  ILE74      -0.1980
     24  CA       -50.2250  -31.6360   77.4260 C.3    74  ILE74       0.1595
     25  C        -51.7120  -31.9680   77.4420 C.2    74  ILE74       0.2287
     26  O        -52.3820  -31.9250   76.4030 O.2    74  ILE74      -0.2864
     27  CB       -49.3520  -32.9010   77.3360 C.3    74  ILE74       0.0276
     28  CG1      -47.9010  -32.5130   77.0450 C.3    74  ILE74       0.0022
     29  CG2      -49.8810  -33.8510   76.2740 C.3    74  ILE74       0.0022
     30  CD1      -46.9330  -33.6630   77.1350 C.3    74  ILE74       0.0001
     31  N        -53.6350  -28.8860   76.3300 N.3    77  TRP77      -0.1227
     32  CA       -53.6510  -28.6570   74.8890 C.3    77  TRP77       0.1737
     33  C        -54.6030  -29.6160   74.1850 C.2    77  TRP77       0.2595
     34  O        -55.3650  -29.2040   73.3030 O.2    77  TRP77      -0.2718
     35  CB       -52.2360  -28.7800   74.3220 C.3    77  TRP77       0.0564
     36  CG       -51.4480  -27.5090   74.4240 C.ar   77  TRP77       0.0003
     37  CD1      -50.8890  -26.9770   75.5490 C.ar   77  TRP77       0.0946
     38  CD2      -51.1360  -26.6060   73.3570 C.ar   77  TRP77       0.0152
     39  NE1      -50.2480  -25.8000   75.2490 N.ar   77  TRP77      -0.2442
     40  CE2      -50.3850  -25.5500   73.9090 C.ar   77  TRP77       0.0810
     41  CE3      -51.4190  -26.5880   71.9880 C.ar   77  TRP77       0.0012
     42  CZ2      -49.9140  -24.4870   73.1410 C.ar   77  TRP77       0.0191
     43  CZ3      -50.9480  -25.5340   71.2280 C.ar   77  TRP77       0.0001
     44  CH2      -50.2040  -24.4980   71.8060 C.ar   77  TRP77       0.0015
     45  N        -54.5760  -30.8970   74.5630 N.am   78  ASP78      -0.1974
     46  CA       -55.4780  -31.8670   73.9470 C.3    78  ASP78       0.1709
     47  C        -56.9340  -31.5320   74.2430 C.2    78  ASP78       0.2293
     48  O        -57.7990  -31.6590   73.3690 O.2    78  ASP78      -0.2864
     49  CB       -55.1430  -33.2770   74.4310 C.3    78  ASP78       0.1436
     50  CG       -53.8340  -33.7900   73.8680 C.2    78  ASP78       0.3671
     51  OD1      -53.5220  -33.4640   72.7040 O.co2  78  ASP78      -0.2456
     52  OD2      -53.1190  -34.5170   74.5880 O.co2  78  ASP78      -0.2456
     53  N        -57.9730  -28.5640   72.0160 N.3    81  LEU81      -0.1245
     54  CA       -57.9950  -28.8050   70.5800 C.3    81  LEU81       0.1561
     55  C        -59.1270  -29.7220   70.1430 C.2    81  LEU81       0.2260
     56  O        -59.4780  -29.7230   68.9580 O.2    81  LEU81      -0.2867
     57  CB       -56.6610  -29.4030   70.1230 C.3    81  LEU81       0.0270
     58  CG       -55.6420  -28.4300   69.5300 C.3    81  LEU81       0.0019
     59  CD1      -54.2610  -29.0630   69.4950 C.3    81  LEU81       0.0001
     60  CD2      -56.0700  -28.0010   68.1350 C.3    81  LEU81       0.0001
     61  N        -43.4720  -22.3610   76.8380 N.3   210  VAL210     -0.1245
     62  CA       -42.7160  -23.4500   76.2320 C.3   210  VAL210      0.1561
     63  C        -41.7970  -22.8310   75.1870 C.2   210  VAL210      0.2260
     64  O        -42.2340  -22.4670   74.0920 O.2   210  VAL210     -0.2867
     65  CB       -43.6360  -24.5100   75.6220 C.3   210  VAL210      0.0252
     66  CG1      -42.8160  -25.5840   74.9240 C.3   210  VAL210      0.0019
     67  CG2      -44.5220  -25.1210   76.6960 C.3   210  VAL210      0.0019
     68  N        -37.4200  -22.8290   73.6140 N.3   212  THR212     -0.1218
     69  CA       -36.2630  -23.6700   73.3500 C.3   212  THR212      0.1862
     70  C        -34.9940  -22.8440   73.5050 C.2   212  THR212      0.2287
     71  O        -34.9750  -21.6460   73.2060 O.2   212  THR212     -0.2866
     72  CB       -36.3360  -24.2880   71.9410 C.3   212  THR212      0.1770
     73  OG1      -37.5480  -25.0420   71.8150 O.3   212  THR212     -0.2211
     74  CG2      -35.1510  -25.2100   71.6820 C.3   212  THR212      0.0375
     75  N        -37.3750  -27.7000   65.8480 N.3   324  GLU324     -0.1245
     76  CA       -37.7680  -27.0840   67.1110 C.3   324  GLU324      0.1567
     77  C        -36.5960  -26.9730   68.0800 C.2   324  GLU324      0.2260
     78  O        -36.5640  -26.0540   68.9060 O.2   324  GLU324     -0.2867
     79  CB       -38.9080  -27.8740   67.7580 C.3   324  GLU324      0.0388
     80  CG       -40.2900  -27.5760   67.1940 C.3   324  GLU324      0.1160
     81  CD       -40.5550  -28.2780   65.8780 C.2   324  GLU324      0.3649
     82  OE1      -39.7220  -29.1120   65.4650 O.co2 324  GLU324     -0.2457
     83  OE2      -41.6030  -27.9980   65.2580 O.co2 324  GLU324     -0.2457
     84  N        -37.0040  -21.6030   69.3190 N.3   329  SER329     -0.1202
     85  CA       -38.3990  -21.6960   68.9270 C.3   329  SER329      0.2020
     86  C        -39.2980  -21.4050   70.1210 C.2   329  SER329      0.2619
     87  O        -39.0280  -21.8460   71.2410 O.2   329  SER329     -0.2717
     88  CB       -38.7000  -23.0780   68.3480 C.3   329  SER329      0.2103
     89  OG       -38.4130  -24.1020   69.2830 O.3   329  SER329     -0.2182
     90  N        -40.3640  -20.6530   69.8730 N.am  330  PHE330     -0.1961
     91  CA       -41.2530  -20.1730   70.9270 C.3   330  PHE330      0.1771
     92  C        -42.5210  -19.6460   70.2650 C.2   330  PHE330      0.2619
     93  O        -42.6920  -19.7380   69.0460 O.2   330  PHE330     -0.2715
     94  CB       -40.5760  -19.0950   71.7770 C.3   330  PHE330      0.0574
     95  CG       -40.2760  -17.8290   71.0240 C.ar  330  PHE330     -0.0200
     96  CD1      -39.2290  -17.7750   70.1180 C.ar  330  PHE330     -0.0042
     97  CD2      -41.0390  -16.6910   71.2260 C.ar  330  PHE330     -0.0042
     98  CE1      -38.9530  -16.6130   69.4250 C.ar  330  PHE330     -0.0003
     99  CE2      -40.7650  -15.5260   70.5370 C.ar  330  PHE330     -0.0003
    100  CZ       -39.7230  -15.4880   69.6350 C.ar  330  PHE330     -0.0000
    101  N        -43.4090  -19.0840   71.0820 N.am  331  ASN331     -0.1972
    102  CA       -44.6700  -18.5260   70.6120 C.3   331  ASN331      0.1688
    103  C        -44.7060  -17.0340   70.9090 C.2   331  ASN331      0.2292
    104  O        -44.4360  -16.6140   72.0390 O.2   331  ASN331     -0.2864
    105  CB       -45.8650  -19.2250   71.2630 C.3   331  ASN331      0.1181
    106  CG       -47.1920  -18.6470   70.8120 C.2   331  ASN331      0.2629
    107  OD1      -47.6480  -18.9030   69.6960 O.2   331  ASN331     -0.2716
    108  ND2      -47.8230  -17.8650   71.6810 N.am  331  ASN331     -0.0877
    109  N        -45.7060  -19.0260   65.6970 N.3   336  PHE336     -0.1241
    110  CA       -44.6250  -19.8150   66.2780 C.3   336  PHE336      0.1605
    111  C        -43.3190  -19.4790   65.5680 C.2   336  PHE336      0.2264
    112  O        -43.0980  -19.8890   64.4240 O.2   336  PHE336     -0.2867
    113  CB       -44.9480  -21.3040   66.2000 C.3   336  PHE336      0.0534
    114  CG       -46.0700  -21.7170   67.1080 C.ar  336  PHE336     -0.0203
    115  CD1      -45.8350  -21.9650   68.4490 C.ar  336  PHE336     -0.0042
    116  CD2      -47.3630  -21.8310   66.6270 C.ar  336  PHE336     -0.0042
    117  CE1      -46.8640  -22.3340   69.2920 C.ar  336  PHE336     -0.0003
    118  CE2      -48.3980  -22.1990   67.4670 C.ar  336  PHE336     -0.0003
    119  CZ       -48.1470  -22.4500   68.8000 C.ar  336  PHE336     -0.0000
    120  N        -39.1900  -19.4480   64.9180 N.3   338  TYR338     -0.1241
    121  CA       -38.0760  -20.4040   64.9230 C.3   338  TYR338      0.1605
    122  C        -36.8240  -19.6010   64.5740 C.2   338  TYR338      0.2264
    123  O        -36.5140  -19.3950   63.3970 O.2   338  TYR338     -0.2867
    124  CB       -38.3100  -21.5480   63.9450 C.3   338  TYR338      0.0534
    125  CG       -39.4140  -22.5010   64.3470 C.ar  338  TYR338     -0.0201
    126  CD1      -40.7490  -22.1370   64.2370 C.ar  338  TYR338     -0.0009
    127  CD2      -39.1200  -23.7730   64.8190 C.ar  338  TYR338     -0.0009
    128  CE1      -41.7580  -23.0040   64.6020 C.ar  338  TYR338      0.0417
    129  CE2      -40.1240  -24.6500   65.1810 C.ar  338  TYR338      0.0417
    130  CZ       -41.4420  -24.2600   65.0700 C.ar  338  TYR338      0.1957
    131  OH       -42.4470  -25.1270   65.4270 O.3   338  TYR338     -0.2866
    132  N        -47.4100  -27.0530   63.4150 N.3   365  ILE365     -0.1231
    133  CA       -46.4830  -27.5430   64.4290 C.3   365  ILE365      0.1692
    134  C        -46.9750  -28.8960   64.9230 C.2   365  ILE365      0.2592
    135  O        -48.1860  -29.1290   65.0420 O.2   365  ILE365     -0.2718
    136  CB       -46.3300  -26.5340   65.5850 C.3   365  ILE365      0.0266
    137  CG1      -47.5660  -26.5260   66.4850 C.3   365  ILE365      0.0019
    138  CG2      -46.0870  -25.1360   65.0340 C.3   365  ILE365      0.0020
    139  CD1      -47.3810  -25.7190   67.7490 C.3   365  ILE365      0.0001
    140  N        -46.0380  -29.8000   65.1880 N.am  366  ASN366     -0.1960
    141  CA       -46.3610  -31.1590   65.5930 C.3   366  ASN366      0.1819
    142  C        -46.2440  -31.3180   67.1030 C.2   366  ASN366      0.2621
    143  O        -45.4850  -30.6080   67.7680 O.2   366  ASN366     -0.2715
    144  CB       -45.4490  -32.1740   64.9000 C.3   366  ASN366      0.1195
    145  CG       -45.8810  -32.4740   63.4790 C.2   366  ASN366      0.2630
    146  OD1      -46.2210  -31.5700   62.7160 O.2   366  ASN366     -0.2716
    147  ND2      -45.8800  -33.7530   63.1190 N.am  366  ASN366     -0.0877
    148  N        -47.0140  -32.2640   67.6350 N.am  367  MET367     -0.1963
    149  CA       -46.9190  -32.6050   69.0460 C.3   367  MET367      0.1736
    150  C        -45.5490  -33.2010   69.3450 C.2   367  MET367      0.2616
    151  O        -44.9810  -33.9340   68.5300 O.2   367  MET367     -0.2715
    152  CB       -48.0310  -33.5870   69.4170 C.3   367  MET367      0.0427
    153  CG       -48.1180  -33.9280   70.8920 C.3   367  MET367      0.0599
    154  SD       -49.5250  -34.9980   71.2450 S.3   367  MET367     -0.1393
    155  CE       -49.2630  -35.3350   72.9840 C.3   367  MET367      0.0692
    156  N        -45.0120  -32.8770   70.5200 N.am  368  TRP368     -0.1960
    157  CA       -43.6560  -33.2690   70.8770 C.3   368  TRP368      0.1771
    158  C        -43.5630  -34.6630   71.4820 C.2   368  TRP368      0.2619
    159  O        -42.4510  -35.1850   71.6190 O.2   368  TRP368     -0.2715
    160  CB       -43.0510  -32.2610   71.8610 C.3   368  TRP368      0.0590
    161  CG       -42.8170  -30.8980   71.2830 C.ar  368  TRP368      0.0006
    162  CD1      -43.2330  -30.4360   70.0680 C.ar  368  TRP368      0.0946
    163  CD2      -42.1040  -29.8200   71.8980 C.ar  368  TRP368      0.0152
    164  NE1      -42.8270  -29.1360   69.8910 N.ar  368  TRP368     -0.2442
    165  CE2      -42.1300  -28.7350   71.0010 C.ar  368  TRP368      0.0810
    166  CE3      -41.4460  -29.6670   73.1220 C.ar  368  TRP368      0.0012
    167  CZ2      -41.5250  -27.5150   71.2880 C.ar  368  TRP368      0.0191
    168  CZ3      -40.8460  -28.4550   73.4060 C.ar  368  TRP368      0.0001
    169  CH2      -40.8900  -27.3950   72.4930 C.ar  368  TRP368      0.0015
    170  N        -44.6850  -35.2780   71.8500 N.am  369  GLN369     -0.1977
    171  CA       -44.6330  -36.5840   72.4950 C.3   369  GLN369      0.1601
    172  C        -44.9120  -37.7070   71.5040 C.2   369  GLN369      0.2287
    173  O        -43.9890  -38.4080   71.0790 O.2   369  GLN369     -0.2864
    174  CB       -45.6170  -36.6420   73.6630 C.3   369  GLN369      0.0394
    175  CG       -45.2560  -35.6990   74.7920 C.3   369  GLN369      0.0908
    176  CD       -43.8140  -35.8510   75.2370 C.2   369  GLN369      0.2608
    177  OE1      -42.9520  -35.0480   74.8760 O.2   369  GLN369     -0.2717
    178  NE2      -43.5440  -36.8840   76.0280 N.am  369  GLN369     -0.0878
    179  N        -50.2450  -36.5670   65.3410 N.3   373  GLN373     -0.1231
    180  CA       -51.0860  -35.4320   65.6920 C.3   373  GLN373      0.1698
    181  C        -50.2970  -34.1470   65.4960 C.2   373  GLN373      0.2592
    182  O        -49.1370  -34.0590   65.9100 O.2   373  GLN373     -0.2718
    183  CB       -51.5810  -35.5460   67.1350 C.3   373  GLN373      0.0381
    184  CG       -52.8770  -34.8110   67.4050 C.3   373  GLN373      0.0905
    185  CD       -54.1060  -35.6000   66.9910 C.2   373  GLN373      0.2608
    186  OE1      -54.2580  -35.9730   65.8280 O.2   373  GLN373     -0.2717
    187  NE2      -54.9900  -35.8640   67.9490 N.am  373  GLN373     -0.0878
    188  N        -50.9320  -33.1550   64.8710 N.am  374  ALA374     -0.1966
    189  CA       -50.2910  -31.8760   64.6110 C.3   374  ALA374      0.1728
    190  C        -51.3440  -30.7790   64.5510 C.2   374  ALA374      0.2616
    191  O        -52.4700  -31.0060   64.1010 O.2   374  ALA374     -0.2715
    192  CB       -49.4860  -31.9140   63.3070 C.3   374  ALA374      0.0334
    193  N        -50.9630  -29.5840   64.9950 N.am  375  MET375     -0.1977
    194  CA       -51.8700  -28.4490   65.0890 C.3   375  MET375      0.1605
    195  C        -51.5460  -27.4180   64.0160 C.2   375  MET375      0.2287
    196  O        -50.3790  -27.2090   63.6720 O.2   375  MET375     -0.2864
    197  CB       -51.7900  -27.7940   66.4720 C.3   375  MET375      0.0413
    198  CG       -52.8140  -26.6930   66.7030 C.3   375  MET375      0.0598
    199  SD       -52.4750  -25.7290   68.1870 S.3   375  MET375     -0.1393
    200  CE       -50.9230  -24.9600   67.7390 C.3   375  MET375      0.0692
    201  N        -40.0340  -30.7610   77.2740 N.3   410  MET410     -0.1245
    202  CA       -40.8080  -29.6660   77.8520 C.3   410  MET410      0.1570
    203  C        -40.5960  -29.5470   79.3550 C.2   410  MET410      0.2261
    204  O        -40.6700  -28.4420   79.9050 O.2   410  MET410     -0.2867
    205  CB       -42.2920  -29.8620   77.5460 C.3   410  MET410      0.0387
    206  CG       -42.9270  -28.7310   76.7600 C.3   410  MET410      0.0595
    207  SD       -44.6500  -29.0760   76.3600 S.3   410  MET410     -0.1393
    208  CE       -44.4810  -30.6120   75.4530 C.3   410  MET410      0.0692
@<TRIPOS>BOND
     1   146   145    2
     2   147   145   am
     3   192   189    1
     4   123   122    2
     5   132   133    1
     6   145   144    1
     7   196   195    2
     8   124   125    1
     9   124   121    1
    10   195   194    1
    11   191   190    2
    12   126   125   ar
    13   126   128   ar
    14   125   127   ar
    15   112   111    2
    16   133   134    1
    17   133   136    1
    18   190   189    1
    19   190   193   am
    20   122   121    1
    21   128   130   ar
    22   189   188    1
    23   127   129   ar
    24   188   181   am
    25   144   141    1
    26   120   121    1
    27   134   135    2
    28   134   140   am
    29   193   194    1
    30   138   136    1
    31   130   129   ar
    32   130   131    1
    33   194   197    1
    34   140   141    1
    35    83    81   ar
    36   179   180    1
    37    82    81   ar
    38   181   180    1
    39   181   182    2
    40   111   110    1
    41   136   137    1
    42   141   142    1
    43   180   183    1
    44   109   110    1
    45   186   185    2
    46    75    76    1
    47    81    80    1
    48   113   110    1
    49   113   114    1
    50   197   198    1
    51   137   139    1
    52   116   114   ar
    53   116   118   ar
    54   198   199    1
    55   185   184    1
    56   185   187   am
    57   142   148   am
    58   142   143    2
    59   114   115   ar
    60    76    79    1
    61    76    77    1
    62   183   184    1
    63    80    79    1
    64   118   119   ar
    65   148   149    1
    66   200   199    1
    67    77    78    2
    68    60    58    1
    69    88    85    1
    70    88    89    1
    71   115   117   ar
    72   151   150    2
    73   119   117   ar
    74    85    84    1
    75    85    86    1
    76    56    55    2
    77   149   150    1
    78   149   152    1
    79    93    92    2
    80   150   156   am
    81   152   153    1
    82    98   100   ar
    83    98    96   ar
    84    59    58    1
    85    58    57    1
    86   100    99   ar
    87   107   106    2
    88    90    86   am
    89    90    91    1
    90   164   162   ar
    91   164   165   ar
    92   162   161   ar
    93    96    95   ar
    94    86    87    2
    95    57    54    1
    96    55    54    1
    97    92    91    1
    98    92   101   am
    99   156   157    1
   100    99    97   ar
   101    54    53    1
   102   102   103    1
   103   102   101    1
   104   102   105    1
   105   106   105    1
   106   106   108   am
   107   157   158    1
   108   157   160    1
   109   153   154    1
   110   103   104    2
   111    91    94    1
   112   165   167   ar
   113   165   163   ar
   114    95    97   ar
   115    95    94    1
   116   173   172    2
   117    43    44   ar
   118    43    41   ar
   119   154   155    1
   120   161   160    1
   121   161   163   ar
   122   167   169   ar
   123   158   159    2
   124   158   170   am
   125   172   171    1
   126    74    72    1
   127    44    42   ar
   128    73    72    1
   129   170   171    1
   130   163   166   ar
   131    72    69    1
   132    41    38   ar
   133   169   168   ar
   134   171   174    1
   135    51    50   ar
   136   166   168   ar
   137    42    40   ar
   138    71    70    2
   139    34    33    2
   140    69    70    1
   141    69    68    1
   142    38    40   ar
   143    38    36   ar
   144    48    47    2
   145   174   175    1
   146    50    49    1
   147    50    52   ar
   148    40    39   ar
   149    46    47    1
   150    46    49    1
   151    46    45    1
   152    64    63    2
   153    33    45   am
   154    33    32    1
   155    35    36    1
   156    35    32    1
   157    36    37   ar
   158   175   176    1
   159   177   176    2
   160    32    31    1
   161    66    65    1
   162    63    62    1
   163   176   178   am
   164    39    37   ar
   165   208   207    1
   166    65    62    1
   167    65    67    1
   168    62    61    1
   169    29    27    1
   170   207   206    1
   171    26    25    2
   172   206   205    1
   173    28    30    1
   174    28    27    1
   175    12    14   ar
   176    12    10   ar
   177   201   202    1
   178    14    13   ar
   179    27    24    1
   180    24    25    1
   181    24    23    1
   182   205   202    1
   183   202   203    1
   184    10     9   ar
   185    10     8   ar
   186    18    17    2
   187     9     7   ar
   188    13    11   ar
   189    21    19    1
   190    23    17   am
   191     1     2    1
   192    17    16    1
   193     8    11   ar
   194     8     6   ar
   195     7     6   ar
   196   203   204    2
   197     6     5    1
   198    19    16    1
   199    19    20    1
   200     2     5    1
   201     2     3    1
   202    16    15    1
   203     3     4    2
   204    20    22    1
