@<TRIPOS>MOLECULE
tmp/6mubB02.pdb
 82 79 0 0 0
SMALL
GASTEIGER

@<TRIPOS>ATOM
      1  N          9.3750  -15.0280  -54.8090 N.3    31  ALA31      -0.1231
      2  CA         9.7030  -14.5510  -56.1470 C.3    31  ALA31       0.1694
      3  C         10.3300  -13.1630  -56.1520 C.2    31  ALA31       0.2592
      4  O         10.8650  -12.7470  -57.1860 O.2    31  ALA31      -0.2718
      5  CB         8.4480  -14.5520  -57.0240 C.3    31  ALA31       0.0304
      6  N         10.2900  -12.4440  -55.0340 N.am   32  HIS32      -0.1962
      7  CA        10.6980  -11.0490  -54.9880 C.3    32  HIS32       0.1787
      8  C         12.0420  -10.9010  -54.2880 C.2    32  HIS32       0.2620
      9  O         12.3020  -11.5540  -53.2730 O.2    32  HIS32      -0.2715
     10  CB         9.6540  -10.2030  -54.2550 C.3    32  HIS32       0.0785
     11  CG         8.3180  -10.1750  -54.9270 C.ar   32  HIS32       0.0821
     12  ND1        7.9920   -9.2500  -55.8950 N.ar   32  HIS32      -0.2267
     13  CD2        7.2210  -10.9500  -54.7610 C.ar   32  HIS32       0.1154
     14  CE1        6.7540   -9.4620  -56.3030 C.ar   32  HIS32       0.1986
     15  NE2        6.2630  -10.4870  -55.6300 N.ar   32  HIS32      -0.2212
     16  N         12.8890  -10.0360  -54.8390 N.am   33  THR33      -0.1951
     17  CA        14.0690   -9.5610  -54.1320 C.3    33  THR33       0.1897
     18  C         13.6400   -8.5510  -53.0760 C.2    33  THR33       0.2313
     19  O         12.8830   -7.6200  -53.3730 O.2    33  THR33      -0.2863
     20  CB        15.0600   -8.9270  -55.1080 C.3    33  THR33       0.1794
     21  OG1       15.7680   -9.9590  -55.8060 O.3    33  THR33      -0.2208
     22  CG2       16.0530   -8.0350  -54.3780 C.3    33  THR33       0.0378
     23  N         18.5330  -11.3060  -52.7750 N.3    52  SER52      -0.1202
     24  CA        17.9170  -11.7990  -53.9970 C.3    52  SER52       0.2020
     25  C         17.0380  -13.0110  -53.7060 C.2    52  SER52       0.2619
     26  O         16.8950  -13.4580  -52.5650 O.2    52  SER52      -0.2717
     27  CB        18.9830  -12.1580  -55.0310 C.3    52  SER52       0.2103
     28  OG        19.8010  -13.2310  -54.5970 O.3    52  SER52      -0.2182
     29  N         16.4380  -13.5480  -54.7640 N.am   53  THR53      -0.1952
     30  CA        15.7040  -14.7970  -54.6510 C.3    53  THR53       0.1897
     31  C         16.6660  -15.9230  -54.2930 C.2    53  THR53       0.2313
     32  O         17.8290  -15.9230  -54.7080 O.2    53  THR53      -0.2863
     33  CB        14.9770  -15.1080  -55.9620 C.3    53  THR53       0.1794
     34  OG1       15.9330  -15.3370  -57.0070 O.3    53  THR53      -0.2208
     35  CG2       14.0750  -13.9440  -56.3600 C.3    53  THR53       0.0378
     36  N         10.9730   -5.5410  -54.1830 N.3    99  LYS99      -0.1245
     37  CA        11.3190   -5.2950  -55.5740 C.3    99  LYS99       0.1561
     38  C         10.3720   -6.1130  -56.4420 C.2    99  LYS99       0.2260
     39  O         10.3890   -7.3480  -56.3930 O.2    99  LYS99      -0.2867
     40  CB        12.7760   -5.6700  -55.8360 C.3    99  LYS99       0.0271
     41  CG        13.3610   -5.1280  -57.1200 C.3    99  LYS99       0.0035
     42  CD        14.8670   -5.3300  -57.1360 C.3    99  LYS99       0.0206
     43  CE        15.4960   -4.7960  -58.4100 C.3    99  LYS99       0.1093
     44  NZ        15.2370   -3.3430  -58.6060 N.3    99  LYS99      -0.1314
     45  N          6.9020   -9.5810  -63.3310 N.3   104  LEU104     -0.1231
     46  CA         8.2500   -9.6460  -62.7760 C.3   104  LEU104      0.1693
     47  C          9.2720   -9.6740  -63.9070 C.2   104  LEU104      0.2593
     48  O          9.3790  -10.6680  -64.6340 O.2   104  LEU104     -0.2718
     49  CB         8.3880  -10.8760  -61.8840 C.3   104  LEU104      0.0284
     50  CG         7.8440  -10.7280  -60.4630 C.3   104  LEU104      0.0019
     51  CD1        8.1910  -11.9520  -59.6350 C.3   104  LEU104      0.0001
     52  CD2        8.3620   -9.4570  -59.8050 C.3   104  LEU104      0.0001
     53  N         10.0140   -8.5800  -64.0670 N.am  105  SER105     -0.1938
     54  CA        11.1210   -8.5000  -65.0040 C.3   105  SER105      0.2055
     55  C         12.4310   -8.7250  -64.2490 C.2   105  SER105      0.2643
     56  O         12.4410   -9.1570  -63.0920 O.2   105  SER105     -0.2714
     57  CB        11.1110   -7.1580  -65.7350 C.3   105  SER105      0.2130
     58  OG        11.6980   -6.1390  -64.9490 O.3   105  SER105     -0.2179
     59  N         13.5530   -8.4330  -64.9050 N.am  106  ASP106     -0.1957
     60  CA        14.8650   -8.6070  -64.2950 C.3   106  ASP106      0.1840
     61  C         15.3270   -7.3940  -63.4950 C.2   106  ASP106      0.2622
     62  O         16.3710   -7.4710  -62.8390 O.2   106  ASP106     -0.2715
     63  CB        15.9130   -8.9350  -65.3670 C.3   106  ASP106      0.1450
     64  CG        15.6740  -10.2800  -66.0200 C.2   106  ASP106      0.3671
     65  OD1       15.0960  -11.1690  -65.3570 O.co2 106  ASP106     -0.2456
     66  OD2       16.0660  -10.4530  -67.1930 O.co2 106  ASP106     -0.2456
     67  N         14.5810   -6.2870  -63.5270 N.am  107  ASN107     -0.1958
     68  CA        14.9810   -5.0830  -62.7920 C.3   107  ASN107      0.1819
     69  C         13.7480   -4.1780  -62.6740 C.2   107  ASN107      0.2621
     70  O         13.4660   -3.3840  -63.5710 O.2   107  ASN107     -0.2715
     71  CB        16.1300   -4.3670  -63.4750 C.3   107  ASN107      0.1195
     72  CG        16.6410   -3.1860  -62.6720 C.2   107  ASN107      0.2630
     73  OD1       16.5030   -3.1460  -61.4490 O.2   107  ASN107     -0.2716
     74  ND2       17.2350   -2.2150  -63.3570 N.am  107  ASN107     -0.0877
     75  N         13.0350   -4.3080  -61.5580 N.am  108  ASP108     -0.1971
     76  CA        11.8440   -3.5240  -61.2650 C.3   108  ASP108      0.1709
     77  C         12.0660   -2.6110  -60.0630 C.2   108  ASP108      0.2293
     78  O         12.9460   -2.8620  -59.2320 O.2   108  ASP108     -0.2864
     79  CB        10.6470   -4.4470  -60.9910 C.3   108  ASP108      0.1436
     80  CG        10.3240   -5.3420  -62.1670 C.2   108  ASP108      0.3671
     81  OD1       10.6340   -4.9510  -63.3110 O.co2 108  ASP108     -0.2456
     82  OD2        9.7610   -6.4350  -61.9470 O.co2 108  ASP108     -0.2456
@<TRIPOS>BOND
     1    66    64   ar
     2    64    63    1
     3    64    65   ar
     4    57    54    1
     5    57    58    1
     6    63    60    1
     7    54    55    1
     8    54    53    1
     9    59    60    1
    10    59    55   am
    11    48    47    2
    12    60    61    1
    13    55    56    2
    14    53    47   am
    15    47    46    1
    16    70    69    2
    17    67    61   am
    18    67    68    1
    19    61    62    2
    20    71    68    1
    21    71    72    1
    22    74    72   am
    23    45    46    1
    24    81    80   ar
    25    68    69    1
    26    46    49    1
    27    69    75   am
    28    72    73    2
    29    80    82   ar
    30    80    79    1
    31    49    50    1
    32    75    76    1
    33    76    79    1
    34    76    77    1
    35    50    52    1
    36    50    51    1
    37    77    78    2
    38    44    43    1
    39    43    42    1
    40     4     3    2
    41    42    41    1
    42    41    40    1
    43     5     2    1
    44    34    33    1
    45    38    39    2
    46    38    37    1
    47    35    33    1
    48    14    12   ar
    49    14    15   ar
    50     3     2    1
    51     3     6   am
    52     2     1    1
    53    33    30    1
    54    12    11   ar
    55    40    37    1
    56    21    20    1
    57    15    13   ar
    58    37    36    1
    59    20    22    1
    60    20    17    1
    61     6     7    1
    62    27    28    1
    63    27    24    1
    64     7     8    1
    65     7    10    1
    66    11    13   ar
    67    11    10    1
    68    16     8   am
    69    16    17    1
    70    29    30    1
    71    29    25   am
    72    32    31    2
    73    30    31    1
    74     8     9    2
    75    17    18    1
    76    24    25    1
    77    24    23    1
    78    25    26    2
    79    19    18    2
