@<TRIPOS>MOLECULE
tmp/6mugD05.pdb
 208 204 0 0 0
SMALL
GASTEIGER

@<TRIPOS>ATOM
      1  N         73.3390  174.9360   -2.0890 N.3    33  TRP33      -0.1241
      2  CA        72.5500  174.9190   -0.8630 C.3    33  TRP33       0.1605
      3  C         73.1780  175.7430    0.2520 C.2    33  TRP33       0.2264
      4  O         73.1670  175.3170    1.4090 O.2    33  TRP33      -0.2867
      5  CB        72.3450  173.4760   -0.4160 C.3    33  TRP33       0.0550
      6  CG        71.8790  172.5620   -1.4960 C.ar   33  TRP33       0.0003
      7  CD1       70.7240  172.6570   -2.2210 C.ar   33  TRP33       0.0946
      8  CD2       72.5470  171.3880   -1.9560 C.ar   33  TRP33       0.0152
      9  NE1       70.6390  171.6120   -3.1080 N.ar   33  TRP33      -0.2442
     10  CE2       71.7480  170.8190   -2.9670 C.ar   33  TRP33       0.0810
     11  CE3       73.7460  170.7630   -1.6140 C.ar   33  TRP33       0.0012
     12  CZ2       72.1100  169.6550   -3.6360 C.ar   33  TRP33       0.0191
     13  CZ3       74.1000  169.6160   -2.2790 C.ar   33  TRP33       0.0001
     14  CH2       73.2890  169.0680   -3.2770 C.ar   33  TRP33       0.0015
     15  N         65.7780  173.9250    0.3460 N.3    72  ILE72      -0.1231
     16  CA        66.4950  173.4680   -0.8430 C.3    72  ILE72       0.1692
     17  C         65.9850  174.1910   -2.0850 C.2    72  ILE72       0.2591
     18  O         66.7680  174.7400   -2.8700 O.2    72  ILE72      -0.2718
     19  CB        66.3710  171.9410   -0.9900 C.3    72  ILE72       0.0266
     20  CG1       66.9190  171.2410    0.2540 C.3    72  ILE72       0.0019
     21  CG2       67.1000  171.4670   -2.2380 C.3    72  ILE72       0.0020
     22  CD1       68.3720  171.5510    0.5340 C.3    72  ILE72       0.0001
     23  N         64.6620  174.2040   -2.2780 N.am   73  ILE73      -0.1980
     24  CA        64.0680  174.8910   -3.4230 C.3    73  ILE73       0.1595
     25  C         64.3800  176.3800   -3.3780 C.2    73  ILE73       0.2287
     26  O         64.5180  177.0280   -4.4240 O.2    73  ILE73      -0.2864
     27  CB        62.5510  174.6210   -3.4630 C.3    73  ILE73       0.0276
     28  CG1       62.2930  173.1250   -3.6110 C.3    73  ILE73       0.0022
     29  CG2       61.8820  175.3750   -4.6010 C.3    73  ILE73       0.0022
     30  CD1       60.8340  172.7630   -3.5850 C.3    73  ILE73       0.0001
     31  N         68.1880  176.9900   -4.2270 N.3    76  TRP76      -0.1227
     32  CA        68.4960  176.8370   -5.6400 C.3    76  TRP76       0.1737
     33  C         68.1500  178.0910   -6.4260 C.2    76  TRP76       0.2595
     34  O         68.9340  178.5370   -7.2680 O.2    76  TRP76      -0.2718
     35  CB        67.7630  175.6260   -6.1990 C.3    76  TRP76       0.0564
     36  CG        68.6300  174.4250   -6.2170 C.ar   76  TRP76       0.0003
     37  CD1       69.1470  173.7650   -5.1390 C.ar   76  TRP76       0.0946
     38  CD2       69.1010  173.7370   -7.3750 C.ar   76  TRP76       0.0152
     39  NE1       69.9080  172.7030   -5.5600 N.ar   76  TRP76      -0.2442
     40  CE2       69.8950  172.6630   -6.9280 C.ar   76  TRP76       0.0810
     41  CE3       68.9240  173.9200   -8.7470 C.ar   76  TRP76       0.0012
     42  CZ2       70.5170  171.7810   -7.8050 C.ar   76  TRP76       0.0191
     43  CZ3       69.5320  173.0410   -9.6110 C.ar   76  TRP76       0.0001
     44  CH2       70.3200  171.9840   -9.1410 C.ar   76  TRP76       0.0015
     45  N         66.9790  178.6720   -6.1640 N.am   77  ASP77      -0.1974
     46  CA        66.6420  179.9390   -6.8010 C.3    77  ASP77       0.1709
     47  C         67.6710  181.0070   -6.4630 C.2    77  ASP77       0.2293
     48  O         68.0340  181.8230   -7.3170 O.2    77  ASP77      -0.2864
     49  CB        65.2440  180.3910   -6.3800 C.3    77  ASP77       0.1436
     50  CG        64.1530  179.5130   -6.9520 C.2    77  ASP77       0.3671
     51  OD1       64.4920  178.4830   -7.5710 O.co2  77  ASP77      -0.2456
     52  OD2       62.9620  179.8580   -6.7870 O.co2  77  ASP77      -0.2456
     53  N         70.8410  180.7360   -8.6160 N.3    80  LEU80      -0.1245
     54  CA        70.6660  180.9850  -10.0410 C.3    80  LEU80       0.1561
     55  C         70.2910  182.4290  -10.3510 C.2    80  LEU80       0.2260
     56  O         69.9720  182.7410  -11.5040 O.2    80  LEU80      -0.2867
     57  CB        69.6120  180.0380  -10.6180 C.3    80  LEU80       0.0270
     58  CG        69.8870  178.5460  -10.4270 C.3    80  LEU80       0.0019
     59  CD1       68.8220  177.7130  -11.1230 C.3    80  LEU80       0.0001
     60  CD2       71.2820  178.1790  -10.9170 C.3    80  LEU80       0.0001
     61  N         69.4300  165.1530   -3.5230 N.3   198  VAL198     -0.1245
     62  CA        68.1820  165.1770   -4.2830 C.3   198  VAL198      0.1561
     63  C         68.2180  163.9830   -5.2350 C.2   198  VAL198      0.2260
     64  O         68.8170  164.0520   -6.3090 O.2   198  VAL198     -0.2867
     65  CB        67.9920  166.4980   -5.0320 C.3   198  VAL198      0.0252
     66  CG1       66.6090  166.5530   -5.6650 C.3   198  VAL198      0.0019
     67  CG2       68.2140  167.6810   -4.0960 C.3   198  VAL198      0.0019
     68  N         66.1640  159.9600   -6.5260 N.3   200  THR200     -0.1218
     69  CA        64.9120  159.4390   -7.0670 C.3   200  THR200      0.1862
     70  C         65.0210  157.9260   -7.1750 C.2   200  THR200      0.2287
     71  O         65.9880  157.4190   -7.7490 O.2   200  THR200     -0.2866
     72  CB        64.5950  160.0570   -8.4280 C.3   200  THR200      0.1770
     73  OG1       64.2850  161.4510   -8.2620 O.3   200  THR200     -0.2211
     74  CG2       63.4080  159.3590   -9.0760 C.3   200  THR200      0.0375
     75  N         62.0960  161.7690  -15.1250 N.3   308  GLU308     -0.1245
     76  CA        62.7230  161.9050  -13.8150 C.3   308  GLU308      0.1567
     77  C         62.1460  160.9030  -12.8240 C.2   308  GLU308      0.2260
     78  O         62.8600  160.4060  -11.9460 O.2   308  GLU308     -0.2867
     79  CB        62.5510  163.3370  -13.3150 C.3   308  GLU308      0.0388
     80  CG        62.7760  164.3880  -14.4150 C.3   308  GLU308      0.1160
     81  CD        62.5810  165.8190  -13.9460 C.2   308  GLU308      0.3649
     82  OE1       61.9880  166.0140  -12.8650 O.co2 308  GLU308     -0.2457
     83  OE2       63.0190  166.7470  -14.6640 O.co2 308  GLU308     -0.2457
     84  N         67.1680  158.7680  -11.1040 N.3   313  SER313     -0.1202
     85  CA        67.8020  160.0110  -11.5010 C.3   313  SER313      0.2020
     86  C         68.5290  160.6080  -10.3040 C.2   313  SER313      0.2619
     87  O         68.0400  160.5450   -9.1730 O.2   313  SER313     -0.2717
     88  CB        66.7700  160.9900  -12.0600 C.3   313  SER313      0.2103
     89  OG        65.7000  161.1910  -11.1570 O.3   313  SER313     -0.2182
     90  N         69.7030  161.1640  -10.5570 N.am  314  PHE314     -0.1961
     91  CA        70.5610  161.7060   -9.5130 C.3   314  PHE314      0.1771
     92  C         71.6070  162.5850  -10.1940 C.2   314  PHE314      0.2619
     93  O         71.4840  162.9110  -11.3800 O.2   314  PHE314     -0.2715
     94  CB        71.1850  160.5880   -8.6770 C.3   314  PHE314      0.0574
     95  CG        72.1960  159.7640   -9.4270 C.ar  314  PHE314     -0.0200
     96  CD1       71.8070  158.9450  -10.4700 C.ar  314  PHE314     -0.0042
     97  CD2       73.5350  159.8040   -9.0740 C.ar  314  PHE314     -0.0042
     98  CE1       72.7300  158.1900  -11.1520 C.ar  314  PHE314     -0.0003
     99  CE2       74.4640  159.0470   -9.7550 C.ar  314  PHE314     -0.0003
    100  CZ        74.0590  158.2420  -10.7970 C.ar  314  PHE314     -0.0000
    101  N         72.6490  162.9550   -9.4510 N.am  315  ASN315     -0.1972
    102  CA        73.7120  163.8110   -9.9630 C.3   315  ASN315      0.1688
    103  C         75.0500  163.1280   -9.7360 C.2   315  ASN315      0.2292
    104  O         75.3590  162.7190   -8.6130 O.2   315  ASN315     -0.2864
    105  CB        73.7010  165.1850   -9.2890 C.3   315  ASN315      0.1181
    106  CG        74.7850  166.1040   -9.8180 C.2   315  ASN315      0.2629
    107  OD1       75.9210  166.0760   -9.3470 O.2   315  ASN315     -0.2716
    108  ND2       74.4380  166.9260  -10.8010 N.am  315  ASN315     -0.0877
    109  N         73.2740  165.2140  -14.5830 N.3   320  PHE320     -0.1241
    110  CA        72.1260  164.5070  -14.0310 C.3   320  PHE320      0.1605
    111  C         71.8580  163.2570  -14.8580 C.2   320  PHE320      0.2264
    112  O         71.4550  163.3440  -16.0230 O.2   320  PHE320     -0.2867
    113  CB        70.9120  165.4290  -13.9900 C.3   320  PHE320      0.0534
    114  CG        71.1240  166.6630  -13.1570 C.ar  320  PHE320     -0.0203
    115  CD1       70.9990  166.6150  -11.7800 C.ar  320  PHE320     -0.0042
    116  CD2       71.4670  167.8650  -13.7500 C.ar  320  PHE320     -0.0042
    117  CE1       71.1950  167.7470  -11.0110 C.ar  320  PHE320     -0.0003
    118  CE2       71.6630  169.0020  -12.9860 C.ar  320  PHE320     -0.0003
    119  CZ        71.5300  168.9430  -11.6170 C.ar  320  PHE320     -0.0000
    120  N         70.0010  159.4720  -15.6630 N.3   322  TYR322     -0.1241
    121  CA        68.6370  158.9400  -15.6750 C.3   322  TYR322      0.1605
    122  C         68.7490  157.4570  -16.0280 C.2   322  TYR322      0.2264
    123  O         68.5160  157.0300  -17.1620 O.2   322  TYR322     -0.2867
    124  CB        67.7320  159.6920  -16.6470 C.3   322  TYR322      0.0534
    125  CG        67.5500  161.1340  -16.2600 C.ar  322  TYR322     -0.0201
    126  CD1       68.4190  162.1100  -16.7190 C.ar  322  TYR322     -0.0009
    127  CD2       66.5230  161.5170  -15.4170 C.ar  322  TYR322     -0.0009
    128  CE1       68.2670  163.4260  -16.3550 C.ar  322  TYR322      0.0417
    129  CE2       66.3620  162.8330  -15.0490 C.ar  322  TYR322      0.0417
    130  CZ        67.2350  163.7830  -15.5230 C.ar  322  TYR322      0.1957
    131  OH        67.0730  165.0950  -15.1570 O.3   322  TYR322     -0.2866
    132  N         67.2280  170.8670  -16.6620 N.3   349  ILE349     -0.1231
    133  CA        66.4740  170.2420  -15.5800 C.3   349  ILE349      0.1692
    134  C         65.4540  171.2610  -15.0940 C.2   349  ILE349      0.2592
    135  O         65.7840  172.1690  -14.3220 O.2   349  ILE349     -0.2718
    136  CB        67.3750  169.7730  -14.4350 C.3   349  ILE349      0.0266
    137  CG1       68.5950  169.0410  -14.9900 C.3   349  ILE349      0.0019
    138  CG2       66.5940  168.8760  -13.4890 C.3   349  ILE349      0.0020
    139  CD1       68.2550  167.8640  -15.8640 C.3   349  ILE349      0.0001
    140  N         64.2070  171.1040  -15.5300 N.am  350  ASN350     -0.1960
    141  CA        63.1380  172.0020  -15.1250 C.3   350  ASN350      0.1819
    142  C         62.8950  171.8940  -13.6160 C.2   350  ASN350      0.2621
    143  O         63.4240  171.0150  -12.9290 O.2   350  ASN350     -0.2715
    144  CB        61.8630  171.6800  -15.9070 C.3   350  ASN350      0.1195
    145  CG        60.9010  172.8500  -15.9740 C.2   350  ASN350      0.2630
    146  OD1       61.3070  174.0110  -15.9170 O.2   350  ASN350     -0.2716
    147  ND2       59.6130  172.5480  -16.1010 N.am  350  ASN350     -0.0877
    148  N         62.0840  172.8120  -13.1000 N.am  351  MET351     -0.1963
    149  CA        61.7500  172.8450  -11.6850 C.3   351  MET351      0.1736
    150  C         60.3880  172.2060  -11.4410 C.2   351  MET351      0.2616
    151  O         59.6420  171.8840  -12.3690 O.2   351  MET351     -0.2715
    152  CB        61.7640  174.2800  -11.1560 C.3   351  MET351      0.0427
    153  CG        60.6410  175.1460  -11.6820 C.3   351  MET351      0.0599
    154  SD        59.9130  176.0820  -10.3330 S.3   351  MET351     -0.1393
    155  CE        59.6980  177.6880  -11.0790 C.3   351  MET351      0.0692
    156  N         60.0740  172.0150  -10.1620 N.am  352  TRP352     -0.1960
    157  CA        58.8870  171.2770   -9.7360 C.3   352  TRP352      0.1771
    158  C         58.0520  172.1960   -8.8480 C.2   352  TRP352      0.2619
    159  O         58.0310  172.0420   -7.6260 O.2   352  TRP352     -0.2715
    160  CB        59.2750  169.9690   -8.9880 C.3   352  TRP352      0.0590
    161  CG        60.4660  169.2210   -9.5440 C.ar  352  TRP352      0.0006
    162  CD1       60.9620  169.2710  -10.8180 C.ar  352  TRP352      0.0946
    163  CD2       61.3050  168.3090   -8.8280 C.ar  352  TRP352      0.0152
    164  NE1       62.0580  168.4520  -10.9340 N.ar  352  TRP352     -0.2442
    165  CE2       62.2880  167.8480   -9.7270 C.ar  352  TRP352      0.0810
    166  CE3       61.3200  167.8370   -7.5130 C.ar  352  TRP352      0.0012
    167  CZ2       63.2740  166.9360   -9.3520 C.ar  352  TRP352      0.0191
    168  CZ3       62.3000  166.9340   -7.1420 C.ar  352  TRP352      0.0001
    169  CH2       63.2630  166.4920   -8.0580 C.ar  352  TRP352      0.0015
    170  N         57.3660  173.1570   -9.4640 N.am  353  GLN353     -0.1977
    171  CA        56.4660  174.0270   -8.7140 C.3   353  GLN353      0.1601
    172  C         55.1710  174.2690   -9.4760 C.2   353  GLN353      0.2287
    173  O         54.0770  174.0960   -8.9250 O.2   353  GLN353     -0.2864
    174  CB        57.1360  175.3660   -8.3960 C.3   353  GLN353      0.0394
    175  CG        58.2390  175.2840   -7.3560 C.3   353  GLN353      0.0908
    176  CD        57.7330  174.8280   -6.0020 C.2   353  GLN353      0.2608
    177  OE1       58.4540  174.1790   -5.2470 O.2   353  GLN353     -0.2717
    178  NE2       56.4890  175.1730   -5.6840 N.am  353  GLN353     -0.0878
    179  N         60.5180  178.4020  -14.2560 N.3   357  LYS357     -0.1231
    180  CA        61.8410  178.5050  -14.8540 C.3   357  LYS357      0.1693
    181  C         62.5010  177.1320  -14.8790 C.2   357  LYS357      0.2592
    182  O         61.9890  176.1590  -14.3210 O.2   357  LYS357     -0.2718
    183  CB        62.7270  179.5030  -14.0930 C.3   357  LYS357      0.0285
    184  CG        62.3120  180.9600  -14.2270 C.3   357  LYS357      0.0035
    185  CD        63.2290  181.8760  -13.4300 C.3   357  LYS357      0.0206
    186  CE        62.8440  183.3370  -13.6130 C.3   357  LYS357      0.1093
    187  NZ        63.7420  184.2340  -12.8350 N.3   357  LYS357     -0.1314
    188  N         63.6630  177.0680  -15.5340 N.am  358  ALA358     -0.1966
    189  CA        64.4430  175.8420  -15.6550 C.3   358  ALA358      0.1728
    190  C         65.9180  176.1710  -15.4560 C.2   358  ALA358      0.2616
    191  O         66.2950  177.3300  -15.2620 O.2   358  ALA358     -0.2715
    192  CB        64.2230  175.1660  -17.0130 C.3   358  ALA358      0.0334
    193  N         66.7620  175.1390  -15.5160 N.am  359  MET359     -0.1977
    194  CA        68.2030  175.2910  -15.3630 C.3   359  MET359      0.1605
    195  C         68.9200  174.5480  -16.4820 C.2   359  MET359      0.2287
    196  O         68.3670  173.6430  -17.1100 O.2   359  MET359     -0.2864
    197  CB        68.6990  174.7680  -14.0040 C.3   359  MET359      0.0413
    198  CG        70.1230  175.2020  -13.6590 C.3   359  MET359      0.0598
    199  SD        70.8710  174.3550  -12.2550 S.3   359  MET359     -0.1393
    200  CE        70.8530  172.6510  -12.8090 C.3   359  MET359      0.0692
    201  N         60.3760  165.2790   -3.6300 N.3   395  MET395     -0.1245
    202  CA        61.6420  165.6300   -3.0030 C.3   395  MET395      0.1570
    203  C         61.5830  165.5200   -1.4860 C.2   395  MET395      0.2261
    204  O         62.6030  165.2250   -0.8550 O.2   395  MET395     -0.2867
    205  CB        62.0560  167.0430   -3.4110 C.3   395  MET395      0.0387
    206  CG        63.4730  167.1370   -3.9540 C.3   395  MET395      0.0595
    207  SD        64.0090  168.8270   -4.2940 S.3   395  MET395     -0.1393
    208  CE        62.4630  169.6060   -4.7550 C.3   395  MET395      0.0692
@<TRIPOS>BOND
     1   123   122    2
     2   196   195    2
     3   192   189    1
     4   126   128   ar
     5   126   125   ar
     6   132   133    1
     7   124   125    1
     8   124   121    1
     9   195   194    1
    10   128   130   ar
    11   125   127   ar
    12   147   145   am
    13   122   121    1
    14   112   111    2
    15   145   146    2
    16   145   144    1
    17   144   141    1
    18   139   137    1
    19   121   120    1
    20   189   188    1
    21   189   190    1
    22   133   134    1
    23   133   136    1
    24   188   181   am
    25   140   141    1
    26   140   134   am
    27   130   131    1
    28   130   129   ar
    29   193   190   am
    30   193   194    1
    31   190   191    2
    32   127   129   ar
    33   194   197    1
    34   141   142    1
    35    75    76    1
    36   134   135    2
    37   137   136    1
    38   181   180    1
    39   181   182    2
    40   111   110    1
    41   180   179    1
    42   180   183    1
    43    83    81   ar
    44   109   110    1
    45   136   138    1
    46    80    81    1
    47    80    79    1
    48   184   183    1
    49   184   185    1
    50   110   113    1
    51   197   198    1
    52   113   114    1
    53    81    82   ar
    54    76    79    1
    55    76    77    1
    56   116   114   ar
    57   116   118   ar
    58   198   199    1
    59   142   148   am
    60   142   143    2
    61   186   185    1
    62   186   187    1
    63   114   115   ar
    64   148   149    1
    65   118   119   ar
    66    77    78    2
    67   200   199    1
    68   151   150    2
    69    88    85    1
    70    88    89    1
    71   115   117   ar
    72   149   150    1
    73   149   152    1
    74   153   152    1
    75   153   154    1
    76   119   117   ar
    77    56    55    2
    78    85    84    1
    79    85    86    1
    80   150   156   am
    81    93    92    2
    82    98   100   ar
    83    98    96   ar
    84    59    58    1
    85   155   154    1
    86   164   162   ar
    87   164   165   ar
    88    60    58    1
    89   162   161   ar
    90   108   106   am
    91   100    99   ar
    92    57    58    1
    93    57    54    1
    94    90    86   am
    95    90    91    1
    96    96    95   ar
    97    55    54    1
    98    86    87    2
    99    92    91    1
   100    92   101   am
   101   156   157    1
   102    54    53    1
   103   102   103    1
   104   102   101    1
   105   102   105    1
   106   106   107    2
   107   106   105    1
   108    99    97   ar
   109   103   104    2
   110   157   160    1
   111   157   158    1
   112   165   167   ar
   113   165   163   ar
   114    43    44   ar
   115    43    41   ar
   116   161   160    1
   117   161   163   ar
   118    91    94    1
   119   172   173    2
   120   172   171    1
   121   170   158   am
   122   170   171    1
   123    95    97   ar
   124    95    94    1
   125   167   169   ar
   126    44    42   ar
   127    74    72    1
   128   158   159    2
   129   163   166   ar
   130    41    38   ar
   131   171   174    1
   132    72    73    1
   133    72    69    1
   134   174   175    1
   135   169   168   ar
   136    42    40   ar
   137    71    70    2
   138    51    50   ar
   139   166   168   ar
   140    38    40   ar
   141    38    36   ar
   142   175   176    1
   143    48    47    2
   144    34    33    2
   145    70    69    1
   146    69    68    1
   147    50    52   ar
   148    50    49    1
   149    40    39   ar
   150    46    47    1
   151    46    49    1
   152    46    45    1
   153    33    45   am
   154    33    32    1
   155    64    63    2
   156    36    35    1
   157    36    37   ar
   158    35    32    1
   159   176   178   am
   160   176   177    2
   161    66    65    1
   162    32    31    1
   163    39    37   ar
   164    63    62    1
   165    65    62    1
   166    65    67    1
   167   208   207    1
   168    29    27    1
   169    26    25    2
   170   207   206    1
   171    62    61    1
   172   206   205    1
   173    12    14   ar
   174    12    10   ar
   175   201   202    1
   176    28    30    1
   177    28    27    1
   178    27    24    1
   179    24    25    1
   180    24    23    1
   181   205   202    1
   182    14    13   ar
   183     9    10   ar
   184     9     7   ar
   185   202   203    1
   186    10     8   ar
   187    18    17    2
   188    13    11   ar
   189    23    17   am
   190    21    19    1
   191     7     6   ar
   192     1     2    1
   193    17    16    1
   194     8    11   ar
   195     8     6   ar
   196     6     5    1
   197   203   204    2
   198    19    16    1
   199    19    20    1
   200     2     5    1
   201     2     3    1
   202    16    15    1
   203     3     4    2
   204    20    22    1
