@<TRIPOS>MOLECULE
tmp/6mujD00.pdb
 106 100 0 0 0
SMALL
GASTEIGER

@<TRIPOS>ATOM
      1  N         16.2680  -77.0630  -28.9040 N.3    76  ALA76      -0.1245
      2  CA        15.1170  -77.8570  -28.4950 C.3    76  ALA76       0.1562
      3  C         15.3240  -79.3380  -28.8290 C.2    76  ALA76       0.2260
      4  O         15.6010  -79.6870  -29.9870 O.2    76  ALA76      -0.2867
      5  CB        13.8600  -77.3070  -29.1750 C.3    76  ALA76       0.0290
      6  N          9.7250  -76.0780  -23.5040 N.3    93  ALA93      -0.1231
      7  CA         9.1970  -74.9220  -24.2160 C.3    93  ALA93       0.1694
      8  C          7.6810  -75.0090  -24.1510 C.2    93  ALA93       0.2591
      9  O          7.0950  -75.9790  -24.6450 O.2    93  ALA93      -0.2718
     10  CB         9.6760  -74.8870  -25.6700 C.3    93  ALA93       0.0304
     11  N          7.0420  -74.0420  -23.4950 N.am   94  ALA94      -0.1980
     12  CA         5.5910  -73.9860  -23.5840 C.3    94  ALA94       0.1597
     13  C          5.1890  -73.7740  -25.0460 C.2    94  ALA94       0.2287
     14  O          6.0070  -73.4080  -25.9120 O.2    94  ALA94      -0.2864
     15  CB         5.0170  -72.8900  -22.6810 C.3    94  ALA94       0.0319
     16  N          4.6720  -76.3470  -26.9150 N.3    96  ALA96      -0.1245
     17  CA         4.8410  -77.7810  -27.1540 C.3    96  ALA96       0.1562
     18  C          5.7190  -78.3760  -26.0570 C.2    96  ALA96       0.2260
     19  O          6.9370  -78.5450  -26.2360 O.2    96  ALA96      -0.2867
     20  CB         5.4170  -78.0350  -28.5480 C.3    96  ALA96       0.0290
     21  N          8.9650  -80.6380  -26.2090 N.3    99  TRP99      -0.1241
     22  CA        10.2640  -80.1300  -26.6230 C.3    99  TRP99       0.1605
     23  C         10.9770  -79.5620  -25.4070 C.2    99  TRP99       0.2264
     24  O         10.5220  -78.5740  -24.8180 O.2    99  TRP99      -0.2867
     25  CB        10.1260  -79.0540  -27.6940 C.3    99  TRP99       0.0550
     26  CG         9.8060  -79.5650  -29.0660 C.ar   99  TRP99       0.0003
     27  CD1        8.6200  -79.4320  -29.7330 C.ar   99  TRP99       0.0946
     28  CD2       10.6840  -80.2700  -29.9430 C.ar   99  TRP99       0.0152
     29  NE1        8.7060  -80.0130  -30.9710 N.ar   99  TRP99      -0.2442
     30  CE2        9.9630  -80.5350  -31.1290 C.ar   99  TRP99       0.0810
     31  CE3       12.0070  -80.7090  -29.8420 C.ar   99  TRP99       0.0012
     32  CZ2       10.5250  -81.2130  -32.2140 C.ar   99  TRP99       0.0191
     33  CZ3       12.5620  -81.3930  -30.9050 C.ar   99  TRP99       0.0001
     34  CH2       11.8190  -81.6380  -32.0850 C.ar   99  TRP99       0.0015
     35  N         14.1670  -77.6500  -23.9160 N.3   101  ASN101     -0.1240
     36  CA        15.3030  -76.7800  -24.2260 C.3   101  ASN101      0.1653
     37  C         16.5160  -77.2450  -23.4320 C.2   101  ASN101      0.2266
     38  O         16.5600  -77.0620  -22.2140 O.2   101  ASN101     -0.2867
     39  CB        14.9760  -75.3290  -23.8990 C.3   101  ASN101      0.1155
     40  CG        14.0500  -74.7140  -24.9130 C.2   101  ASN101      0.2627
     41  OD1       12.9270  -74.3350  -24.5820 O.2   101  ASN101     -0.2716
     42  ND2       14.5020  -74.6290  -26.1740 N.am  101  ASN101     -0.0877
     43  N         12.5790  -81.9170  -41.0810 N.3   218  TRP218     -0.1241
     44  CA        12.1760  -80.7000  -41.7700 C.3   218  TRP218      0.1605
     45  C         13.3420  -80.1370  -42.5600 C.2   218  TRP218      0.2264
     46  O         14.5090  -80.2800  -42.1770 O.2   218  TRP218     -0.2867
     47  CB        11.7300  -79.6430  -40.7630 C.3   218  TRP218      0.0550
     48  CG        10.4430  -79.9120  -40.0800 C.ar  218  TRP218      0.0003
     49  CD1       10.2690  -80.3740  -38.7930 C.ar  218  TRP218      0.0946
     50  CD2        9.1290  -79.7190  -40.6170 C.ar  218  TRP218      0.0152
     51  NE1        8.9250  -80.4770  -38.5060 N.ar  218  TRP218     -0.2442
     52  CE2        8.2040  -80.0800  -39.6030 C.ar  218  TRP218      0.0810
     53  CE3        8.6410  -79.2820  -41.8550 C.ar  218  TRP218      0.0012
     54  CZ2        6.8230  -80.0210  -39.7940 C.ar  218  TRP218      0.0191
     55  CZ3        7.2700  -79.2130  -42.0350 C.ar  218  TRP218      0.0001
     56  CH2        6.3770  -79.5810  -41.0100 C.ar  218  TRP218      0.0015
     57  N          9.6330  -74.0410  -44.3450 N.3   249  LEU249     -0.1245
     58  CA        10.0930  -75.3930  -44.0650 C.3   249  LEU249      0.1561
     59  C          9.1530  -76.3450  -44.7730 C.2   249  LEU249      0.2260
     60  O          7.9600  -76.0660  -44.8870 O.2   249  LEU249     -0.2867
     61  CB        10.0620  -75.7540  -42.5550 C.3   249  LEU249      0.0270
     62  CG        10.6700  -74.8790  -41.4680 C.3   249  LEU249      0.0019
     63  CD1       10.2020  -75.3470  -40.1100 C.3   249  LEU249      0.0001
     64  CD2       12.1510  -75.0200  -41.5340 C.3   249  LEU249      0.0001
     65  N          9.4060  -71.0970  -39.9080 N.3   272  ASN272     -0.1240
     66  CA        10.0770  -70.8370  -38.6380 C.3   272  ASN272      0.1653
     67  C         10.9890  -69.6260  -38.7610 C.2   272  ASN272      0.2266
     68  O         11.4650  -69.2970  -39.8540 O.2   272  ASN272     -0.2867
     69  CB        10.8900  -72.0380  -38.1960 C.3   272  ASN272      0.1155
     70  CG        10.8670  -72.2250  -36.7150 C.2   272  ASN272      0.2627
     71  OD1       10.5230  -71.3020  -35.9530 O.2   272  ASN272     -0.2716
     72  ND2       11.2310  -73.4240  -36.2830 N.am  272  ASN272     -0.0877
     73  N         16.0620  -70.0570  -35.4290 N.3   276  SER276     -0.1202
     74  CA        15.6640  -71.1370  -34.5380 C.3   276  SER276      0.2020
     75  C         16.1910  -72.4910  -35.0210 C.2   276  SER276      0.2619
     76  O         16.5200  -72.6800  -36.1960 O.2   276  SER276     -0.2717
     77  CB        14.1470  -71.1790  -34.3980 C.3   276  SER276      0.2103
     78  OG        13.5510  -71.7280  -35.5430 O.3   276  SER276     -0.2182
     79  N         16.2510  -73.4440  -34.0890 N.am  277  SER277     -0.1937
     80  CA        16.8610  -74.7470  -34.3180 C.3   277  SER277      0.2055
     81  C         16.1730  -75.7950  -33.4630 C.2   277  SER277      0.2643
     82  O         15.5100  -75.4840  -32.4700 O.2   277  SER277     -0.2714
     83  CB        18.3510  -74.7430  -33.9860 C.3   277  SER277      0.2130
     84  OG        18.5700  -74.3250  -32.6470 O.3   277  SER277     -0.2179
     85  N         16.3720  -77.0510  -33.8380 N.am  278  SER278     -0.1949
     86  CA        15.6710  -78.1500  -33.2000 C.3   278  SER278      0.1924
     87  C         16.2320  -79.4500  -33.7420 C.2   278  SER278      0.2314
     88  O         16.8390  -79.4890  -34.8240 O.2   278  SER278     -0.2863
     89  CB        14.1670  -78.0890  -33.4510 C.3   278  SER278      0.2116
     90  OG        13.8520  -78.6870  -34.6960 O.3   278  SER278     -0.2180
     91  N         14.7520  -82.0130  -35.0230 N.3   280  ASN280     -0.1225
     92  CA        14.0420  -82.6400  -36.1400 C.3   280  ASN280      0.1785
     93  C         14.0440  -81.7380  -37.3790 C.2   280  ASN280      0.2597
     94  O         13.1260  -81.7890  -38.2060 O.2   280  ASN280     -0.2718
     95  CB        12.6060  -83.0150  -35.7380 C.3   280  ASN280      0.1169
     96  CG        11.6760  -81.7950  -35.5930 C.2   280  ASN280      0.2627
     97  OD1       12.1350  -80.6720  -35.3650 O.2   280  ASN280     -0.2716
     98  ND2       10.3570  -82.0200  -35.7440 N.am  280  ASN280     -0.0877
     99  N         15.0720  -80.9040  -37.5200 N.am  281  LEU281     -0.1980
    100  CA        15.0600  -79.8040  -38.4800 C.3   281  LEU281      0.1596
    101  C         16.4430  -79.7330  -39.1140 C.2   281  LEU281      0.2287
    102  O         17.4330  -79.4710  -38.4120 O.2   281  LEU281     -0.2864
    103  CB        14.6630  -78.4890  -37.7950 C.3   281  LEU281      0.0297
    104  CG        14.9820  -77.1310  -38.4150 C.3   281  LEU281      0.0022
    105  CD1       14.3310  -77.0750  -39.7750 C.3   281  LEU281      0.0001
    106  CD2       14.4310  -76.0050  -37.5610 C.3   281  LEU281      0.0001
@<TRIPOS>BOND
     1    60    59    2
     2    59    58    1
     3    57    58    1
     4    58    61    1
     5    45    46    2
     6    45    44    1
     7    61    62    1
     8    55    53   ar
     9    55    56   ar
    10    53    50   ar
    11    44    43    1
    12    44    47    1
    13    64    62    1
    14    62    63    1
    15    56    54   ar
    16    47    48    1
    17    50    48   ar
    18    50    52   ar
    19    48    49   ar
    20    65    66    1
    21    68    67    2
    22    54    52   ar
    23   105   104    1
    24    52    51   ar
    25   101   100    1
    26   101   102    2
    27    49    51   ar
    28    67    66    1
    29    66    69    1
    30   100   103    1
    31   100    99    1
    32   104   103    1
    33   104   106    1
    34    94    93    2
    35    69    70    1
    36    99    93   am
    37    93    92    1
    38    70    72   am
    39    70    71    2
    40    76    75    2
    41    92    95    1
    42    92    91    1
    43    98    96   am
    44    95    96    1
    45    96    97    2
    46    78    77    1
    47    73    74    1
    48    75    74    1
    49    75    79   am
    50    88    87    2
    51    90    89    1
    52    74    77    1
    53    80    79    1
    54    80    83    1
    55    80    81    1
    56    83    84    1
    57    85    81   am
    58    85    86    1
    59    87    86    1
    60    81    82    2
    61    89    86    1
    62    32    34   ar
    63    32    30   ar
    64    34    33   ar
    65    30    29   ar
    66    30    28   ar
    67    29    27   ar
    68    33    31   ar
    69     4     3    2
    70    28    31   ar
    71    28    26   ar
    72    27    26   ar
    73     5     2    1
    74    26    25    1
    75     1     2    1
    76     3     2    1
    77    20    17    1
    78    25    22    1
    79    17    16    1
    80    17    18    1
    81    22    21    1
    82    22    23    1
    83    19    18    2
    84    42    40   am
    85    14    13    2
    86    10     7    1
    87    23    24    2
    88    13    12    1
    89    40    41    2
    90    40    39    1
    91     9     8    2
    92    36    35    1
    93    36    39    1
    94    36    37    1
    95     7     8    1
    96     7     6    1
    97     8    11   am
    98    12    11    1
    99    12    15    1
   100    37    38    2
