@<TRIPOS>MOLECULE
tmp/6mv3A00.pdb
 204 191 0 0 0
SMALL
GASTEIGER

@<TRIPOS>ATOM
      1  N          0.5850    8.8640   -2.0330 N.3    27  PHE27      -0.1241
      2  CA         1.7720    8.0240   -2.0940 C.3    27  PHE27       0.1605
      3  C          2.6480    8.4110   -3.2790 C.2    27  PHE27       0.2264
      4  O          3.8650    8.5210   -3.1490 O.2    27  PHE27      -0.2867
      5  CB         1.3660    6.5550   -2.2260 C.3    27  PHE27       0.0534
      6  CG         1.7530    5.8020   -0.9790 C.ar   27  PHE27      -0.0203
      7  CD1        0.7750    5.4040   -0.0620 C.ar   27  PHE27      -0.0042
      8  CD2        3.0980    5.4950   -0.7470 C.ar   27  PHE27      -0.0042
      9  CE1        1.1440    4.7010    1.0890 C.ar   27  PHE27      -0.0003
     10  CE2        3.4690    4.7930    0.4040 C.ar   27  PHE27      -0.0003
     11  CZ         2.4910    4.3960    1.3230 C.ar   27  PHE27      -0.0000
     12  N          3.6120    4.2400   -7.2300 N.3    36  ILE36      -0.1245
     13  CA         4.3590    4.3560   -5.9820 C.3    36  ILE36       0.1561
     14  C          5.6480    3.5440   -6.0520 C.2    36  ILE36       0.2260
     15  O          5.6170    2.3220   -6.1630 O.2    36  ILE36      -0.2867
     16  CB         3.4970    3.8460   -4.8280 C.3    36  ILE36       0.0252
     17  CG1        2.1450    4.5580   -4.8630 C.3    36  ILE36       0.0019
     18  CG2        4.1910    4.1490   -3.5000 C.3    36  ILE36       0.0019
     19  CD1        1.2270    3.9800   -3.7820 C.3    36  ILE36       0.0001
     20  N          7.6340    5.6080   -1.7560 N.3    41  LEU41      -0.1245
     21  CA         7.3790    4.7180   -0.6290 C.3    41  LEU41       0.1561
     22  C          8.0250    5.2610    0.6350 C.2    41  LEU41       0.2260
     23  O          7.3990    5.3140    1.6940 O.2    41  LEU41      -0.2867
     24  CB         7.9450    3.3280   -0.9310 C.3    41  LEU41       0.0270
     25  CG         7.6890    2.4030    0.2610 C.3    41  LEU41       0.0019
     26  CD1        6.1850    2.2810    0.4990 C.3    41  LEU41       0.0001
     27  CD2        8.2670    1.0180   -0.0270 C.3    41  LEU41       0.0001
     28  N          6.1370    8.2750    2.1950 N.3    44  VAL44      -0.1231
     29  CA         4.9960    7.9020    3.0180 C.3    44  VAL44       0.1692
     30  C          5.4670    7.3260    4.3460 C.2    44  VAL44       0.2591
     31  O          4.9110    7.6310    5.3970 O.2    44  VAL44      -0.2718
     32  CB         4.1320    6.8800    2.2830 C.3    44  VAL44       0.0266
     33  CG1        3.0570    6.3470    3.2330 C.3    44  VAL44       0.0020
     34  CG2        3.4660    7.5560    1.0820 C.3    44  VAL44       0.0020
     35  N          6.4950    6.4890    4.2860 N.am   45  MET45      -0.1979
     36  CA         7.0320    5.8720    5.4910 C.3    45  MET45       0.1605
     37  C          7.5360    6.9350    6.4620 C.2    45  MET45       0.2287
     38  O          7.3670    6.8100    7.6760 O.2    45  MET45      -0.2864
     39  CB         8.1860    4.9270    5.1220 C.3    45  MET45       0.0413
     40  CG         7.6390    3.5970    4.6050 C.3    45  MET45       0.0598
     41  SD         7.7740    2.3530    5.9120 S.3    45  MET45      -0.1393
     42  CE         6.1070    1.6820    5.7600 C.3    45  MET45       0.0692
     43  N          4.8390    8.2850    8.4860 N.3    48  LEU48      -0.1245
     44  CA         4.3990    7.3610    9.5290 C.3    48  LEU48       0.1561
     45  C          5.4520    7.2550   10.6290 C.2    48  LEU48       0.2260
     46  O          5.2620    6.5470   11.6200 O.2    48  LEU48      -0.2867
     47  CB         4.1560    5.9690    8.9340 C.3    48  LEU48       0.0270
     48  CG         3.8430    6.0940    7.4420 C.3    48  LEU48       0.0019
     49  CD1        3.2490    4.7870    6.9250 C.3    48  LEU48       0.0001
     50  CD2        2.8480    7.2260    7.2100 C.3    48  LEU48       0.0001
     51  N          9.5220   -3.6540    0.0710 N.3    60  MET60      -0.1230
     52  CA         8.1560   -3.3880    0.5110 C.3    60  MET60       0.1702
     53  C          7.2200   -3.3690   -0.6870 C.2    60  MET60       0.2592
     54  O          6.1160   -3.9130   -0.6300 O.2    60  MET60      -0.2718
     55  CB         8.0920   -2.0500    1.2500 C.3    60  MET60       0.0401
     56  CG         8.8350   -2.1660    2.5840 C.3    60  MET60       0.0596
     57  SD         7.9810   -1.1800    3.8400 S.3    60  MET60      -0.1393
     58  CE         8.0040    0.3920    2.9500 C.3    60  MET60       0.0692
     59  N          7.6770   -2.7690   -1.7770 N.am   61  ILE61      -0.1980
     60  CA         6.8820   -2.7160   -2.9980 C.3    61  ILE61       0.1595
     61  C          6.6980   -4.1160   -3.5730 C.2    61  ILE61       0.2287
     62  O          5.6370   -4.4500   -4.0990 O.2    61  ILE61      -0.2864
     63  CB         7.5500   -1.8010   -4.0270 C.3    61  ILE61       0.0276
     64  CG1        7.0630   -0.3640   -3.8060 C.3    61  ILE61       0.0022
     65  CG2        7.1910   -2.2580   -5.4410 C.3    61  ILE61       0.0022
     66  CD1        8.1590    0.6150   -4.2090 C.3    61  ILE61       0.0001
     67  N          6.3070   -6.7430   -2.0510 N.3    63  GLU63      -0.1231
     68  CA         5.2590   -7.4350   -1.3070 C.3    63  GLU63       0.1699
     69  C          3.9270   -7.3210   -2.0440 C.2    63  GLU63       0.2592
     70  O          3.1570   -8.2820   -2.1080 O.2    63  GLU63      -0.2718
     71  CB         5.1140   -6.8130    0.0870 C.3    63  GLU63       0.0402
     72  CG         6.3400   -7.1630    0.9290 C.3    63  GLU63       0.1161
     73  CD         6.2460   -6.4980    2.3010 C.2    63  GLU63       0.3649
     74  OE1        5.3310   -5.7150    2.4960 O.co2  63  GLU63      -0.2457
     75  OE2        7.0940   -6.7790    3.1310 O.co2  63  GLU63      -0.2457
     76  N          3.6700   -6.1490   -2.6100 N.am   64  VAL64      -0.1980
     77  CA         2.4340   -5.9220   -3.3550 C.3    64  VAL64       0.1595
     78  C          2.7170   -5.9600   -4.8510 C.2    64  VAL64       0.2287
     79  O          1.8250   -5.7370   -5.6720 O.2    64  VAL64      -0.2864
     80  CB         1.8140   -4.5660   -2.9840 C.3    64  VAL64       0.0276
     81  CG1        0.4100   -4.7900   -2.4240 C.3    64  VAL64       0.0022
     82  CG2        2.6680   -3.8630   -1.9240 C.3    64  VAL64       0.0022
     83  N          4.4030    0.1730   -6.9360 N.3    72  VAL72      -0.1245
     84  CA         3.0140   -0.0320   -6.5440 C.3    72  VAL72       0.1561
     85  C          2.1120    1.0100   -7.2010 C.2    72  VAL72       0.2260
     86  O          2.0500    2.1610   -6.7690 O.2    72  VAL72      -0.2867
     87  CB         2.8840    0.0580   -5.0180 C.3    72  VAL72       0.0252
     88  CG1        1.4060    0.0820   -4.6270 C.3    72  VAL72       0.0019
     89  CG2        3.5480   -1.1600   -4.3750 C.3    72  VAL72       0.0019
     90  N         -1.3850   -0.6450   -5.0570 N.3    77  PHE77      -0.1241
     91  CA        -1.5690   -0.0610   -3.7480 C.3    77  PHE77       0.1605
     92  C         -2.8670   -0.5860   -3.1200 C.2    77  PHE77       0.2264
     93  O         -2.9500   -0.7910   -1.9040 O.2    77  PHE77      -0.2867
     94  CB        -1.6050    1.4630   -3.8900 C.3    77  PHE77       0.0534
     95  CG        -3.0290    1.9610   -3.8500 C.ar   77  PHE77      -0.0203
     96  CD1       -3.6920    2.0920   -2.6290 C.ar   77  PHE77      -0.0042
     97  CD2       -3.6870    2.2860   -5.0290 C.ar   77  PHE77      -0.0042
     98  CE1       -5.0150    2.5450   -2.6020 C.ar   77  PHE77      -0.0003
     99  CE2       -5.0030    2.7410   -4.9870 C.ar   77  PHE77      -0.0003
    100  CZ        -5.6630    2.8670   -3.7780 C.ar   77  PHE77      -0.0000
    101  N         -2.3360   -3.9640   -1.4940 N.3    80  MET80      -0.1245
    102  CA        -1.7080   -3.8620   -0.1880 C.3    80  MET80       0.1570
    103  C         -2.7630   -3.6640    0.8890 C.2    80  MET80       0.2261
    104  O         -2.7450   -4.3410    1.9170 O.2    80  MET80      -0.2867
    105  CB        -0.7340   -2.6800   -0.1750 C.3    80  MET80       0.0387
    106  CG        -0.2310   -2.4440    1.2500 C.3    80  MET80       0.0595
    107  SD         0.4070   -3.9910    1.9400 S.3    80  MET80      -0.1393
    108  CE         1.8770   -4.1160    0.9000 C.3    80  MET80       0.0692
    109  N         -4.6660   -6.8200    1.1520 N.3    83  ARG83      -0.1231
    110  CA        -3.8350   -7.8630    1.7410 C.3    83  ARG83       0.1694
    111  C         -3.8900   -7.7890    3.2640 C.2    83  ARG83       0.2592
    112  O         -4.0550   -8.8070    3.9350 O.2    83  ARG83      -0.2718
    113  CB        -2.3870   -7.6930    1.2780 C.3    83  ARG83       0.0321
    114  CG        -1.5580   -8.8930    1.7390 C.3    83  ARG83       0.0489
    115  CD        -0.3690   -9.0820    0.7950 C.3    83  ARG83       0.2205
    116  NE         0.8790   -9.0910    1.5490 N.pl3  83  ARG83      -0.0865
    117  CZ         2.0460   -9.2770    0.9440 C.cat  83  ARG83       0.5346
    118  NH1        2.0920   -9.4600   -0.3470 N.pl3  83  ARG83       0.1354
    119  NH2        3.1500   -9.2750    1.6410 N.pl3  83  ARG83       0.1354
    120  N         -3.7600   -6.5800    3.8030 N.am   84  SER84      -0.1952
    121  CA        -3.8060   -6.3990    5.2490 C.3    84  SER84       0.1924
    122  C         -5.1830   -6.7700    5.7920 C.2    84  SER84       0.2314
    123  O         -5.2990   -7.3430    6.8750 O.2    84  SER84      -0.2863
    124  CB        -3.4950   -4.9440    5.5990 C.3    84  SER84       0.2116
    125  OG        -4.4860   -4.1010    5.0250 O.3    84  SER84      -0.2180
    126  N         -8.0490  -11.0620    9.3030 N.3    89  SER89      -0.1202
    127  CA        -6.9320  -11.6370   10.0450 C.3    89  SER89       0.2020
    128  C         -5.8690  -10.5780   10.3240 C.2    89  SER89       0.2618
    129  O         -5.5180   -9.7900    9.4450 O.2    89  SER89      -0.2717
    130  CB        -6.3150  -12.7860    9.2510 C.3    89  SER89       0.2103
    131  OG        -5.1250  -13.2160    9.9000 O.3    89  SER89      -0.2182
    132  N         -5.3630  -10.5650   11.5520 N.am   90  LYS90      -0.1979
    133  CA        -4.3400   -9.6000   11.9360 C.3    90  LYS90       0.1596
    134  C         -3.0070  -10.2990   12.1820 C.2    90  LYS90       0.2287
    135  O         -2.0110  -10.0100   11.5200 O.2    90  LYS90      -0.2864
    136  CB        -4.7700   -8.8630   13.1920 C.3    90  LYS90       0.0298
    137  CG        -5.1190   -7.4170   12.8350 C.3    90  LYS90       0.0038
    138  CD        -6.5420   -7.3600   12.2810 C.3    90  LYS90       0.0206
    139  CE        -7.5310   -7.8120   13.3590 C.3    90  LYS90       0.1093
    140  NZ        -8.4470   -6.6870   13.6990 N.3    90  LYS90      -0.1314
    141  N         12.6790   -7.9900   10.4540 N.3    99  ARG99      -0.1245
    142  CA        12.2390   -6.6200   10.2200 C.3    99  ARG99       0.1563
    143  C         12.3390   -5.7960   11.4950 C.2    99  ARG99       0.2260
    144  O         12.8740   -4.6900   11.4840 O.2    99  ARG99      -0.2867
    145  CB        10.7960   -6.6110    9.7180 C.3    99  ARG99       0.0307
    146  CG        10.6890   -5.7010    8.4940 C.3    99  ARG99       0.0489
    147  CD         9.9820   -6.4480    7.3630 C.3    99  ARG99       0.2205
    148  NE        10.2760   -5.8190    6.0810 N.pl3  99  ARG99      -0.0865
    149  CZ         9.8380   -6.3410    4.9410 C.cat  99  ARG99       0.5346
    150  NH1        9.1290   -7.4370    4.9570 N.pl3  99  ARG99       0.1354
    151  NH2       10.1160   -5.7610    3.8070 N.pl3  99  ARG99       0.1354
    152  N         10.4030   -4.0980   12.6870 N.3   101  VAL101     -0.1231
    153  CA         9.4770   -2.9820   12.5610 C.3   101  VAL101      0.1692
    154  C          8.2000   -3.4210   11.8520 C.2   101  VAL101      0.2592
    155  O          8.2470   -3.9920   10.7630 O.2   101  VAL101     -0.2718
    156  CB        10.1380   -1.8490   11.7780 C.3   101  VAL101      0.0266
    157  CG1        9.1500   -0.6920   11.6190 C.3   101  VAL101      0.0020
    158  CG2       11.3740   -1.3610   12.5350 C.3   101  VAL101      0.0020
    159  N          7.0600   -3.1460   12.4750 N.am  102  ARG102     -0.1966
    160  CA         5.7730   -3.5130   11.8950 C.3   102  ARG102      0.1729
    161  C          4.8760   -2.2880   11.7360 C.2   102  ARG102      0.2616
    162  O          4.6320   -1.5560   12.6960 O.2   102  ARG102     -0.2715
    163  CB         5.0740   -4.5390   12.7870 C.3   102  ARG102      0.0348
    164  CG         5.3810   -5.9510   12.2890 C.3   102  ARG102      0.0492
    165  CD         4.3880   -6.3320   11.1940 C.3   102  ARG102      0.2205
    166  NE         4.9490   -6.0540    9.8780 N.pl3 102  ARG102     -0.0865
    167  CZ         4.2100   -6.1600    8.7790 C.cat 102  ARG102      0.5346
    168  NH1        2.9560   -6.5190    8.8650 N.pl3 102  ARG102      0.1354
    169  NH2        4.7370   -5.9080    7.6130 N.pl3 102  ARG102      0.1354
    170  N          4.3810   -2.0740   10.5200 N.am  103  ILE103     -0.1963
    171  CA         3.5030   -0.9430   10.2490 C.3   103  ILE103      0.1727
    172  C          2.1300   -1.4340    9.8100 C.2   103  ILE103      0.2617
    173  O          2.0090   -2.1510    8.8170 O.2   103  ILE103     -0.2715
    174  CB         4.1040   -0.0600    9.1580 C.3   103  ILE103      0.0290
    175  CG1        5.4930    0.4060    9.5990 C.3   103  ILE103      0.0022
    176  CG2        3.2010    1.1570    8.9300 C.3   103  ILE103      0.0023
    177  CD1        6.5300   -0.6730    9.2780 C.3   103  ILE103      0.0001
    178  N          1.0940   -1.0470   10.5500 N.am  104  SER104     -0.1936
    179  CA        -0.2600   -1.4660   10.2160 C.3   104  SER104      0.2055
    180  C         -0.7700   -0.6900    9.0090 C.2   104  SER104      0.2643
    181  O         -0.5830    0.5220    8.9140 O.2   104  SER104     -0.2714
    182  CB        -1.1830   -1.2230   11.4010 C.3   104  SER104      0.2130
    183  OG        -0.6790   -1.9160   12.5400 O.3   104  SER104     -0.2179
    184  N         -1.4210   -1.3930    8.0970 N.am  105  ALA105     -0.1963
    185  CA        -1.9560   -0.7570    6.9020 C.3   105  ALA105      0.1728
    186  C         -2.9940    0.2910    7.2860 C.2   105  ALA105      0.2616
    187  O         -2.9850    1.4030    6.7650 O.2   105  ALA105     -0.2715
    188  CB        -2.6000   -1.8090    5.9900 C.3   105  ALA105      0.0334
    189  N         -3.8710   -0.0620    8.2170 N.am  106  ASP106     -0.1971
    190  CA        -4.8970    0.8690    8.6670 C.3   106  ASP106      0.1709
    191  C         -4.2560    2.1320    9.2230 C.2   106  ASP106      0.2293
    192  O         -4.6750    3.2460    8.9050 O.2   106  ASP106     -0.2864
    193  CB        -5.7570    0.2090    9.7450 C.3   106  ASP106      0.1436
    194  CG        -4.9220   -0.7810   10.5480 C.2   106  ASP106      0.3671
    195  OD1       -4.8250   -1.9210   10.1250 O.co2 106  ASP106     -0.2456
    196  OD2       -4.3920   -0.3840   11.5710 O.co2 106  ASP106     -0.2456
    197  N         -1.2970    3.2800    8.5570 N.3   108  MET108     -0.1245
    198  CA        -0.6620    3.9810    7.4440 C.3   108  MET108      0.1570
    199  C         -1.6890    4.7580    6.6210 C.2   108  MET108      0.2261
    200  O         -1.4440    5.8950    6.2170 O.2   108  MET108     -0.2867
    201  CB         0.0640    2.9890    6.5440 C.3   108  MET108      0.0387
    202  CG         0.7150    3.7580    5.3970 C.3   108  MET108      0.0595
    203  SD        -0.3750    3.7390    3.9540 S.3   108  MET108     -0.1393
    204  CE         0.4230    2.3680    3.0890 C.3   108  MET108      0.0692
@<TRIPOS>BOND
     1    12    13    1
     2    85    86    2
     3    85    84    1
     4    83    84    1
     5    84    87    1
     6    15    14    2
     7    14    13    1
     8    13    16    1
     9    79    78    2
    10    65    63    1
    11    90    91    1
    12    97    99   ar
    13    97    95   ar
    14    87    88    1
    15    87    89    1
    16    99   100   ar
    17    17    16    1
    18    17    19    1
    19    78    77    1
    20    16    18    1
    21    66    64    1
    22    62    61    2
    23    63    64    1
    24    63    60    1
    25    94    95    1
    26    94    91    1
    27    95    96   ar
    28   100    98   ar
    29    91    92    1
    30    61    60    1
    31    77    80    1
    32    77    76    1
    33     3     4    2
    34     3     2    1
    35    92    93    2
    36    60    59    1
    37    80    81    1
    38    80    82    1
    39    96    98   ar
    40    76    69   am
    41     5     2    1
    42     5     6    1
    43    70    69    2
    44     2     1    1
    45    67    68    1
    46    69    68    1
    47    59    53   am
    48    20    21    1
    49   101   102    1
    50    68    71    1
    51     6     8   ar
    52     6     7   ar
    53    24    21    1
    54    24    25    1
    55     8    10   ar
    56    53    54    2
    57    53    52    1
    58    21    22    1
    59   118   117    1
    60   102   105    1
    61   102   103    1
    62   105   106    1
    63     7     9   ar
    64    27    25    1
    65    51    52    1
    66    71    72    1
    67    25    26    1
    68    10    11   ar
    69    52    55    1
    70    22    23    2
    71   115   116    1
    72   115   114    1
    73   103   104    2
    74   108   107    1
    75    72    73    1
    76   117   116    2
    77   117   119    1
    78    34    32    1
    79     9    11   ar
    80   109   110    1
    81   106   107    1
    82    55    56    1
    83   113   114    1
    84   113   110    1
    85   110   111    1
    86    28    29    1
    87    32    29    1
    88    32    33    1
    89    73    74   ar
    90    73    75   ar
    91    56    57    1
    92    58    57    1
    93    29    30    1
    94   204   203    1
    95   111   120   am
    96   111   112    2
    97   120   121    1
    98   151   149    1
    99   203   202    1
   100    35    30   am
   101    35    36    1
   102    30    31    2
   103    40    39    1
   104    40    41    1
   105   149   150    1
   106   149   148    2
   107   125   124    1
   108    39    36    1
   109   121   124    1
   110   121   122    1
   111   202   201    1
   112    36    37    1
   113    42    41    1
   114   122   123    2
   115   188   185    1
   116   148   147    1
   117   200   199    2
   118    37    38    2
   119   201   198    1
   120   199   198    1
   121   187   186    2
   122   185   186    1
   123   185   184    1
   124    49    48    1
   125    50    48    1
   126   186   189   am
   127   147   146    1
   128    48    47    1
   129   198   197    1
   130   169   167    1
   131   184   180   am
   132   189   190    1
   133    43    44    1
   134   146   145    1
   135   190   191    1
   136   190   193    1
   137   167   168    1
   138   167   166    2
   139   173   172    2
   140   192   191    2
   141   181   180    2
   142   176   174    1
   143    47    44    1
   144   180   179    1
   145   174   175    1
   146   174   171    1
   147   130   131    1
   148   130   127    1
   149   177   175    1
   150   126   127    1
   151   129   128    2
   152    44    45    1
   153   145   142    1
   154   193   194    1
   155   172   171    1
   156   172   178   am
   157   166   165    1
   158   127   128    1
   159   195   194   ar
   160   179   178    1
   161   179   182    1
   162   142   141    1
   163   142   143    1
   164   171   170    1
   165   128   132   am
   166   170   161   am
   167   194   196   ar
   168    45    46    2
   169   155   154    2
   170   165   164    1
   171   182   183    1
   172   144   143    2
   173   135   134    2
   174   132   133    1
   175   157   156    1
   176   161   160    1
   177   161   162    2
   178   156   158    1
   179   156   153    1
   180   154   159   am
   181   154   153    1
   182   160   159    1
   183   160   163    1
   184   133   134    1
   185   133   136    1
   186   138   137    1
   187   138   139    1
   188   164   163    1
   189   153   152    1
   190   137   136    1
   191   139   140    1
