@<TRIPOS>MOLECULE
tmp/6mvfC00.pdb
 128 125 0 0 0
SMALL
GASTEIGER

@<TRIPOS>ATOM
      1  N        101.9940   21.2460   24.5940 N.3   153  ASP153     -0.1239
      2  CA       102.9820   21.5870   23.5810 C.3   153  ASP153      0.1674
      3  C        103.3150   23.0730   23.6010 C.2   153  ASP153      0.2266
      4  O        102.4200   23.9180   23.5360 O.2   153  ASP153     -0.2867
      5  CB       102.4310   21.1830   22.2060 C.3   153  ASP153      0.1410
      6  CG       103.4590   21.2970   21.0800 C.2   153  ASP153      0.3668
      7  OD1      104.5880   21.7840   21.3100 O.co2 153  ASP153     -0.2456
      8  OD2      103.1390   20.8740   19.9510 O.co2 153  ASP153     -0.2456
      9  N        104.9330   24.7540   18.9320 N.3   156  TYR156     -0.1227
     10  CA       104.1780   24.7720   17.6890 C.3   156  TYR156      0.1736
     11  C        103.6800   26.1950   17.4260 C.2   156  TYR156      0.2595
     12  O        102.6520   26.6250   17.9530 O.2   156  TYR156     -0.2718
     13  CB       103.0510   23.7530   17.7450 C.3   156  TYR156      0.0548
     14  CG       102.4410   23.5510   16.4040 C.ar  156  TYR156     -0.0200
     15  CD1      103.0600   22.7580   15.4500 C.ar  156  TYR156     -0.0009
     16  CD2      101.2530   24.1810   16.0690 C.ar  156  TYR156     -0.0009
     17  CE1      102.5020   22.5960   14.2000 C.ar  156  TYR156      0.0417
     18  CE2      100.6830   24.0110   14.8340 C.ar  156  TYR156      0.0417
     19  CZ       101.3100   23.2280   13.9020 C.ar  156  TYR156      0.1957
     20  OH       100.7310   23.0880   12.6690 O.3   156  TYR156     -0.2866
     21  N        104.4440   26.9310   16.6300 N.am  157  TYR157     -0.1976
     22  CA       104.0380   28.2330   16.1290 C.3   157  TYR157      0.1639
     23  C        103.5690   29.1540   17.2420 C.2   157  TYR157      0.2290
     24  O        102.6450   29.9490   17.0650 O.2   157  TYR157     -0.2864
     25  CB       102.9670   28.0750   15.0640 C.3   157  TYR157      0.0560
     26  CG       103.5200   27.4990   13.7780 C.ar  157  TYR157     -0.0198
     27  CD1      103.4960   26.1210   13.5330 C.ar  157  TYR157     -0.0009
     28  CD2      104.0760   28.3330   12.8080 C.ar  157  TYR157     -0.0009
     29  CE1      103.9980   25.5990   12.3500 C.ar  157  TYR157      0.0417
     30  CE2      104.5880   27.8140   11.6240 C.ar  157  TYR157      0.0417
     31  CZ       104.5490   26.4550   11.4020 C.ar  157  TYR157      0.1957
     32  OH       105.0380   25.9620   10.2180 O.3   157  TYR157     -0.2866
     33  N        101.9030   28.6540   19.8790 N.3   159  GLY159     -0.1210
     34  CA       100.5250   28.4700   20.2530 C.3   159  GLY159      0.1940
     35  C        100.3140   28.0690   21.7050 C.2   159  GLY159      0.2454
     36  O        101.2530   27.8330   22.4770 O.2   159  GLY159     -0.2732
     37  N         99.0430   27.9950   22.1000 N.am  160  PRO160     -0.2717
     38  CA        98.7190   27.6720   23.4910 C.3   160  PRO160      0.1536
     39  C         98.6970   26.1780   23.7840 C.2   160  PRO160      0.2599
     40  O         98.6460   25.7970   24.9600 O.2   160  PRO160     -0.2715
     41  CB        97.3260   28.2940   23.6620 C.3   160  PRO160      0.0310
     42  CG        96.6970   28.1470   22.2960 C.3   160  PRO160      0.0237
     43  CD        97.8390   28.2960   21.2980 C.3   160  PRO160      0.0939
     44  N         98.7420   25.3280   22.7640 N.am  161  GLY161     -0.1941
     45  CA        98.7170   23.8940   22.9620 C.3   161  GLY161      0.2014
     46  C         97.3330   23.3140   23.0880 C.2   161  GLY161      0.2639
     47  O         97.2010   22.1350   23.4430 O.2   161  GLY161     -0.2714
     48  N         96.3000   24.1100   22.8140 N.am  162  ILE162     -0.1963
     49  CA        94.9150   23.6620   22.8520 C.3   162  ILE162      0.1727
     50  C         94.1450   24.4660   21.8230 C.2   162  ILE162      0.2616
     51  O         94.4030   25.6530   21.6300 O.2   162  ILE162     -0.2715
     52  CB        94.2960   23.8130   24.2640 C.3   162  ILE162      0.0290
     53  CG1       92.8520   23.3230   24.2840 C.3   162  ILE162      0.0022
     54  CG2       94.3190   25.2460   24.7250 C.3   162  ILE162      0.0023
     55  CD1       92.3540   22.9840   25.6770 C.3   162  ILE162      0.0001
     56  N         93.2130   23.8060   21.1500 N.am  163  MET163     -0.1977
     57  CA        92.2720   24.4640   20.2690 C.3   163  MET163      0.1605
     58  C         90.8530   24.0600   20.6520 C.2   163  MET163      0.2287
     59  O         90.5790   22.8860   20.9200 O.2   163  MET163     -0.2864
     60  CB        92.5660   24.1260   18.8210 C.3   163  MET163      0.0413
     61  CG        92.3980   22.6820   18.4720 C.3   163  MET163      0.0598
     62  SD        92.7670   22.4550   16.7230 S.3   163  MET163     -0.1393
     63  CE        91.5460   23.5460   15.9890 C.3   163  MET163      0.0692
     64  N         97.4380   19.2070   22.8050 N.3   181  PHE181     -0.1241
     65  CA        98.6360   18.6810   22.1780 C.3   181  PHE181      0.1605
     66  C         99.6860   18.5010   23.2500 C.2   181  PHE181      0.2264
     67  O        100.0760   19.4700   23.9080 O.2   181  PHE181     -0.2867
     68  CB        99.1170   19.6130   21.0640 C.3   181  PHE181      0.0534
     69  CG        98.0710   19.8590   20.0090 C.ar  181  PHE181     -0.0203
     70  CD1       97.9370   18.9990   18.9370 C.ar  181  PHE181     -0.0042
     71  CD2       97.2030   20.9330   20.1100 C.ar  181  PHE181     -0.0042
     72  CE1       96.9610   19.2060   17.9720 C.ar  181  PHE181     -0.0003
     73  CE2       96.2260   21.1500   19.1480 C.ar  181  PHE181     -0.0003
     74  CZ        96.1070   20.2880   18.0770 C.ar  181  PHE181     -0.0000
     75  N         99.9530   31.4620    9.5300 N.3   358  LYS358     -0.1245
     76  CA        99.8380   30.2860   10.3850 C.3   358  LYS358      0.1561
     77  C         99.9670   30.6530   11.8610 C.2   358  LYS358      0.2260
     78  O         99.1900   30.1750   12.6920 O.2   358  LYS358     -0.2867
     79  CB       100.8980   29.2680    9.9910 C.3   358  LYS358      0.0271
     80  CG       100.5910   27.8480   10.3600 C.3   358  LYS358      0.0035
     81  CD       101.6800   26.9300    9.8230 C.3   358  LYS358      0.0206
     82  CE       101.2980   25.4480    9.8560 C.3   358  LYS358      0.1093
     83  NZ       102.3830   24.6400    9.2140 N.3   358  LYS358     -0.1314
     84  N         96.8120   32.4040   13.0550 N.3   361  ILE361     -0.1231
     85  CA        95.6600   31.5430   13.2840 C.3   361  ILE361      0.1692
     86  C         95.8520   30.7140   14.5470 C.2   361  ILE361      0.2591
     87  O         95.0110   30.7470   15.4510 O.2   361  ILE361     -0.2718
     88  CB        95.3820   30.6800   12.0420 C.3   361  ILE361      0.0266
     89  CG1       94.8330   31.5920   10.9320 C.3   361  ILE361      0.0019
     90  CG2       94.4080   29.5670   12.3720 C.3   361  ILE361      0.0020
     91  CD1       94.3860   30.9030    9.6490 C.3   361  ILE361      0.0001
     92  N         96.9820   30.0080   14.6580 N.am  362  ILE362     -0.1980
     93  CA        97.2060   29.1190   15.7980 C.3   362  ILE362      0.1595
     94  C         97.3110   29.8890   17.1110 C.2   362  ILE362      0.2287
     95  O         96.8580   29.4110   18.1620 O.2   362  ILE362     -0.2864
     96  CB        98.4480   28.2520   15.5250 C.3   362  ILE362      0.0276
     97  CG1       98.0880   27.2250   14.4570 C.3   362  ILE362      0.0022
     98  CG2       98.9410   27.5460   16.7960 C.3   362  ILE362      0.0022
     99  CD1       99.1950   26.9320   13.5240 C.3   362  ILE362      0.0001
    100  N         93.3360   31.1930   17.5670 N.3   365  TYR365     -0.1241
    101  CA        92.1980   30.3470   17.2300 C.3   365  TYR365      0.1605
    102  C         91.0940   30.3720   18.2890 C.2   365  TYR365      0.2264
    103  O         89.9140   30.2870   17.9420 O.2   365  TYR365     -0.2867
    104  CB        92.6860   28.9110   17.0020 C.3   365  TYR365      0.0534
    105  CG        91.6080   28.0000   16.4720 C.ar  365  TYR365     -0.0201
    106  CD1       90.7880   27.2840   17.3390 C.ar  365  TYR365     -0.0009
    107  CD2       91.3900   27.8790   15.0960 C.ar  365  TYR365     -0.0009
    108  CE1       89.7820   26.4700   16.8470 C.ar  365  TYR365      0.0417
    109  CE2       90.3970   27.0650   14.5960 C.ar  365  TYR365      0.0417
    110  CZ        89.5890   26.3590   15.4680 C.ar  365  TYR365      0.1957
    111  OH        88.5860   25.5410   14.9660 O.3   365  TYR365     -0.2866
    112  N         92.2180   25.3530    5.7360 N.3   401  GLU401     -0.1231
    113  CA        92.7730   24.1260    6.2820 C.3   401  GLU401      0.1699
    114  C         92.9160   24.2260    7.8000 C.2   401  GLU401      0.2592
    115  O         92.4530   23.3510    8.5310 O.2   401  GLU401     -0.2718
    116  CB        94.1150   23.8210    5.6150 C.3   401  GLU401      0.0402
    117  CG        94.7420   22.5390    6.1340 C.3   401  GLU401      0.1161
    118  CD        96.2760   22.5490    6.1390 C.2   401  GLU401      0.3649
    119  OE1       96.8750   21.4720    5.9010 O.co2 401  GLU401     -0.2457
    120  OE2       96.8820   23.6200    6.3950 O.co2 401  GLU401     -0.2457
    121  N         93.5260   25.3060    8.2900 N.am  402  LEU402     -0.1980
    122  CA        93.6840   25.5000    9.7260 C.3   402  LEU402      0.1596
    123  C         92.3800   25.8480   10.4260 C.2   402  LEU402      0.2287
    124  O         92.2150   25.5220   11.6030 O.2   402  LEU402     -0.2864
    125  CB        94.6900   26.6050    9.9920 C.3   402  LEU402      0.0297
    126  CG        96.1380   26.2630    9.7050 C.3   402  LEU402      0.0022
    127  CD1       96.9360   27.5130    9.8100 C.3   402  LEU402      0.0001
    128  CD2       96.6390   25.2530   10.6840 C.3   402  LEU402      0.0001
@<TRIPOS>BOND
     1   116   117    1
     2   116   113    1
     3   112   113    1
     4   119   118   ar
     5   117   118    1
     6   118   120   ar
     7   113   114    1
     8   114   121   am
     9   114   115    2
    10   121   122    1
    11    83    82    1
    12    75    76    1
    13    91    89    1
    14   126   127    1
    15   126   125    1
    16   126   128    1
    17   122   125    1
    18   122   123    1
    19    81    82    1
    20    81    80    1
    21    79    80    1
    22    79    76    1
    23    32    31    1
    24    76    77    1
    25   123   124    2
    26    89    88    1
    27    31    30   ar
    28    31    29   ar
    29    30    28   ar
    30    77    78    2
    31    88    90    1
    32    88    85    1
    33    29    27   ar
    34    20    19    1
    35    28    26   ar
    36    84    85    1
    37    85    86    1
    38    99    97    1
    39    27    26   ar
    40    26    25    1
    41    19    17   ar
    42    19    18   ar
    43    17    15   ar
    44    97    96    1
    45    86    92   am
    46    86    87    2
    47   109   107   ar
    48   109   110   ar
    49    92    93    1
    50    18    16   ar
    51   111   110    1
    52    25    22    1
    53   107   105   ar
    54    15    14   ar
    55   110   108   ar
    56    96    93    1
    57    96    98    1
    58    93    94    1
    59    63    62    1
    60    16    14   ar
    61    22    21    1
    62    22    23    1
    63    14    13    1
    64   105   104    1
    65   105   106   ar
    66    21    11   am
    67    62    61    1
    68   108   106   ar
    69   104   101    1
    70    24    23    2
    71    94    95    2
    72   101   100    1
    73   101   102    1
    74    11    10    1
    75    11    12    2
    76    10    13    1
    77    10     9    1
    78   103   102    2
    79    72    74   ar
    80    72    70   ar
    81    74    73   ar
    82    61    60    1
    83    60    57    1
    84    70    69   ar
    85    73    71   ar
    86    33    34    1
    87     8     6   ar
    88    69    71   ar
    89    69    68    1
    90    34    35    1
    91    57    58    1
    92    57    56    1
    93    58    59    2
    94    68    65    1
    95     6     7   ar
    96     6     5    1
    97    56    50   am
    98    43    37    1
    99    43    42    1
   100    51    50    2
   101    35    37   am
   102    35    36    2
   103    50    49    1
   104    37    38    1
   105    65    64    1
   106    65    66    1
   107     5     2    1
   108    42    41    1
   109    44    45    1
   110    44    39   am
   111    48    49    1
   112    48    46   am
   113    49    52    1
   114    45    46    1
   115    46    47    2
   116    66    67    2
   117    38    41    1
   118    38    39    1
   119     4     3    2
   120     2     3    1
   121     2     1    1
   122    39    40    2
   123    52    53    1
   124    52    54    1
   125    53    55    1
