@<TRIPOS>MOLECULE
tmp/6mvgC00.pdb
 130 124 0 0 0
SMALL
GASTEIGER

@<TRIPOS>ATOM
      1  N         67.5460   47.6460   90.9390 N.3   155  ASP155     -0.1239
      2  CA        68.1700   46.8300   89.9060 C.3   155  ASP155      0.1674
      3  C         68.6780   47.6690   88.7440 C.2   155  ASP155      0.2266
      4  O         67.9180   48.4040   88.1180 O.2   155  ASP155     -0.2867
      5  CB        67.1760   45.7840   89.3940 C.3   155  ASP155      0.1410
      6  CG        67.8350   44.4350   89.1310 C.2   155  ASP155      0.3668
      7  OD1       67.3640   43.4170   89.6990 O.co2 155  ASP155     -0.2456
      8  OD2       68.8480   44.3990   88.3850 O.co2 155  ASP155     -0.2456
      9  N         68.7690   44.1650   85.0790 N.3   158  TYR158     -0.1227
     10  CA        67.7780   43.3720   84.3530 C.3   158  TYR158      0.1736
     11  C         67.4160   44.0450   83.0330 C.2   158  TYR158      0.2595
     12  O         66.4800   44.8440   82.9430 O.2   158  TYR158     -0.2718
     13  CB        66.5400   43.1110   85.2020 C.3   158  TYR158      0.0548
     14  CG        65.6610   42.0470   84.5710 C.ar  158  TYR158     -0.0200
     15  CD1       66.0600   40.7140   84.5430 C.ar  158  TYR158     -0.0009
     16  CD2       64.4650   42.3820   83.9520 C.ar  158  TYR158     -0.0009
     17  CE1       65.2740   39.7410   83.9420 C.ar  158  TYR158      0.0417
     18  CE2       63.6680   41.4140   83.3480 C.ar  158  TYR158      0.0417
     19  CZ        64.0780   40.0970   83.3510 C.ar  158  TYR158      0.1957
     20  OH        63.2900   39.1450   82.7490 O.3   158  TYR158     -0.2866
     21  N         68.1690   43.7020   81.9940 N.am  159  TYR159     -0.1976
     22  CA        67.8410   44.0480   80.6150 C.3   159  TYR159      0.1639
     23  C         67.5840   45.5460   80.4380 C.2   159  TYR159      0.2290
     24  O         66.6300   45.9570   79.7770 O.2   159  TYR159     -0.2864
     25  CB        66.6430   43.2240   80.1290 C.3   159  TYR159      0.0560
     26  CG        66.9530   41.7760   79.8320 C.ar  159  TYR159     -0.0198
     27  CD1       66.5920   40.7680   80.7220 C.ar  159  TYR159     -0.0009
     28  CD2       67.6030   41.4100   78.6570 C.ar  159  TYR159     -0.0009
     29  CE1       66.8630   39.4340   80.4480 C.ar  159  TYR159      0.0417
     30  CE2       67.8860   40.0800   78.3830 C.ar  159  TYR159      0.0417
     31  CZ        67.5140   39.0920   79.2800 C.ar  159  TYR159      0.1957
     32  OH        67.7990   37.7610   78.9990 O.3   159  TYR159     -0.2866
     33  N         66.7250   47.8580   82.7290 N.3   161  GLY161     -0.1225
     34  CA        65.6460   48.4370   83.4980 C.3   161  GLY161      0.1811
     35  C         66.1160   49.3590   84.6100 C.2   161  GLY161      0.2280
     36  O         67.3080   49.5710   84.8430 O.2   161  GLY161     -0.2866
     37  N         64.3470   49.0180   87.7800 N.3   163  GLY163     -0.1210
     38  CA        63.8310   48.4280   88.9960 C.3   163  GLY163      0.1956
     39  C         62.4580   48.9220   89.3800 C.2   163  GLY163      0.2612
     40  O         62.0930   48.8560   90.5590 O.2   163  GLY163     -0.2717
     41  N         61.6750   49.4110   88.4240 N.am  164  LEU164     -0.1965
     42  CA        60.4730   50.1730   88.7470 C.3   164  LEU164      0.1728
     43  C         59.3980   49.8620   87.7090 C.2   164  LEU164      0.2616
     44  O         59.3370   50.4920   86.6490 O.2   164  LEU164     -0.2715
     45  CB        60.8060   51.6540   88.8080 C.3   164  LEU164      0.0311
     46  CG        59.6640   52.5910   89.1420 C.3   164  LEU164      0.0022
     47  CD1       58.8500   52.0800   90.3130 C.3   164  LEU164      0.0001
     48  CD2       60.2880   53.9000   89.4680 C.3   164  LEU164      0.0001
     49  N         58.5530   48.8890   88.0380 N.am  165  LYS165     -0.1977
     50  CA        57.4190   48.4790   87.2220 C.3   165  LYS165      0.1596
     51  C         56.1630   49.1200   87.8080 C.2   165  LYS165      0.2287
     52  O         55.9550   49.0720   89.0240 O.2   165  LYS165     -0.2864
     53  CB        57.3330   46.9510   87.2190 C.3   165  LYS165      0.0298
     54  CG        56.3180   46.3130   86.2900 C.3   165  LYS165      0.0038
     55  CD        56.0600   44.8820   86.7610 C.3   165  LYS165      0.0206
     56  CE        54.8690   44.2060   86.0790 C.3   165  LYS165      0.1093
     57  NZ        54.7880   42.7690   86.4930 N.3   165  LYS165     -0.1314
     58  N         55.9610   47.8400   91.4560 N.3   180  GLU180     -0.1245
     59  CA        56.8500   46.7420   91.7930 C.3   180  GLU180      0.1567
     60  C         58.2850   47.2220   91.6780 C.2   180  GLU180      0.2260
     61  O         58.6550   47.8420   90.6760 O.2   180  GLU180     -0.2867
     62  CB        56.6110   45.5400   90.8830 C.3   180  GLU180      0.0388
     63  CG        57.2650   44.2460   91.3630 C.3   180  GLU180      0.1160
     64  CD        56.9480   43.0740   90.4500 C.2   180  GLU180      0.3649
     65  OE1       56.0260   43.2070   89.5980 O.co2 180  GLU180     -0.2457
     66  OE2       57.6220   42.0240   90.5820 O.co2 180  GLU180     -0.2457
     67  N         62.4650   46.0750   92.0650 N.3   182  PHE182     -0.1241
     68  CA        63.4360   44.9980   92.1060 C.3   182  PHE182      0.1605
     69  C         64.7530   45.5380   92.6410 C.2   182  PHE182      0.2264
     70  O         65.1260   46.6810   92.3470 O.2   182  PHE182     -0.2867
     71  CB        63.6300   44.3940   90.7210 C.3   182  PHE182      0.0534
     72  CG        62.3450   44.0040   90.0460 C.ar  182  PHE182     -0.0203
     73  CD1       61.8220   42.7190   90.2040 C.ar  182  PHE182     -0.0042
     74  CD2       61.6640   44.9130   89.2540 C.ar  182  PHE182     -0.0042
     75  CE1       60.6490   42.3480   89.5840 C.ar  182  PHE182     -0.0003
     76  CE2       60.4900   44.5510   88.6320 C.ar  182  PHE182     -0.0003
     77  CZ        59.9790   43.2610   88.8020 C.ar  182  PHE182     -0.0000
     78  N         62.6670   41.7350   75.2920 N.3   358  LYS358     -0.1245
     79  CA        62.6450   41.9830   76.7310 C.3   358  LYS358      0.1561
     80  C         63.1710   43.3770   77.0450 C.2   358  LYS358      0.2260
     81  O         62.6930   44.0340   77.9730 O.2   358  LYS358     -0.2867
     82  CB        63.4500   40.9250   77.4810 C.3   358  LYS358      0.0271
     83  CG        62.9340   39.4850   77.3400 C.3   358  LYS358      0.0035
     84  CD        63.2360   38.6670   78.5970 C.3   358  LYS358      0.0206
     85  CE        63.6570   37.2610   78.2510 C.3   358  LYS358      0.1093
     86  NZ        64.9950   36.9770   78.8270 N.3   358  LYS358     -0.1314
     87  N         60.4340   46.0220   76.3610 N.3   361  ILE361     -0.1231
     88  CA        59.3480   46.0400   77.3330 C.3   361  ILE361      0.1692
     89  C         59.8460   46.4690   78.7110 C.2   361  ILE361      0.2591
     90  O         59.2460   47.3380   79.3560 O.2   361  ILE361     -0.2718
     91  CB        58.6680   44.6670   77.3820 C.3   361  ILE361      0.0266
     92  CG1       58.0730   44.3360   76.0050 C.3   361  ILE361      0.0019
     93  CG2       57.6190   44.6710   78.4410 C.3   361  ILE361      0.0020
     94  CD1       57.3460   42.9940   75.8870 C.3   361  ILE361      0.0001
     95  N         60.9380   45.8720   79.1990 N.am  362  VAL362     -0.1980
     96  CA        61.4480   46.2640   80.5130 C.3   362  VAL362      0.1595
     97  C         61.6770   47.7720   80.5640 C.2   362  VAL362      0.2287
     98  O         61.2530   48.4470   81.5070 O.2   362  VAL362     -0.2864
     99  CB        62.7270   45.4850   80.8580 C.3   362  VAL362      0.0276
    100  CG1       63.2980   45.9740   82.1780 C.3   362  VAL362      0.0022
    101  CG2       62.4170   44.0190   80.9520 C.3   362  VAL362      0.0022
    102  N         57.9450   49.8270   79.6960 N.3   365  TYR365     -0.1241
    103  CA        56.6550   49.3920   80.2270 C.3   365  TYR365      0.1605
    104  C         55.9090   50.5420   80.9040 C.2   365  TYR365      0.2264
    105  O         54.6680   50.5400   80.9480 O.2   365  TYR365     -0.2867
    106  CB        56.8790   48.2070   81.1840 C.3   365  TYR365      0.0534
    107  CG        55.6540   47.6300   81.8670 C.ar  365  TYR365     -0.0201
    108  CD1       54.8620   46.6810   81.2470 C.ar  365  TYR365     -0.0009
    109  CD2       55.3270   48.0090   83.1600 C.ar  365  TYR365     -0.0009
    110  CE1       53.7580   46.1520   81.8860 C.ar  365  TYR365      0.0417
    111  CE2       54.2370   47.4840   83.8070 C.ar  365  TYR365      0.0417
    112  CZ        53.4520   46.5620   83.1690 C.ar  365  TYR365      0.1957
    113  OH        52.3580   46.0540   83.8290 O.3   365  TYR365     -0.2866
    114  N         53.1870   37.5150   78.4150 N.3   399  GLU399     -0.1231
    115  CA        53.5360   37.1650   79.7850 C.3   399  GLU399      0.1699
    116  C         54.1100   38.3560   80.5390 C.2   399  GLU399      0.2592
    117  O         53.8260   38.5250   81.7310 O.2   399  GLU399     -0.2718
    118  CB        54.5220   36.0060   79.8140 C.3   399  GLU399      0.0402
    119  CG        54.7200   35.4220   81.2180 C.3   399  GLU399      0.1161
    120  CD        56.1880   35.2850   81.6020 C.2   399  GLU399      0.3649
    121  OE1       56.6580   36.0270   82.5050 O.co2 399  GLU399     -0.2457
    122  OE2       56.8730   34.4380   80.9810 O.co2 399  GLU399     -0.2457
    123  N         54.9030   39.1980   79.8590 N.am  400  MET400     -0.1979
    124  CA        55.5880   40.3040   80.5320 C.3   400  MET400      0.1605
    125  C         54.6710   41.4960   80.7530 C.2   400  MET400      0.2287
    126  O         54.7220   42.1510   81.8050 O.2   400  MET400     -0.2864
    127  CB        56.8050   40.7650   79.7280 C.3   400  MET400      0.0413
    128  CG        57.9380   39.7580   79.6530 C.3   400  MET400      0.0598
    129  SD        59.5320   40.5370   79.2920 S.3   400  MET400     -0.1393
    130  CE        60.2100   40.6640   80.9550 C.3   400  MET400      0.0692
@<TRIPOS>BOND
     1    78    79    1
     2    94    92    1
     3    92    91    1
     4    87    88    1
     5    79    80    1
     6    79    82    1
     7    80    81    2
     8    88    91    1
     9    88    89    1
    10    83    82    1
    11    83    84    1
    12    91    93    1
    13    85    84    1
    14    85    86    1
    15    30    28   ar
    16    30    31   ar
    17   114   115    1
    18    28    26   ar
    19    89    95   am
    20    89    90    2
    21    32    31    1
    22    95    96    1
    23    31    29   ar
    24   129   128    1
    25   129   130    1
    26   128   127    1
    27   102   103    1
    28   127   124    1
    29    24    23    2
    30   115   118    1
    31   115   116    1
    32   118   119    1
    33    26    25    1
    34    26    27   ar
    35   123   124    1
    36   123   116   am
    37    25    22    1
    38   103   104    1
    39   103   106    1
    40    23    22    1
    41    29    27   ar
    42    96    97    1
    43    96    99    1
    44   124   125    1
    45   116   117    2
    46    97    98    2
    47    22    21    1
    48   125   126    2
    49    99   101    1
    50    99   100    1
    51   104   105    2
    52   122   120   ar
    53   106   107    1
    54   119   120    1
    55   108   107   ar
    56   108   110   ar
    57   120   121   ar
    58   107   109   ar
    59   110   112   ar
    60    21    11   am
    61    33    34    1
    62    20    19    1
    63    12    11    2
    64    11    10    1
    65   109   111   ar
    66   112   111   ar
    67   112   113    1
    68    18    19   ar
    69    18    16   ar
    70    19    17   ar
    71    34    35    1
    72    17    15   ar
    73    16    14   ar
    74    10     9    1
    75    10    13    1
    76    15    14   ar
    77    14    13    1
    78    35    36    2
    79    56    57    1
    80    56    55    1
    81    54    55    1
    82    54    53    1
    83    44    43    2
    84    53    50    1
    85    50    51    1
    86    50    49    1
    87    43    49   am
    88    43    42    1
    89    37    38    1
    90    51    52    2
    91     4     3    2
    92     8     6   ar
    93    41    42    1
    94    41    39   am
    95    76    77   ar
    96    76    74   ar
    97     3     2    1
    98    42    45    1
    99    77    75   ar
   100    45    46    1
   101    38    39    1
   102     6     5    1
   103     6     7   ar
   104    46    48    1
   105    46    47    1
   106    74    72   ar
   107    39    40    2
   108     5     2    1
   109    75    73   ar
   110    65    64   ar
   111     2     1    1
   112    72    73   ar
   113    72    71    1
   114    64    66   ar
   115    64    63    1
   116    61    60    2
   117    71    68    1
   118    62    63    1
   119    62    59    1
   120    58    59    1
   121    60    59    1
   122    67    68    1
   123    68    69    1
   124    70    69    2
