@<TRIPOS>MOLECULE
tmp/6mvhA00.pdb
 135 131 0 0 0
SMALL
GASTEIGER

@<TRIPOS>ATOM
      1  N         37.4940   59.3610   54.2930 N.3   155  ASP155     -0.1239
      2  CA        37.5550   59.3170   52.8320 C.3   155  ASP155      0.1674
      3  C         36.4700   58.4300   52.2280 C.2   155  ASP155      0.2266
      4  O         36.3520   57.2470   52.5540 O.2   155  ASP155     -0.2867
      5  CB        38.9410   58.8300   52.3910 C.3   155  ASP155      0.1410
      6  CG        39.2830   59.2120   50.9400 C.2   155  ASP155      0.3668
      7  OD1       38.3660   59.4240   50.1060 O.co2 155  ASP155     -0.2456
      8  OD2       40.4870   59.3030   50.6290 O.co2 155  ASP155     -0.2456
      9  N         38.2480   57.1960   47.8420 N.3   158  TYR158     -0.1227
     10  CA        39.3420   56.3330   47.4330 C.3   158  TYR158      0.1736
     11  C         38.7860   54.9510   47.0950 C.2   158  TYR158      0.2595
     12  O         38.6000   54.1130   47.9770 O.2   158  TYR158     -0.2718
     13  CB        40.4250   56.2580   48.4950 C.3   158  TYR158      0.0548
     14  CG        41.6800   55.6920   47.9010 C.ar  158  TYR158     -0.0200
     15  CD1       42.4870   56.4720   47.0760 C.ar  158  TYR158     -0.0009
     16  CD2       42.0280   54.3700   48.0960 C.ar  158  TYR158     -0.0009
     17  CE1       43.6250   55.9630   46.4990 C.ar  158  TYR158      0.0417
     18  CE2       43.1800   53.8430   47.5140 C.ar  158  TYR158      0.0417
     19  CZ        43.9660   54.6480   46.7140 C.ar  158  TYR158      0.1957
     20  OH        45.1000   54.1350   46.1320 O.3   158  TYR158     -0.2866
     21  N         38.5370   54.7270   45.7920 N.am  159  TYR159     -0.1976
     22  CA        38.1710   53.4190   45.2150 C.3   159  TYR159      0.1639
     23  C         37.0530   52.6950   45.9840 C.2   159  TYR159      0.2290
     24  O         37.0780   51.4740   46.1510 O.2   159  TYR159     -0.2864
     25  CB        39.4010   52.5200   45.0910 C.3   159  TYR159      0.0560
     26  CG        40.4520   53.0360   44.1240 C.ar  159  TYR159     -0.0198
     27  CD1       40.2740   52.9440   42.7450 C.ar  159  TYR159     -0.0009
     28  CD2       41.6340   53.6020   44.5920 C.ar  159  TYR159     -0.0009
     29  CE1       41.2310   53.4140   41.8660 C.ar  159  TYR159      0.0417
     30  CE2       42.6010   54.0740   43.7170 C.ar  159  TYR159      0.0417
     31  CZ        42.3960   53.9730   42.3610 C.ar  159  TYR159      0.1957
     32  OH        43.3680   54.4340   41.5050 O.3   159  TYR159     -0.2866
     33  N         36.3670   52.5250   49.0500 N.3   161  GLY161     -0.1210
     34  CA        36.7660   51.9110   50.3010 C.3   161  GLY161      0.1940
     35  C         36.0240   52.4520   51.5090 C.2   161  GLY161      0.2454
     36  O         35.3610   53.4970   51.4480 O.2   161  GLY161     -0.2732
     37  N         36.1230   51.7380   52.6380 N.am  162  PRO162     -0.2717
     38  CA        35.4310   52.1860   53.8620 C.3   162  PRO162      0.1536
     39  C         36.1030   53.3610   54.5380 C.2   162  PRO162      0.2599
     40  O         35.4980   53.9840   55.4130 O.2   162  PRO162     -0.2715
     41  CB        35.4790   50.9410   54.7670 C.3   162  PRO162      0.0310
     42  CG        36.7660   50.2550   54.3400 C.3   162  PRO162      0.0237
     43  CD        36.8460   50.4660   52.8480 C.3   162  PRO162      0.0939
     44  N         37.3350   53.6800   54.1760 N.am  163  GLY163     -0.1941
     45  CA        38.0580   54.7180   54.8750 C.3   163  GLY163      0.2014
     46  C         38.7870   54.2640   56.1200 C.2   163  GLY163      0.2639
     47  O         39.3780   55.1010   56.8070 O.2   163  GLY163     -0.2714
     48  N         38.7560   52.9760   56.4400 N.am  164  ILE164     -0.1963
     49  CA        39.4710   52.4420   57.5870 C.3   164  ILE164      0.1727
     50  C         40.0840   51.1060   57.1780 C.2   164  ILE164      0.2616
     51  O         39.4650   50.3190   56.4560 O.2   164  ILE164     -0.2715
     52  CB        38.5480   52.3030   58.8240 C.3   164  ILE164      0.0290
     53  CG1       39.3200   51.7490   60.0310 C.3   164  ILE164      0.0022
     54  CG2       37.3310   51.4500   58.5200 C.3   164  ILE164      0.0023
     55  CD1       38.4860   51.6130   61.3110 C.3   164  ILE164      0.0001
     56  N         41.3040   50.8560   57.6410 N.am  165  LYS165     -0.1977
     57  CA        42.0680   49.6640   57.2840 C.3   165  LYS165      0.1596
     58  C         42.6430   49.0770   58.5690 C.2   165  LYS165      0.2287
     59  O         43.4420   49.7300   59.2480 O.2   165  LYS165     -0.2864
     60  CB        43.1580   50.0430   56.2730 C.3   165  LYS165      0.0298
     61  CG        44.0990   48.9640   55.8660 C.3   165  LYS165      0.0038
     62  CD        45.2990   49.5640   55.1080 C.3   165  LYS165      0.0206
     63  CE        46.4940   48.6130   55.1630 C.3   165  LYS165      0.1093
     64  NZ        47.4740   48.8540   54.0810 N.3   165  LYS165     -0.1314
     65  N         41.7200   57.3870   56.6680 N.3   182  PHE182     -0.1241
     66  CA        42.0170   58.2810   55.5480 C.3   182  PHE182      0.1605
     67  C         41.0200   59.4300   55.5400 C.2   182  PHE182      0.2264
     68  O         39.8120   59.2150   55.6550 O.2   182  PHE182     -0.2867
     69  CB        42.0120   57.5240   54.2150 C.3   182  PHE182      0.0534
     70  CG        42.8910   56.3020   54.2300 C.ar  182  PHE182     -0.0203
     71  CD1       44.2210   56.3820   53.8720 C.ar  182  PHE182     -0.0042
     72  CD2       42.3940   55.0730   54.6540 C.ar  182  PHE182     -0.0042
     73  CE1       45.0300   55.2610   53.9140 C.ar  182  PHE182     -0.0003
     74  CE2       43.2050   53.9600   54.6980 C.ar  182  PHE182     -0.0003
     75  CZ        44.5250   54.0530   54.3270 C.ar  182  PHE182     -0.0000
     76  N         42.1830   46.7900   42.4320 N.3   358  LYS358     -0.1245
     77  CA        42.3550   47.8080   43.4620 C.3   358  LYS358      0.1561
     78  C         41.1050   47.9090   44.3230 C.2   358  LYS358      0.2260
     79  O         41.1860   47.9180   45.5600 O.2   358  LYS358     -0.2867
     80  CB        42.6830   49.1660   42.8330 C.3   358  LYS358      0.0271
     81  CG        44.0840   49.2570   42.2650 C.3   358  LYS358      0.0035
     82  CD        44.4990   50.6980   42.1180 C.3   358  LYS358      0.0206
     83  CE        45.6870   50.8230   41.1970 C.3   358  LYS358      0.1093
     84  NZ        45.9260   52.2600   40.8940 N.3   358  LYS358     -0.1314
     85  N         40.7000   44.7710   46.6180 N.3   361  VAL361     -0.1231
     86  CA        41.5280   44.7400   47.8190 C.3   361  VAL361      0.1692
     87  C         41.1540   45.8740   48.7680 C.2   361  VAL361      0.2591
     88  O         41.0210   45.6620   49.9770 O.2   361  VAL361     -0.2718
     89  CB        43.0290   44.7760   47.4500 C.3   361  VAL361      0.0266
     90  CG1       43.8900   44.8420   48.7150 C.3   361  VAL361      0.0020
     91  CG2       43.4020   43.5580   46.6030 C.3   361  VAL361      0.0020
     92  N         40.9870   47.0920   48.2490 N.am  362  VAL362     -0.1980
     93  CA        40.7210   48.2230   49.1340 C.3   362  VAL362      0.1595
     94  C         39.4060   48.0120   49.8580 C.2   362  VAL362      0.2287
     95  O         39.2750   48.3070   51.0510 O.2   362  VAL362     -0.2864
     96  CB        40.7240   49.5450   48.3390 C.3   362  VAL362      0.0276
     97  CG1       40.0740   50.6750   49.1400 C.3   362  VAL362      0.0022
     98  CG2       42.1540   49.9280   47.9180 C.3   362  VAL362      0.0022
     99  N         39.8380   44.4380   52.3720 N.3   365  TYR365     -0.1241
    100  CA        41.0060   44.1490   53.1850 C.3   365  TYR365      0.1605
    101  C         40.6570   43.7810   54.6230 C.2   365  TYR365      0.2264
    102  O         41.4410   43.0910   55.2870 O.2   365  TYR365     -0.2867
    103  CB        41.9260   45.3620   53.1630 C.3   365  TYR365      0.0534
    104  CG        43.1950   45.2280   53.9590 C.ar  365  TYR365     -0.0201
    105  CD1       43.2310   45.5410   55.3160 C.ar  365  TYR365     -0.0009
    106  CD2       44.3700   44.8280   53.3420 C.ar  365  TYR365     -0.0009
    107  CE1       44.4100   45.4150   56.0470 C.ar  365  TYR365      0.0417
    108  CE2       45.5490   44.7020   54.0550 C.ar  365  TYR365      0.0417
    109  CZ        45.5680   44.9970   55.4020 C.ar  365  TYR365      0.1957
    110  OH        46.7540   44.8950   56.0910 O.3   365  TYR365     -0.2866
    111  N         51.1330   44.3600   42.4730 N.3   395  MET395     -0.1245
    112  CA        50.2400   45.3340   43.0880 C.3   395  MET395      0.1570
    113  C         49.5130   44.7410   44.2900 C.2   395  MET395      0.2261
    114  O         49.3450   45.4100   45.3210 O.2   395  MET395     -0.2867
    115  CB        49.2310   45.8360   42.0590 C.3   395  MET395      0.0387
    116  CG        48.3040   46.9340   42.5650 C.3   395  MET395      0.0595
    117  SD        47.1200   47.4760   41.3030 S.3   395  MET395     -0.1393
    118  CE        45.9910   46.0640   41.2950 C.3   395  MET395      0.0692
    119  N         51.9460   44.4850   46.9360 N.3   398  GLU398     -0.1231
    120  CA        52.1800   45.8490   47.3940 C.3   398  GLU398      0.1699
    121  C         51.0710   46.3120   48.3380 C.2   398  GLU398      0.2592
    122  O         51.3390   46.9220   49.3730 O.2   398  GLU398     -0.2718
    123  CB        52.3000   46.7810   46.1790 C.3   398  GLU398      0.0402
    124  CG        52.3860   48.2830   46.4700 C.3   398  GLU398      0.1161
    125  CD        52.6410   49.1410   45.2060 C.2   398  GLU398      0.3649
    126  OE1       52.4200   48.6590   44.0680 O.co2 398  GLU398     -0.2457
    127  OE2       53.0720   50.3060   45.3610 O.co2 398  GLU398     -0.2457
    128  N         49.8130   46.0380   47.9980 N.am  399  MET399     -0.1979
    129  CA        48.7250   46.6060   48.7880 C.3   399  MET399      0.1605
    130  C         48.4260   45.8030   50.0470 C.2   399  MET399      0.2287
    131  O         47.9350   46.3730   51.0230 O.2   399  MET399     -0.2864
    132  CB        47.4550   46.7200   47.9480 C.3   399  MET399      0.0413
    133  CG        47.6190   47.5400   46.7000 C.3   399  MET399      0.0598
    134  SD        46.1160   47.4070   45.7380 S.3   399  MET399     -0.1393
    135  CE        45.0190   48.4480   46.6920 C.3   399  MET399      0.0692
@<TRIPOS>BOND
     1    84    83    1
     2    83    82    1
     3   118   117    1
     4   117   116    1
     5    32    31    1
     6    29    31   ar
     7    29    27   ar
     8   115   116    1
     9   115   112    1
    10    82    81    1
    11    81    80    1
    12    31    30   ar
    13    76    77    1
    14   111   112    1
    15    27    26   ar
    16    80    77    1
    17   112   113    1
    18    77    78    1
    19    30    28   ar
    20   126   125   ar
    21    26    28   ar
    22    26    25    1
    23   113   114    2
    24    78    79    2
    25    25    22    1
    26   125   127   ar
    27   125   124    1
    28    22    21    1
    29    22    23    1
    30   134   135    1
    31   134   133    1
    32    21    11   am
    33    23    24    2
    34    20    19    1
    35   123   124    1
    36   123   120    1
    37    17    19   ar
    38    17    15   ar
    39    91    89    1
    40    85    86    1
    41   133   132    1
    42    19    18   ar
    43   119   120    1
    44    15    14   ar
    45    11    10    1
    46    11    12    2
    47   120   121    1
    48    10     9    1
    49    10    13    1
    50    89    86    1
    51    89    90    1
    52    18    16   ar
    53    86    87    1
    54    14    16   ar
    55    14    13    1
    56    98    96    1
    57   132   129    1
    58   128   121   am
    59   128   129    1
    60    92    87   am
    61    92    93    1
    62   121   122    2
    63    96    93    1
    64    96    97    1
    65    87    88    2
    66   129   130    1
    67    33    34    1
    68    93    94    1
    69    94    95    2
    70   130   131    2
    71     7     6   ar
    72    34    35    1
    73     8     6   ar
    74     6     5    1
    75    36    35    2
    76    35    37   am
    77     3     4    2
    78     3     2    1
    79    99   100    1
    80     5     2    1
    81    37    43    1
    82    37    38    1
    83     2     1    1
    84    43    42    1
    85   103   100    1
    86   103   104    1
    87   100   101    1
    88   106   104   ar
    89   106   108   ar
    90    38    39    1
    91    38    41    1
    92    71    73   ar
    93    71    70   ar
    94    73    75   ar
    95   104   105   ar
    96   108   109   ar
    97    64    63    1
    98    44    39   am
    99    44    45    1
   100    69    70    1
   101    69    66    1
   102    70    72   ar
   103    75    74   ar
   104    42    41    1
   105    39    40    2
   106   101   102    2
   107    72    74   ar
   108    45    46    1
   109    62    63    1
   110    62    61    1
   111   105   107   ar
   112   109   107   ar
   113   109   110    1
   114    67    66    1
   115    67    68    2
   116    66    65    1
   117    61    60    1
   118    46    48   am
   119    46    47    2
   120    60    57    1
   121    48    49    1
   122    51    50    2
   123    50    49    1
   124    50    56   am
   125    57    56    1
   126    57    58    1
   127    49    52    1
   128    54    52    1
   129    58    59    2
   130    52    53    1
   131    53    55    1
