@<TRIPOS>MOLECULE
tmp/6mvsA00.pdb
 191 185 0 0 0
SMALL
GASTEIGER

@<TRIPOS>ATOM
      1  N         24.1260   25.3510    8.1850 N.3   147  VAL147     -0.1231
      2  CA        23.6240   26.3430    7.2350 C.3   147  VAL147      0.1692
      3  C         23.8130   25.7860    5.8280 C.2   147  VAL147      0.2592
      4  O         24.9050   25.3290    5.4820 O.2   147  VAL147     -0.2718
      5  CB        24.3530   27.6940    7.4000 C.3   147  VAL147      0.0266
      6  CG1       23.9950   28.6520    6.2670 C.3   147  VAL147      0.0020
      7  CG2       24.0300   28.3110    8.7560 C.3   147  VAL147      0.0020
      8  N         22.7630   25.8240    5.0130 N.am  148  ILE148     -0.1966
      9  CA        22.7690   25.1330    3.7200 C.3   148  ILE148      0.1712
     10  C         22.1760   26.0350    2.6440 C.2   148  ILE148      0.2458
     11  O         21.4710   27.0110    2.9390 O.2   148  ILE148     -0.2730
     12  CB        21.9910   23.8030    3.7810 C.3   148  ILE148      0.0289
     13  CG1       20.5410   24.0390    4.2260 C.3   148  ILE148      0.0022
     14  CG2       22.7080   22.8110    4.7000 C.3   148  ILE148      0.0023
     15  CD1       19.7190   22.7610    4.2270 C.3   148  ILE148      0.0001
     16  N         22.4500   25.7160    1.3540 N.am  149  PRO149     -0.2716
     17  CA        22.0100   26.5900    0.2620 C.3   149  PRO149      0.1536
     18  C         20.7040   26.1310   -0.3750 C.2   149  PRO149      0.2598
     19  O         20.0490   25.2120    0.1290 O.2   149  PRO149     -0.2715
     20  CB        23.1720   26.4800   -0.7350 C.3   149  PRO149      0.0310
     21  CG        23.5540   25.0200   -0.6150 C.3   149  PRO149      0.0237
     22  CD        23.3280   24.6400    0.8430 C.3   149  PRO149      0.0939
     23  N         20.3520   26.7370   -1.5130 N.am  150  TRP150     -0.1974
     24  CA        19.0320   26.5910   -2.1190 C.3   150  TRP150      0.1640
     25  C         18.9400   25.5020   -3.1860 C.2   150  TRP150      0.2290
     26  O         17.8290   25.2070   -3.6320 O.2   150  TRP150     -0.2864
     27  CB        18.5770   27.9360   -2.7410 C.3   150  TRP150      0.0576
     28  CG        19.6320   28.5860   -3.5570 C.ar  150  TRP150      0.0006
     29  CD1       20.4570   29.6050   -3.1660 C.ar  150  TRP150      0.0946
     30  CD2       20.0090   28.2530   -4.8980 C.ar  150  TRP150      0.0152
     31  NE1       21.3230   29.9240   -4.1860 N.ar  150  TRP150     -0.2442
     32  CE2       21.0720   29.1080   -5.2580 C.ar  150  TRP150      0.0810
     33  CE3       19.5530   27.3130   -5.8280 C.ar  150  TRP150      0.0012
     34  CZ2       21.6890   29.0510   -6.5090 C.ar  150  TRP150      0.0191
     35  CZ3       20.1780   27.2510   -7.0810 C.ar  150  TRP150      0.0001
     36  CH2       21.2300   28.1160   -7.4050 C.ar  150  TRP150      0.0015
     37  N         19.5760   26.0520    9.5340 N.3   174  LYS174     -0.1245
     38  CA        18.8590   27.0880    8.7980 C.3   174  LYS174      0.1561
     39  C         18.8650   26.7630    7.3120 C.2   174  LYS174      0.2260
     40  O         19.9480   26.7110    6.7000 O.2   174  LYS174     -0.2867
     41  CB        19.4990   28.4550    9.0320 C.3   174  LYS174      0.0271
     42  CG        18.7200   29.6100    8.4070 C.3   174  LYS174      0.0035
     43  CD        19.5870   30.8670    8.2280 C.3   174  LYS174      0.0206
     44  CE        20.4160   30.8180    6.9300 C.3   174  LYS174      0.1093
     45  NZ        19.5580   30.8910    5.6980 N.3   174  LYS174     -0.1314
     46  N         18.1090   27.7240    3.2450 N.3   176  ALA176     -0.1231
     47  CA        18.2660   28.9460    2.4720 C.3   176  ALA176      0.1694
     48  C         16.9730   29.7540    2.4970 C.2   176  ALA176      0.2592
     49  O         15.8730   29.2060    2.5680 O.2   176  ALA176     -0.2718
     50  CB        18.6550   28.6180    1.0310 C.3   176  ALA176      0.0304
     51  N         17.1080   31.0790    2.4560 N.am  177  GLU177     -0.1966
     52  CA        15.9080   31.9080    2.5180 C.3   177  GLU177      0.1733
     53  C         15.0010   31.6690    1.3150 C.2   177  GLU177      0.2616
     54  O         13.7810   31.8290    1.4200 O.2   177  GLU177     -0.2715
     55  CB        16.2830   33.3910    2.6330 C.3   177  GLU177      0.0429
     56  CG        17.1630   33.9190    1.5160 C.3   177  GLU177      0.1163
     57  CD        18.6520   33.8610    1.8480 C.2   177  GLU177      0.3649
     58  OE1       19.0540   33.0260    2.6880 O.co2 177  GLU177     -0.2457
     59  OE2       19.4240   34.6650    1.2790 O.co2 177  GLU177     -0.2457
     60  N         15.5560   31.2700    0.1680 N.am  178  TRP178     -0.1974
     61  CA        14.6850   31.0230   -0.9820 C.3   178  TRP178      0.1640
     62  C         13.9560   29.6860   -0.9210 C.2   178  TRP178      0.2290
     63  O         12.9850   29.5040   -1.6700 O.2   178  TRP178     -0.2864
     64  CB        15.4700   31.0610   -2.2950 C.3   178  TRP178      0.0576
     65  CG        15.9950   32.4030   -2.6740 C.ar  178  TRP178      0.0006
     66  CD1       15.5790   33.6150   -2.2140 C.ar  178  TRP178      0.0946
     67  CD2       17.0580   32.6600   -3.5950 C.ar  178  TRP178      0.0152
     68  NE1       16.3150   34.6200   -2.8030 N.ar  178  TRP178     -0.2442
     69  CE2       17.2340   34.0560   -3.6510 C.ar  178  TRP178      0.0810
     70  CE3       17.8840   31.8390   -4.3780 C.ar  178  TRP178      0.0012
     71  CZ2       18.1970   34.6560   -4.4670 C.ar  178  TRP178      0.0191
     72  CZ3       18.8450   32.4340   -5.1840 C.ar  178  TRP178      0.0001
     73  CH2       18.9900   33.8310   -5.2210 C.ar  178  TRP178      0.0015
     74  N         20.9140   35.4670    5.3850 N.3   207  GLY207     -0.1225
     75  CA        22.2730   35.3100    5.8760 C.3   207  GLY207      0.1811
     76  C         22.5050   35.9010    7.2520 C.2   207  GLY207      0.2280
     77  O         23.3840   35.4390    7.9910 O.2   207  GLY207     -0.2866
     78  N         21.9350   33.1560    9.4680 N.3   210  GLY210     -0.1210
     79  CA        23.1050   32.2910    9.3840 C.3   210  GLY210      0.1956
     80  C         24.2470   32.7910   10.2480 C.2   210  GLY210      0.2611
     81  O         24.9020   32.0100   10.9380 O.2   210  GLY210     -0.2717
     82  N         24.4870   34.1050   10.2320 N.am  211  GLU211     -0.1979
     83  CA        25.5700   34.6820   11.0310 C.3   211  GLU211      0.1602
     84  C         25.3400   34.4660   12.5220 C.2   211  GLU211      0.2287
     85  O         26.2860   34.1740   13.2700 O.2   211  GLU211     -0.2864
     86  CB        25.7030   36.1810   10.7330 C.3   211  GLU211      0.0415
     87  CG        26.0510   36.5080    9.2890 C.3   211  GLU211      0.1163
     88  CD        26.2120   38.0010    9.0420 C.2   211  GLU211      0.3649
     89  OE1       25.1910   38.7110    8.9480 O.co2 211  GLU211     -0.2457
     90  OE2       27.3690   38.4670    8.9500 O.co2 211  GLU211     -0.2457
     91  N         26.2160   30.8480   13.3380 N.3   214  VAL214     -0.1245
     92  CA        27.6530   30.6020   13.2520 C.3   214  VAL214      0.1561
     93  C         28.3680   31.0990   14.5010 C.2   214  VAL214      0.2260
     94  O         29.3280   30.4720   14.9740 O.2   214  VAL214     -0.2867
     95  CB        28.2160   31.2580   11.9740 C.3   214  VAL214      0.0252
     96  CG1       29.7200   31.3880   12.0570 C.3   214  VAL214      0.0019
     97  CG2       27.8230   30.4460   10.7440 C.3   214  VAL214      0.0019
     98  N         28.7600   24.0680    7.0880 N.3   223  PHE223     -0.1227
     99  CA        28.2500   25.0050    6.1020 C.3   223  PHE223      0.1736
    100  C         28.4470   24.4560    4.6970 C.2   223  PHE223      0.2596
    101  O         29.5170   23.9420    4.3620 O.2   223  PHE223     -0.2718
    102  CB        28.9620   26.3600    6.2320 C.3   223  PHE223      0.0547
    103  CG        28.6490   27.3290    5.1140 C.ar  223  PHE223     -0.0202
    104  CD1       27.4870   28.0870    5.1450 C.ar  223  PHE223     -0.0042
    105  CD2       29.5290   27.4980    4.0470 C.ar  223  PHE223     -0.0042
    106  CE1       27.2040   28.9940    4.1270 C.ar  223  PHE223     -0.0003
    107  CE2       29.2510   28.4030    3.0320 C.ar  223  PHE223     -0.0003
    108  CZ        28.0880   29.1510    3.0680 C.ar  223  PHE223     -0.0000
    109  N         27.4130   24.5800    3.8760 N.am  224  THR224     -0.1939
    110  CA        27.5280   24.4240    2.4320 C.3   224  THR224      0.2028
    111  C         26.9930   25.6880    1.7720 C.2   224  THR224      0.2643
    112  O         25.9170   26.1730    2.1490 O.2   224  THR224     -0.2714
    113  CB        26.7630   23.1950    1.9450 C.3   224  THR224      0.1808
    114  OG1       27.3510   22.0260    2.5250 O.3   224  THR224     -0.2208
    115  CG2       26.8430   23.1040    0.4390 C.3   224  THR224      0.0379
    116  N         27.7430   26.2210    0.8070 N.am  225  GLY225     -0.1939
    117  CA        27.3800   27.4830    0.1820 C.3   225  GLY225      0.2014
    118  C         28.5910   28.1320   -0.4780 C.2   225  GLY225      0.2639
    119  O         29.5530   27.4580   -0.8240 O.2   225  GLY225     -0.2714
    120  N         28.5040   29.4530   -0.6420 N.am  226  SER226     -0.1949
    121  CA        29.4720   30.1700   -1.4720 C.3   226  SER226      0.1924
    122  C         30.8310   30.2680   -0.7910 C.2   226  SER226      0.2314
    123  O         30.9360   30.3120    0.4330 O.2   226  SER226     -0.2863
    124  CB        28.9810   31.5810   -1.8020 C.3   226  SER226      0.2116
    125  OG        28.9430   32.4140   -0.6490 O.3   226  SER226     -0.2180
    126  N         31.1520   33.3470    1.5660 N.3   229  VAL229     -0.1245
    127  CA        30.5550   33.1680    2.8840 C.3   229  VAL229      0.1561
    128  C         31.3800   32.1780    3.7030 C.2   229  VAL229      0.2260
    129  O         31.5510   32.3450    4.9200 O.2   229  VAL229     -0.2867
    130  CB        29.0830   32.7270    2.7570 C.3   229  VAL229      0.0252
    131  CG1       28.5300   32.3350    4.1200 C.3   229  VAL229      0.0019
    132  CG2       28.2350   33.8690    2.1720 C.3   229  VAL229      0.0019
    133  N         34.0340   34.1110    5.3620 N.3   232  ARG232     -0.1231
    134  CA        33.5150   34.8980    6.4750 C.3   232  ARG232      0.1694
    135  C         33.2370   34.0130    7.6820 C.2   232  ARG232      0.2591
    136  O         33.4560   34.4250    8.8280 O.2   232  ARG232     -0.2718
    137  CB        32.2460   35.6430    6.0510 C.3   232  ARG232      0.0321
    138  CG        32.4740   36.6640    4.9400 C.3   232  ARG232      0.0489
    139  CD        31.1700   37.2930    4.4780 C.3   232  ARG232      0.2205
    140  NE        30.5970   38.1730    5.4910 N.pl3 232  ARG232     -0.0865
    141  CZ        30.6840   39.4990    5.4660 C.cat 232  ARG232      0.5346
    142  NH1       31.3190   40.1060    4.4710 N.pl3 232  ARG232      0.1354
    143  NH2       30.1310   40.2180    6.4330 N.pl3 232  ARG232      0.1354
    144  N         32.7550   32.7890    7.4440 N.am  233  ILE233     -0.1980
    145  CA        32.4770   31.8780    8.5450 C.3   233  ILE233      0.1595
    146  C         33.7790   31.4400    9.2050 C.2   233  ILE233      0.2287
    147  O         33.8720   31.3430   10.4370 O.2   233  ILE233     -0.2864
    148  CB        31.6520   30.6830    8.0350 C.3   233  ILE233      0.0276
    149  CG1       30.2410   31.1760    7.6810 C.3   233  ILE233      0.0022
    150  CG2       31.6300   29.5640    9.0890 C.3   233  ILE233      0.0022
    151  CD1       29.3330   30.1280    7.0830 C.3   233  ILE233      0.0001
    152  N         26.1810   25.3270   -5.1400 N.3   279  GLN279     -0.1245
    153  CA        27.3760   24.7480   -4.5290 C.3   279  GLN279      0.1566
    154  C         27.0560   23.3020   -4.1700 C.2   279  GLN279      0.2260
    155  O         26.7600   22.9590   -3.0250 O.2   279  GLN279     -0.2867
    156  CB        27.8160   25.5650   -3.3110 C.3   279  GLN279      0.0367
    157  CG        27.8660   27.0760   -3.5570 C.3   279  GLN279      0.0905
    158  CD        26.4980   27.7430   -3.4500 C.2   279  GLN279      0.2608
    159  OE1       25.5170   27.1070   -3.0730 O.2   279  GLN279     -0.2717
    160  NE2       26.4280   29.0200   -3.8020 N.am  279  GLN279     -0.0878
    161  N         18.7020   34.8730   -9.3090 N.3   328  GLN328     -0.1245
    162  CA        19.6020   33.9020   -9.9240 C.3   328  GLN328      0.1566
    163  C         19.5220   33.9590  -11.4420 C.2   328  GLN328      0.2260
    164  O         20.5470   33.8180  -12.1270 O.2   328  GLN328     -0.2867
    165  CB        19.2740   32.4950   -9.4120 C.3   328  GLN328      0.0367
    166  CG        20.3110   31.4530   -9.7920 C.3   328  GLN328      0.0905
    167  CD        21.5970   31.6240   -9.0340 C.2   328  GLN328      0.2608
    168  OE1       21.6590   32.3840   -8.0670 O.2   328  GLN328     -0.2717
    169  NE2       22.6360   30.9110   -9.4570 N.am  328  GLN328     -0.0878
    170  N         21.6540   36.7600  -12.3760 N.3   331  ARG331     -0.1245
    171  CA        23.0610   36.3920  -12.2390 C.3   331  ARG331      0.1563
    172  C         23.5570   35.6390  -13.4720 C.2   331  ARG331      0.2260
    173  O         24.6540   35.9090  -13.9730 O.2   331  ARG331     -0.2867
    174  CB        23.2470   35.5510  -10.9690 C.3   331  ARG331      0.0307
    175  CG        24.6890   35.2240  -10.5720 C.3   331  ARG331      0.0489
    176  CD        24.9790   35.6920   -9.1380 C.3   331  ARG331      0.2205
    177  NE        23.9710   35.2390   -8.1760 N.pl3 331  ARG331     -0.0865
    178  CZ        23.6360   35.8940   -7.0630 C.cat 331  ARG331      0.5346
    179  NH1       22.7050   35.4000   -6.2560 N.pl3 331  ARG331      0.1354
    180  NH2       24.2160   37.0510   -6.7590 N.pl3 331  ARG331      0.1354
    181  N         27.4050   30.0130  -13.4060 N.3   375  PHE375     -0.1241
    182  CA        26.0470   30.0170  -12.8810 C.3   375  PHE375      0.1605
    183  C         25.0670   29.5320  -13.9390 C.2   375  PHE375      0.2264
    184  O         25.2690   29.7380  -15.1390 O.2   375  PHE375     -0.2867
    185  CB        25.6370   31.4190  -12.4130 C.3   375  PHE375      0.0534
    186  CG        26.5160   31.9660  -11.3370 C.ar  375  PHE375     -0.0203
    187  CD1       26.3740   31.5400  -10.0270 C.ar  375  PHE375     -0.0042
    188  CD2       27.5130   32.8790  -11.6400 C.ar  375  PHE375     -0.0042
    189  CE1       27.2040   32.0260   -9.0270 C.ar  375  PHE375     -0.0003
    190  CE2       28.3450   33.3720  -10.6440 C.ar  375  PHE375     -0.0003
    191  CZ        28.1920   32.9440   -9.3390 C.ar  375  PHE375     -0.0000
@<TRIPOS>BOND
     1   184   183    2
     2   173   172    2
     3   183   182    1
     4   172   171    1
     5   181   182    1
     6   182   185    1
     7   185   186    1
     8   170   171    1
     9   171   174    1
    10   164   163    2
    11   188   186   ar
    12   188   190   ar
    13   163   162    1
    14   186   187   ar
    15   174   175    1
    16   190   191   ar
    17   175   176    1
    18   187   189   ar
    19   162   165    1
    20   162   161    1
    21   166   165    1
    22   166   167    1
    23   169   167   am
    24   191   189   ar
    25   176   177    1
    26   167   168    2
    27   177   178    2
    28    36    35   ar
    29    36    34   ar
    30    35    33   ar
    31   178   180    1
    32   178   179    1
    33    34    32   ar
    34    33    30   ar
    35    32    30   ar
    36    32    31   ar
    37    73    72   ar
    38    73    71   ar
    39    72    70   ar
    40   152   153    1
    41    30    28   ar
    42   153   154    1
    43   153   156    1
    44    71    69   ar
    45    70    67   ar
    46    31    29   ar
    47   154   155    2
    48   160   158   am
    49    69    67   ar
    50    69    68   ar
    51    26    25    2
    52    67    65   ar
    53   157   158    1
    54   157   156    1
    55    28    29   ar
    56    28    27    1
    57   158   159    2
    58    25    24    1
    59    68    66   ar
    60    27    24    1
    61    65    64    1
    62    65    66   ar
    63    64    61    1
    64    24    23    1
    65   124   121    1
    66   124   125    1
    67    63    62    2
    68    23    18   am
    69   121   122    1
    70   121   120    1
    71    61    62    1
    72    61    60    1
    73   119   118    2
    74   122   123    2
    75    20    21    1
    76    20    17    1
    77   120   118   am
    78    21    22    1
    79   118   117    1
    80    18    19    2
    81    18    17    1
    82    60    53   am
    83   117   116    1
    84    17    16    1
    85   115   113    1
    86   116   111   am
    87    22    16    1
    88    50    47    1
    89    59    57   ar
    90    53    54    2
    91    53    52    1
    92    16    10   am
    93    56    57    1
    94    56    55    1
    95   126   127    1
    96   111   112    2
    97   111   110    1
    98    57    58   ar
    99   113   110    1
   100   113   114    1
   101   132   130    1
   102   110   109    1
   103    51    48   am
   104    51    52    1
   105    47    48    1
   106    47    46    1
   107    48    49    2
   108    52    55    1
   109    10    11    2
   110    10     9    1
   111   130   127    1
   112   130   131    1
   113   127   128    1
   114   107   108   ar
   115   107   105   ar
   116   108   106   ar
   117   128   129    2
   118     9    12    1
   119     9     8    1
   120    12    13    1
   121    12    14    1
   122   109   100   am
   123   105   103   ar
   124   106   104   ar
   125    13    15    1
   126   101   100    2
   127   142   141    1
   128   139   138    1
   129   139   140    1
   130   100    99    1
   131   138   137    1
   132     8     3   am
   133   103   104   ar
   134   103   102    1
   135   133   134    1
   136    74    75    1
   137   141   140    2
   138   141   143    1
   139     4     3    2
   140    45    44    1
   141     3     2    1
   142    75    76    1
   143   137   134    1
   144    99   102    1
   145    99    98    1
   146     6     5    1
   147   134   135    1
   148    40    39    2
   149    44    43    1
   150   151   149    1
   151     2     5    1
   152     2     1    1
   153    76    77    2
   154    39    38    1
   155     5     7    1
   156   144   135   am
   157   144   145    1
   158   149   148    1
   159   135   136    2
   160   148   145    1
   161   148   150    1
   162    43    42    1
   163    42    41    1
   164   145   146    1
   165    38    41    1
   166    38    37    1
   167    89    88   ar
   168    90    88   ar
   169    88    87    1
   170   146   147    2
   171    87    86    1
   172    79    78    1
   173    79    80    1
   174    82    80   am
   175    82    83    1
   176    80    81    2
   177    86    83    1
   178    97    95    1
   179    83    84    1
   180    95    96    1
   181    95    92    1
   182    84    85    2
   183    92    91    1
   184    92    93    1
   185    93    94    2
