@<TRIPOS>MOLECULE
tmp/6mvtA00.pdb
 206 199 0 0 0
SMALL
GASTEIGER

@<TRIPOS>ATOM
      1  N         24.3450   25.5260    8.1450 N.3   147  VAL147     -0.1231
      2  CA        23.8300   26.5010    7.1910 C.3   147  VAL147      0.1692
      3  C         24.0340   25.9240    5.8010 C.2   147  VAL147      0.2592
      4  O         25.1190   25.4180    5.5020 O.2   147  VAL147     -0.2718
      5  CB        24.5470   27.8620    7.3400 C.3   147  VAL147      0.0266
      6  CG1       24.2130   28.7810    6.1790 C.3   147  VAL147      0.0020
      7  CG2       24.1680   28.5230    8.6980 C.3   147  VAL147      0.0020
      8  N         23.0080   25.9980    4.9530 N.am  148  ILE148     -0.1966
      9  CA        23.0240   25.3100    3.6580 C.3   148  ILE148      0.1712
     10  C         22.4300   26.2000    2.5740 C.2   148  ILE148      0.2458
     11  O         21.6700   27.1360    2.8550 O.2   148  ILE148     -0.2730
     12  CB        22.2530   23.9740    3.7090 C.3   148  ILE148      0.0289
     13  CG1       20.7980   24.1980    4.1770 C.3   148  ILE148      0.0022
     14  CG2       23.0570   22.9410    4.5060 C.3   148  ILE148      0.0023
     15  CD1       19.8930   22.9480    4.1390 C.3   148  ILE148      0.0001
     16  N         22.7260   25.8830    1.2950 N.am  149  PRO149     -0.2716
     17  CA        22.2320   26.7100    0.1870 C.3   149  PRO149      0.1536
     18  C         20.9410   26.2000   -0.4420 C.2   149  PRO149      0.2598
     19  O         20.2960   25.2720    0.0630 O.2   149  PRO149     -0.2715
     20  CB        23.3800   26.6220   -0.8210 C.3   149  PRO149      0.0310
     21  CG        23.7570   25.1420   -0.7160 C.3   149  PRO149      0.0237
     22  CD        23.6190   24.8170    0.7890 C.3   149  PRO149      0.0939
     23  N         20.5920   26.7750   -1.5970 N.am  150  TRP150     -0.1974
     24  CA        19.2640   26.6180   -2.1710 C.3   150  TRP150      0.1640
     25  C         19.1710   25.5370   -3.2440 C.2   150  TRP150      0.2290
     26  O         18.0570   25.2290   -3.6830 O.2   150  TRP150     -0.2864
     27  CB        18.7890   27.9570   -2.7590 C.3   150  TRP150      0.0576
     28  CG        19.8130   28.6030   -3.6540 C.ar  150  TRP150      0.0006
     29  CD1       20.6530   29.6300   -3.3320 C.ar  150  TRP150      0.0946
     30  CD2       20.1150   28.2520   -5.0160 C.ar  150  TRP150      0.0152
     31  NE1       21.4530   29.9470   -4.4070 N.ar  150  TRP150     -0.2442
     32  CE2       21.1430   29.1110   -5.4500 C.ar  150  TRP150      0.0810
     33  CE3       19.6130   27.2990   -5.9080 C.ar  150  TRP150      0.0012
     34  CZ2       21.6800   29.0370   -6.7330 C.ar  150  TRP150      0.0191
     35  CZ3       20.1490   27.2250   -7.1800 C.ar  150  TRP150      0.0001
     36  CH2       21.1650   28.0900   -7.5820 C.ar  150  TRP150      0.0015
     37  N         19.7270   26.1750    9.4790 N.3   174  LYS174     -0.1245
     38  CA        19.0080   27.2070    8.7560 C.3   174  LYS174      0.1561
     39  C         19.0270   26.8770    7.2710 C.2   174  LYS174      0.2260
     40  O         20.1050   26.8810    6.6580 O.2   174  LYS174     -0.2867
     41  CB        19.6370   28.5800    9.0050 C.3   174  LYS174      0.0271
     42  CG        18.9300   29.7200    8.3070 C.3   174  LYS174      0.0035
     43  CD        19.8590   30.9240    8.0970 C.3   174  LYS174      0.0206
     44  CE        20.5900   30.8710    6.7420 C.3   174  LYS174      0.1093
     45  NZ        19.6960   31.1150    5.5570 N.3   174  LYS174     -0.1314
     46  N         18.1960   27.7870    3.1580 N.3   176  ALA176     -0.1231
     47  CA        18.3780   29.0170    2.4010 C.3   176  ALA176      0.1694
     48  C         17.0870   29.8270    2.3770 C.2   176  ALA176      0.2592
     49  O         15.9810   29.2730    2.3730 O.2   176  ALA176     -0.2718
     50  CB        18.8160   28.6980    0.9730 C.3   176  ALA176      0.0304
     51  N         17.2310   31.1570    2.3430 N.am  177  GLU177     -0.1966
     52  CA        16.0480   32.0190    2.3900 C.3   177  GLU177      0.1733
     53  C         15.1280   31.7790    1.1970 C.2   177  GLU177      0.2616
     54  O         13.9120   31.9970    1.2960 O.2   177  GLU177     -0.2715
     55  CB        16.4470   33.4980    2.4680 C.3   177  GLU177      0.0429
     56  CG        17.3320   33.9980    1.3300 C.3   177  GLU177      0.1163
     57  CD        18.8470   33.8900    1.6140 C.2   177  GLU177      0.3649
     58  OE1       19.2790   33.0120    2.3980 O.co2 177  GLU177     -0.2457
     59  OE2       19.6150   34.6930    1.0410 O.co2 177  GLU177     -0.2457
     60  N         15.6690   31.3100    0.0730 N.am  178  TRP178     -0.1974
     61  CA        14.8060   31.0640   -1.0780 C.3   178  TRP178      0.1640
     62  C         14.0640   29.7370   -0.9720 C.2   178  TRP178      0.2290
     63  O         12.9870   29.5920   -1.5680 O.2   178  TRP178     -0.2864
     64  CB        15.6190   31.0870   -2.3720 C.3   178  TRP178      0.0576
     65  CG        16.0840   32.4350   -2.7830 C.ar  178  TRP178      0.0006
     66  CD1       15.5850   33.6360   -2.3700 C.ar  178  TRP178      0.0946
     67  CD2       17.1660   32.7290   -3.6760 C.ar  178  TRP178      0.0152
     68  NE1       16.2800   34.6620   -2.9620 N.ar  178  TRP178     -0.2442
     69  CE2       17.2510   34.1350   -3.7750 C.ar  178  TRP178      0.0810
     70  CE3       18.0660   31.9390   -4.4100 C.ar  178  TRP178      0.0012
     71  CZ2       18.2010   34.7760   -4.5840 C.ar  178  TRP178      0.0191
     72  CZ3       19.0060   32.5730   -5.2240 C.ar  178  TRP178      0.0001
     73  CH2       19.0680   33.9790   -5.2990 C.ar  178  TRP178      0.0015
     74  N         21.1290   35.5530    5.2620 N.3   207  GLY207     -0.1225
     75  CA        22.4990   35.4300    5.7370 C.3   207  GLY207      0.1811
     76  C         22.7440   36.0370    7.1060 C.2   207  GLY207      0.2280
     77  O         23.6770   35.6200    7.8070 O.2   207  GLY207     -0.2866
     78  N         22.1300   33.2800    9.3820 N.3   210  GLY210     -0.1210
     79  CA        23.3220   32.4490    9.2950 C.3   210  GLY210      0.1956
     80  C         24.4780   32.9860   10.1280 C.2   210  GLY210      0.2611
     81  O         25.1790   32.2200   10.7970 O.2   210  GLY210     -0.2717
     82  N         24.6980   34.3070   10.0980 N.am  211  GLU211     -0.1979
     83  CA        25.7800   34.8920   10.8920 C.3   211  GLU211      0.1602
     84  C         25.5750   34.6470   12.3820 C.2   211  GLU211      0.2287
     85  O         26.5390   34.3990   13.1120 O.2   211  GLU211     -0.2864
     86  CB        25.9000   36.3970   10.6260 C.3   211  GLU211      0.0415
     87  CG        26.4170   36.7580    9.2440 C.3   211  GLU211      0.1163
     88  CD        26.4870   38.2620    9.0040 C.2   211  GLU211      0.3649
     89  OE1       25.5410   38.9900    9.3810 O.co2 211  GLU211     -0.2457
     90  OE2       27.5020   38.7210    8.4360 O.co2 211  GLU211     -0.2457
     91  N         26.5360   30.9740   13.1990 N.3   214  VAL214     -0.1245
     92  CA        27.9750   30.7470   13.1110 C.3   214  VAL214      0.1561
     93  C         28.6820   31.2340   14.3730 C.2   214  VAL214      0.2260
     94  O         29.5760   30.5590   14.8970 O.2   214  VAL214     -0.2867
     95  CB        28.5380   31.4240   11.8430 C.3   214  VAL214      0.0252
     96  CG1       30.0340   31.5700   11.9380 C.3   214  VAL214      0.0019
     97  CG2       28.1450   30.6500   10.5650 C.3   214  VAL214      0.0019
     98  N         29.1130   24.2510    6.9640 N.3   223  PHE223     -0.1227
     99  CA        28.5890   25.1780    5.9840 C.3   223  PHE223      0.1736
    100  C         28.7660   24.6040    4.5880 C.2   223  PHE223      0.2596
    101  O         29.8090   24.0230    4.2650 O.2   223  PHE223     -0.2718
    102  CB        29.3060   26.5290    6.1060 C.3   223  PHE223      0.0547
    103  CG        28.9430   27.5190    5.0370 C.ar  223  PHE223     -0.0202
    104  CD1       27.7540   28.2320    5.1060 C.ar  223  PHE223     -0.0042
    105  CD2       29.8100   27.7640    3.9830 C.ar  223  PHE223     -0.0042
    106  CE1       27.4260   29.1610    4.1310 C.ar  223  PHE223     -0.0003
    107  CE2       29.5000   28.6990    3.0070 C.ar  223  PHE223     -0.0003
    108  CZ        28.3010   29.3910    3.0670 C.ar  223  PHE223     -0.0000
    109  N         27.7290   24.7630    3.7740 N.am  224  THR224     -0.1939
    110  CA        27.8040   24.5870    2.3320 C.3   224  THR224      0.2028
    111  C         27.2990   25.8710    1.6860 C.2   224  THR224      0.2643
    112  O         26.2260   26.3770    2.0490 O.2   224  THR224     -0.2714
    113  CB        26.9860   23.3700    1.8890 C.3   224  THR224      0.1808
    114  OG1       27.4690   22.2210    2.5980 O.3   224  THR224     -0.2208
    115  CG2       27.1240   23.1270    0.3820 C.3   224  THR224      0.0379
    116  N         28.0740   26.4070    0.7500 N.am  225  GLY225     -0.1939
    117  CA        27.6900   27.6530    0.1120 C.3   225  GLY225      0.2014
    118  C         28.8890   28.2840   -0.5780 C.2   225  GLY225      0.2639
    119  O         29.8550   27.6030   -0.9020 O.2   225  GLY225     -0.2714
    120  N         28.7940   29.5990   -0.7900 N.am  226  SER226     -0.1949
    121  CA        29.7580   30.2880   -1.6360 C.3   226  SER226      0.1924
    122  C         31.1130   30.4070   -0.9440 C.2   226  SER226      0.2314
    123  O         31.2210   30.4260    0.2890 O.2   226  SER226     -0.2863
    124  CB        29.2560   31.6820   -2.0280 C.3   226  SER226      0.2116
    125  OG        29.2400   32.5590   -0.9060 O.3   226  SER226     -0.2180
    126  N         33.0330   33.0070   -0.8250 N.3   228  ALA228     -0.1231
    127  CA        33.1960   34.2480   -0.0700 C.3   228  ALA228      0.1694
    128  C         32.6060   34.1340    1.3330 C.2   228  ALA228      0.2591
    129  O         33.2250   34.5760    2.3110 O.2   228  ALA228     -0.2718
    130  CB        32.5680   35.4210   -0.8230 C.3   228  ALA228      0.0304
    131  N         31.4060   33.5690    1.4590 N.am  229  VAL229     -0.1980
    132  CA        30.8420   33.4040    2.7910 C.3   229  VAL229      0.1595
    133  C         31.6740   32.4120    3.5920 C.2   229  VAL229      0.2287
    134  O         31.8400   32.5540    4.8110 O.2   229  VAL229     -0.2864
    135  CB        29.3670   32.9680    2.7030 C.3   229  VAL229      0.0276
    136  CG1       28.8500   32.5930    4.0930 C.3   229  VAL229      0.0022
    137  CG2       28.5310   34.0870    2.1120 C.3   229  VAL229      0.0022
    138  N         34.4280   34.2490    5.2900 N.3   232  ARG232     -0.1231
    139  CA        33.9880   35.0490    6.4290 C.3   232  ARG232      0.1694
    140  C         33.6660   34.1670    7.6200 C.2   232  ARG232      0.2591
    141  O         33.8940   34.5630    8.7710 O.2   232  ARG232     -0.2718
    142  CB        32.7740   35.9070    6.0480 C.3   232  ARG232      0.0321
    143  CG        33.0600   36.8830    4.9070 C.3   232  ARG232      0.0489
    144  CD        32.3670   38.2330    5.0930 C.3   232  ARG232      0.2205
    145  NE        30.9140   38.1530    4.9410 N.pl3 232  ARG232     -0.0865
    146  CZ        30.2810   38.0410    3.7720 C.cat 232  ARG232      0.5346
    147  NH1       30.9720   37.9800    2.6360 N.pl3 232  ARG232      0.1354
    148  NH2       28.9530   37.9800    3.7380 N.pl3 232  ARG232      0.1354
    149  N         33.1360   32.9710    7.3600 N.am  233  ILE233     -0.1980
    150  CA        32.8770   32.0310    8.4420 C.3   233  ILE233      0.1595
    151  C         34.1910   31.5430    9.0450 C.2   233  ILE233      0.2287
    152  O         34.3450   31.4980   10.2710 O.2   233  ILE233     -0.2864
    153  CB        31.9930   30.8760    7.9340 C.3   233  ILE233      0.0276
    154  CG1       30.5670   31.4040    7.6950 C.3   233  ILE233      0.0022
    155  CG2       32.0150   29.6870    8.9220 C.3   233  ILE233      0.0022
    156  CD1       29.5750   30.3990    7.0750 C.3   233  ILE233      0.0001
    157  N         26.3740   25.3780   -5.2170 N.3   279  GLN279     -0.1245
    158  CA        27.6120   24.8320   -4.6490 C.3   279  GLN279      0.1566
    159  C         27.3840   23.3640   -4.2960 C.2   279  GLN279      0.2260
    160  O         27.2130   22.9890   -3.1370 O.2   279  GLN279     -0.2867
    161  CB        28.0630   25.6470   -3.4360 C.3   279  GLN279      0.0367
    162  CG        28.2690   27.1420   -3.7240 C.3   279  GLN279      0.0905
    163  CD        26.9930   27.9720   -3.5900 C.2   279  GLN279      0.2608
    164  OE1       25.9300   27.4600   -3.2310 O.2   279  GLN279     -0.2717
    165  NE2       27.1020   29.2650   -3.8740 N.am  279  GLN279     -0.0878
    166  N         16.6800   36.7530   -9.0650 N.3   327  ASP327     -0.1225
    167  CA        18.0570   37.1960   -8.8790 C.3   327  ASP327      0.1805
    168  C         19.0450   36.1990   -9.4800 C.2   327  ASP327      0.2597
    169  O         20.0890   36.5910  -10.0100 O.2   327  ASP327     -0.2718
    170  CB        18.3670   37.3860   -7.3940 C.3   327  ASP327      0.1424
    171  CG        17.5810   38.5230   -6.7430 C.2   327  ASP327      0.3668
    172  OD1       16.7290   39.1790   -7.4000 O.co2 327  ASP327     -0.2456
    173  OD2       17.8380   38.7420   -5.5390 O.co2 327  ASP327     -0.2456
    174  N         18.7470   34.9000   -9.3810 N.am  328  GLN328     -0.1979
    175  CA        19.6520   33.9090   -9.9530 C.3   328  GLN328      0.1601
    176  C         19.6220   33.9630  -11.4700 C.2   328  GLN328      0.2287
    177  O         20.6720   33.8660  -12.1190 O.2   328  GLN328     -0.2864
    178  CB        19.3000   32.5030   -9.4540 C.3   328  GLN328      0.0394
    179  CG        20.3610   31.4480   -9.7440 C.3   328  GLN328      0.0908
    180  CD        21.6990   31.7580   -9.0720 C.2   328  GLN328      0.2608
    181  OE1       21.7800   32.5990   -8.1740 O.2   328  GLN328     -0.2717
    182  NE2       22.7490   31.0870   -9.5150 N.am  328  GLN328     -0.0878
    183  N         19.0940   36.6080  -13.2330 N.3   330  ALA330     -0.1231
    184  CA        19.8310   37.7910  -13.6410 C.3   330  ALA330      0.1694
    185  C         21.3300   37.5740  -13.5020 C.2   330  ALA330      0.2591
    186  O         22.1130   38.1100  -14.2940 O.2   330  ALA330     -0.2718
    187  CB        19.3750   38.9900  -12.8150 C.3   330  ALA330      0.0304
    188  N         21.7420   36.7910  -12.5070 N.am  331  ARG331     -0.1980
    189  CA        23.1530   36.4610  -12.3660 C.3   331  ARG331      0.1597
    190  C         23.6520   35.6990  -13.5810 C.2   331  ARG331      0.2287
    191  O         24.7510   35.9670  -14.0800 O.2   331  ARG331     -0.2864
    192  CB        23.3700   35.6530  -11.0910 C.3   331  ARG331      0.0334
    193  CG        24.8250   35.3770  -10.7740 C.3   331  ARG331      0.0492
    194  CD        25.1160   35.5630   -9.2840 C.3   331  ARG331      0.2205
    195  NE        26.5520   35.5580   -9.0010 N.pl3 331  ARG331     -0.0865
    196  CZ        27.3790   36.5820   -9.2320 C.cat 331  ARG331      0.5346
    197  NH1       26.9260   37.7130   -9.7580 N.pl3 331  ARG331      0.1354
    198  NH2       28.6710   36.4780   -8.9400 N.pl3 331  ARG331      0.1354
    199  N         23.8210   38.0690  -16.5390 N.3   334  ASP334     -0.1239
    200  CA        24.9530   38.9810  -16.4150 C.3   334  ASP334      0.1674
    201  C         26.2670   38.2780  -16.7310 C.2   334  ASP334      0.2266
    202  O         27.1700   38.8810  -17.3180 O.2   334  ASP334     -0.2867
    203  CB        24.9830   39.6020  -15.0140 C.3   334  ASP334      0.1410
    204  CG        23.7210   40.4100  -14.7060 C.2   334  ASP334      0.3668
    205  OD1       23.0130   40.8140  -15.6650 O.co2 334  ASP334     -0.2456
    206  OD2       23.4250   40.6240  -13.5140 O.co2 334  ASP334     -0.2456
@<TRIPOS>BOND
     1   202   201    2
     2   201   200    1
     3   199   200    1
     4   200   203    1
     5   205   204   ar
     6   203   204    1
     7   204   206   ar
     8   186   185    2
     9   191   190    2
    10   184   185    1
    11   184   183    1
    12   184   187    1
    13   190   189    1
    14   185   188   am
    15   188   189    1
    16   189   192    1
    17   177   176    2
    18   176   175    1
    19   192   193    1
    20   193   194    1
    21   169   168    2
    22   175   178    1
    23   175   174    1
    24   197   196    1
    25   179   178    1
    26   179   180    1
    27   182   180   am
    28   168   174   am
    29   168   167    1
    30   194   195    1
    31   196   195    2
    32   196   198    1
    33   180   181    2
    34   166   167    1
    35   167   170    1
    36    36    35   ar
    37    36    34   ar
    38   172   171   ar
    39   170   171    1
    40    35    33   ar
    41   171   173   ar
    42    34    32   ar
    43    33    30   ar
    44    32    30   ar
    45    32    31   ar
    46    73    72   ar
    47    73    71   ar
    48    72    70   ar
    49   157   158    1
    50    30    28   ar
    51   158   159    1
    52   158   161    1
    53    71    69   ar
    54    70    67   ar
    55    31    29   ar
    56   159   160    2
    57   165   163   am
    58    69    67   ar
    59    69    68   ar
    60   162   163    1
    61   162   161    1
    62    26    25    2
    63    67    65   ar
    64    28    29   ar
    65    28    27    1
    66   163   164    2
    67    25    24    1
    68    68    66   ar
    69    65    64    1
    70    65    66   ar
    71    27    24    1
    72    64    61    1
    73    24    23    1
    74   124   121    1
    75   124   125    1
    76   121   122    1
    77   121   120    1
    78    23    18   am
    79    63    62    2
    80    61    62    1
    81    61    60    1
    82   122   123    2
    83   119   118    2
    84   126   127    1
    85   130   127    1
    86    20    21    1
    87    20    17    1
    88   120   118   am
    89    21    22    1
    90   118   117    1
    91    18    19    2
    92    18    17    1
    93   127   128    1
    94    60    53   am
    95   117   116    1
    96    17    16    1
    97   115   113    1
    98   116   111   am
    99    22    16    1
   100    50    47    1
   101    59    57   ar
   102    53    54    2
   103    53    52    1
   104    16    10   am
   105    56    57    1
   106    56    55    1
   107   128   131   am
   108   128   129    2
   109   131   132    1
   110    57    58   ar
   111   111   112    2
   112   111   110    1
   113   113   110    1
   114   113   114    1
   115   137   135    1
   116   110   109    1
   117    51    48   am
   118    51    52    1
   119    49    48    2
   120    48    47    1
   121    52    55    1
   122    47    46    1
   123    10    11    2
   124    10     9    1
   125   147   146    1
   126   135   132    1
   127   135   136    1
   128   132   133    1
   129   107   108   ar
   130   107   105   ar
   131   108   106   ar
   132   133   134    2
   133     9    12    1
   134     9     8    1
   135    12    13    1
   136    12    14    1
   137   148   146    1
   138   146   145    2
   139   109   100   am
   140   105   103   ar
   141   106   104   ar
   142    15    13    1
   143   101   100    2
   144   100    99    1
   145   143   144    1
   146   143   142    1
   147   145   144    1
   148     8     3   am
   149   103   104   ar
   150   103   102    1
   151    74    75    1
   152   138   139    1
   153     4     3    2
   154    45    44    1
   155    75    76    1
   156     3     2    1
   157    99   102    1
   158    99    98    1
   159   142   139    1
   160     6     5    1
   161   139   140    1
   162    40    39    2
   163    44    43    1
   164   156   154    1
   165    76    77    2
   166     2     5    1
   167     2     1    1
   168    39    38    1
   169     5     7    1
   170   149   140   am
   171   149   150    1
   172   140   141    2
   173   154   153    1
   174   153   150    1
   175   153   155    1
   176    43    42    1
   177    42    41    1
   178    90    88   ar
   179   150   151    1
   180    38    41    1
   181    38    37    1
   182    88    87    1
   183    88    89   ar
   184   151   152    2
   185    87    86    1
   186    79    78    1
   187    79    80    1
   188    82    80   am
   189    82    83    1
   190    80    81    2
   191    97    95    1
   192    86    83    1
   193    83    84    1
   194    95    96    1
   195    95    92    1
   196    84    85    2
   197    92    91    1
   198    92    93    1
   199    93    94    2
