@<TRIPOS>MOLECULE
tmp/6mvuA00.pdb
 89 81 0 0 0
SMALL
GASTEIGER

@<TRIPOS>ATOM
      1  N        -24.2090    7.6380   -4.7120 N.3   147  VAL147     -0.1245
      2  CA       -23.6960    6.6350   -3.7810 C.3   147  VAL147      0.1561
      3  C        -23.8510    5.2600   -4.4250 C.2   147  VAL147      0.2260
      4  O        -24.9320    4.9300   -4.9290 O.2   147  VAL147     -0.2867
      5  CB       -24.4380    6.7060   -2.4320 C.3   147  VAL147      0.0252
      6  CG1      -23.9900    5.5850   -1.5290 C.3   147  VAL147      0.0019
      7  CG2      -24.1670    8.0520   -1.7520 C.3   147  VAL147      0.0019
      8  N        -19.5760    9.0490   -3.8850 N.3   174  LYS174     -0.1245
      9  CA       -18.8220    8.2690   -2.9070 C.3   174  LYS174      0.1561
     10  C        -18.7860    6.8090   -3.3330 C.2   174  LYS174      0.2260
     11  O        -19.8500    6.1800   -3.4540 O.2   174  LYS174     -0.2867
     12  CB       -19.4410    8.3910   -1.5150 C.3   174  LYS174      0.0271
     13  CG       -18.6050    7.7150   -0.4130 C.3   174  LYS174      0.0035
     14  CD       -19.3620    7.5940    0.9160 C.3   174  LYS174      0.0206
     15  CE       -20.2800    6.3670    0.9450 C.3   174  LYS174      0.1093
     16  NZ       -19.5070    5.0770    0.9340 N.3   174  LYS174     -0.1314
     17  N        -20.9340    4.7610    5.5410 N.3   207  GLY207     -0.1225
     18  CA       -22.3190    5.1580    5.3220 C.3   207  GLY207      0.1811
     19  C        -22.6590    6.5270    5.8760 C.2   207  GLY207      0.2280
     20  O        -23.5600    7.1980    5.3630 O.2   207  GLY207     -0.2866
     21  N        -21.9850    8.7960    3.1390 N.3   210  GLY210     -0.1210
     22  CA       -23.0800    8.6770    2.1870 C.3   210  GLY210      0.1956
     23  C        -24.2940    9.4800    2.6100 C.2   210  GLY210      0.2611
     24  O        -24.9250   10.1540    1.7910 O.2   210  GLY210     -0.2717
     25  N        -24.6300    9.4330    3.9000 N.am  211  GLU211     -0.1979
     26  CA       -25.7660   10.2050    4.3900 C.3   211  GLU211      0.1602
     27  C        -25.5060   11.7040    4.2970 C.2   211  GLU211      0.2287
     28  O        -26.4230   12.4750    3.9850 O.2   211  GLU211     -0.2864
     29  CB       -26.1180    9.7880    5.8180 C.3   211  GLU211      0.0415
     30  CG       -27.2590   10.6010    6.3960 C.3   211  GLU211      0.1163
     31  CD       -27.8810    9.9510    7.6070 C.2   211  GLU211      0.3649
     32  OE1      -27.6400    8.7440    7.8250 O.co2 211  GLU211     -0.2457
     33  OE2      -28.6110   10.6490    8.3390 O.co2 211  GLU211     -0.2457
     34  N        -26.2330   12.6010    0.7010 N.3   214  VAL214     -0.1231
     35  CA       -27.6550   12.5400    0.3690 C.3   214  VAL214      0.1692
     36  C        -28.4030   13.7570    0.9120 C.2   214  VAL214      0.2592
     37  O        -29.3270   14.2750    0.2670 O.2   214  VAL214     -0.2718
     38  CB       -28.2570   11.2100    0.8620 C.3   214  VAL214      0.0266
     39  CG1      -29.7750   11.2730    0.8580 C.3   214  VAL214      0.0020
     40  CG2      -27.7720   10.0610   -0.0050 C.3   214  VAL214      0.0020
     41  N        -28.0180   14.2320    2.0990 N.am  215  THR215     -0.1953
     42  CA       -28.6840   15.3510    2.7630 C.3   215  THR215      0.1897
     43  C        -28.0440   16.7050    2.4570 C.2   215  THR215      0.2313
     44  O        -28.4610   17.7170    3.0350 O.2   215  THR215     -0.2863
     45  CB       -28.7720   15.1200    4.2860 C.3   215  THR215      0.1794
     46  OG1      -27.4610   15.0080    4.8510 O.3   215  THR215     -0.2208
     47  CG2      -29.5570   13.8500    4.5970 C.3   215  THR215      0.0378
     48  N        -28.8290    6.5300   -6.0230 N.3   223  PHE223     -0.1241
     49  CA       -28.2830    5.5230   -5.1240 C.3   223  PHE223      0.1605
     50  C        -28.5540    4.1330   -5.6800 C.2   223  PHE223      0.2264
     51  O        -29.6510    3.8420   -6.1640 O.2   223  PHE223     -0.2867
     52  CB       -28.9450    5.6570   -3.7450 C.3   223  PHE223      0.0534
     53  CG       -28.6680    4.5100   -2.8090 C.ar  223  PHE223     -0.0203
     54  CD1      -27.4920    4.4630   -2.0730 C.ar  223  PHE223     -0.0042
     55  CD2      -29.6100    3.5100   -2.6240 C.ar  223  PHE223     -0.0042
     56  CE1      -27.2520    3.4140   -1.1790 C.ar  223  PHE223     -0.0003
     57  CE2      -29.3750    2.4610   -1.7390 C.ar  223  PHE223     -0.0003
     58  CZ       -28.2010    2.4110   -1.0230 C.ar  223  PHE223     -0.0000
     59  N        -31.4910    0.7200    2.9410 N.3   229  VAL229     -0.1245
     60  CA       -30.8760    2.0410    2.8710 C.3   229  VAL229      0.1561
     61  C        -31.6680    2.9510    1.9400 C.2   229  VAL229      0.2260
     62  O        -31.8130    4.1480    2.2020 O.2   229  VAL229     -0.2867
     63  CB       -29.3880    1.9300    2.4860 C.3   229  VAL229      0.0252
     64  CG1      -28.7820    3.3190    2.2480 C.3   229  VAL229      0.0019
     65  CG2      -28.6310    1.2130    3.5910 C.3   229  VAL229      0.0019
     66  N        -34.3180    4.6140    3.9280 N.3   232  ARG232     -0.1231
     67  CA       -33.7770    5.6980    4.7390 C.3   232  ARG232      0.1694
     68  C        -33.4650    6.9220    3.8880 C.2   232  ARG232      0.2591
     69  O        -33.6630    8.0580    4.3350 O.2   232  ARG232     -0.2718
     70  CB       -32.5310    5.2240    5.4840 C.3   232  ARG232      0.0321
     71  CG       -32.8310    4.1780    6.5480 C.3   232  ARG232      0.0489
     72  CD       -31.5690    3.4360    6.9670 C.3   232  ARG232      0.2205
     73  NE       -30.5730    4.3150    7.5770 N.pl3 232  ARG232     -0.0865
     74  CZ       -29.3440    3.9280    7.9080 C.cat 232  ARG232      0.5346
     75  NH1      -28.9600    2.6800    7.6820 N.pl3 232  ARG232      0.1354
     76  NH2      -28.4980    4.7870    8.4600 N.pl3 232  ARG232      0.1354
     77  N        -32.9870    6.7120    2.6590 N.am  233  ILE233     -0.1980
     78  CA       -32.6930    7.8310    1.7670 C.3   233  ILE233      0.1595
     79  C        -33.9780    8.5330    1.3410 C.2   233  ILE233      0.2287
     80  O        -34.0330    9.7700    1.2890 O.2   233  ILE233     -0.2864
     81  CB       -31.8340    7.3650    0.5740 C.3   233  ILE233      0.0276
     82  CG1      -30.4140    7.0400    1.0670 C.3   233  ILE233      0.0022
     83  CG2      -31.7870    8.4410   -0.5310 C.3   233  ILE233      0.0022
     84  CD1      -29.5190    6.3650    0.0320 C.3   233  ILE233      0.0001
     85  N        -34.9180   10.6100    4.3190 N.3   236  ALA236     -0.1245
     86  CA       -34.0080   11.7160    4.5860 C.3   236  ALA236      0.1562
     87  C        -34.0970   12.8140    3.5350 C.2   236  ALA236      0.2260
     88  O        -33.6500   13.9360    3.7940 O.2   236  ALA236     -0.2867
     89  CB       -32.5740   11.1960    4.6810 C.3   236  ALA236      0.0290
@<TRIPOS>BOND
     1    51    50    2
     2    48    49    1
     3    50    49    1
     4    49    52    1
     5     4     3    2
     6     1     2    1
     7     3     2    1
     8     8     9    1
     9     2     5    1
    10    52    53    1
    11    11    10    2
    12    10     9    1
    13     9    12    1
    14    53    55   ar
    15    53    54   ar
    16    55    57   ar
    17     5     7    1
    18     5     6    1
    19    54    56   ar
    20    57    58   ar
    21    12    13    1
    22    56    58   ar
    23    83    81    1
    24    13    14    1
    25    40    38    1
    26    84    82    1
    27    37    36    2
    28    35    34    1
    29    35    38    1
    30    35    36    1
    31    81    82    1
    32    81    78    1
    33    39    38    1
    34    36    41   am
    35    14    15    1
    36    16    15    1
    37    80    79    2
    38    79    78    1
    39    78    77    1
    40    24    23    2
    41    61    62    2
    42    61    60    1
    43    41    42    1
    44    22    23    1
    45    22    21    1
    46    64    63    1
    47    43    42    1
    48    43    44    2
    49    63    60    1
    50    63    65    1
    51    23    25   am
    52    77    68   am
    53    42    45    1
    54    60    59    1
    55    87    88    2
    56    87    86    1
    57    68    69    2
    58    68    67    1
    59    25    26    1
    60    66    67    1
    61    28    27    2
    62    45    47    1
    63    45    46    1
    64    27    26    1
    65    85    86    1
    66    26    29    1
    67    86    89    1
    68    67    70    1
    69    18    17    1
    70    18    19    1
    71    20    19    2
    72    70    71    1
    73    29    30    1
    74    30    31    1
    75    71    72    1
    76    72    73    1
    77    73    74    2
    78    31    32   ar
    79    31    33   ar
    80    75    74    1
    81    74    76    1
