@<TRIPOS>MOLECULE
tmp/6mvvD01.pdb
 113 109 0 0 0
SMALL
GASTEIGER

@<TRIPOS>ATOM
      1  N        143.2020   23.5660   31.1110 N.3   134  ILE134     -0.1245
      2  CA       143.7030   24.0870   29.8430 C.3   134  ILE134      0.1561
      3  C        144.5670   23.0410   29.1650 C.2   134  ILE134      0.2260
      4  O        144.4980   22.8440   27.9460 O.2   134  ILE134     -0.2867
      5  CB       144.4880   25.3920   30.0710 C.3   134  ILE134      0.0252
      6  CG1      143.5660   26.5170   30.5350 C.3   134  ILE134      0.0019
      7  CG2      145.2200   25.7980   28.8100 C.3   134  ILE134      0.0019
      8  CD1      144.3190   27.7790   30.9210 C.3   134  ILE134      0.0001
      9  N        142.4060   20.2430   27.8480 N.3   137  MET137     -0.1230
     10  CA       141.8110   20.7680   26.6260 C.3   137  MET137      0.1702
     11  C        142.7790   20.6310   25.4650 C.2   137  MET137      0.2593
     12  O        142.4270   20.1040   24.4030 O.2   137  MET137     -0.2718
     13  CB       141.4460   22.2330   26.8160 C.3   137  MET137      0.0401
     14  CG       140.3130   22.6760   25.9460 C.3   137  MET137      0.0596
     15  SD       138.7860   21.9510   26.5370 S.3   137  MET137     -0.1393
     16  CE       138.0190   23.4340   27.1760 C.3   137  MET137      0.0692
     17  N        144.0160   21.0850   25.6660 N.am  138  THR138     -0.1953
     18  CA       145.0550   20.9310   24.6570 C.3   138  THR138      0.1897
     19  C        145.2970   19.4640   24.3210 C.2   138  THR138      0.2313
     20  O        145.4360   19.1020   23.1460 O.2   138  THR138     -0.2863
     21  CB       146.3300   21.6100   25.1450 C.3   138  THR138      0.1794
     22  OG1      146.1300   23.0310   25.1340 O.3   138  THR138     -0.2208
     23  CG2      147.5310   21.2270   24.2900 C.3   138  THR138      0.0378
     24  N        142.1760   18.2430   22.2020 N.3   141  PHE141     -0.1241
     25  CA       142.2770   18.7130   20.8260 C.3   141  PHE141      0.1605
     26  C        143.2320   17.8630   19.9910 C.2   141  PHE141      0.2264
     27  O        142.8600   17.3510   18.9280 O.2   141  PHE141     -0.2867
     28  CB       142.7450   20.1620   20.8440 C.3   141  PHE141      0.0534
     29  CG       141.6350   21.1510   20.9310 C.ar  141  PHE141     -0.0203
     30  CD1      140.7170   21.0810   21.9630 C.ar  141  PHE141     -0.0042
     31  CD2      141.5150   22.1650   20.0060 C.ar  141  PHE141     -0.0042
     32  CE1      139.6880   21.9950   22.0590 C.ar  141  PHE141     -0.0003
     33  CE2      140.4880   23.0830   20.0990 C.ar  141  PHE141     -0.0003
     34  CZ       139.5740   22.9960   21.1270 C.ar  141  PHE141     -0.0000
     35  N        140.6530   21.7360    3.0600 N.3   158  GLU158     -0.1245
     36  CA       140.6660   23.0870    3.5900 C.3   158  GLU158      0.1567
     37  C        140.4400   23.0720    5.0890 C.2   158  GLU158      0.2260
     38  O        141.0760   23.8270    5.8310 O.2   158  GLU158     -0.2867
     39  CB       139.5910   23.9090    2.8800 C.3   158  GLU158      0.0388
     40  CG       139.5380   25.3600    3.2660 C.3   158  GLU158      0.1160
     41  CD       138.3130   26.0500    2.7180 C.2   158  GLU158      0.3649
     42  OE1      137.7060   25.5220    1.7600 O.co2 158  GLU158     -0.2457
     43  OE2      137.9410   27.1080    3.2680 O.co2 158  GLU158     -0.2457
     44  N        145.2890   18.8860    7.1070 N.3   162  THR162     -0.1203
     45  CA       146.5600   18.8920    7.8150 C.3   162  THR162      0.1994
     46  C        146.2380   19.0160    9.2950 C.2   162  THR162      0.2618
     47  O        145.2420   19.6380    9.6750 O.2   162  THR162     -0.2717
     48  CB       147.5090   20.0000    7.3190 C.3   162  THR162      0.1784
     49  OG1      148.8380   19.4780    7.2340 O.3   162  THR162     -0.2211
     50  CG2      147.5290   21.2000    8.2430 C.3   162  THR162      0.0376
     51  N        147.0650   18.3790   10.1250 N.am  163  LEU163     -0.1965
     52  CA       146.8950   18.4800   11.5700 C.3   163  LEU163      0.1728
     53  C        146.6900   19.9260   12.0090 C.2   163  LEU163      0.2617
     54  O        145.8960   20.2020   12.9160 O.2   163  LEU163     -0.2715
     55  CB       148.1060   17.8700   12.2750 C.3   163  LEU163      0.0311
     56  CG       148.0960   17.7430   13.7990 C.3   163  LEU163      0.0022
     57  CD1      146.9690   16.8500   14.2300 C.3   163  LEU163      0.0001
     58  CD2      149.4270   17.2190   14.3090 C.3   163  LEU163      0.0001
     59  N        147.3820   20.8650   11.3680 N.am  164  GLY164     -0.1940
     60  CA       147.1670   22.2610   11.6950 C.3   164  GLY164      0.2014
     61  C        145.7750   22.7430   11.3300 C.2   164  GLY164      0.2638
     62  O        145.1120   23.4130   12.1250 O.2   164  GLY164     -0.2714
     63  N        145.3060   22.3990   10.1280 N.am  165  GLU165     -0.1977
     64  CA       143.9900   22.8650    9.7040 C.3   165  GLU165      0.1602
     65  C        142.8680   22.1750   10.4620 C.2   165  GLU165      0.2287
     66  O        141.8180   22.7830   10.6980 O.2   165  GLU165     -0.2864
     67  CB       143.8150   22.6720    8.2000 C.3   165  GLU165      0.0415
     68  CG       144.4860   23.7570    7.3930 C.3   165  GLU165      0.1163
     69  CD       144.8550   23.2980    6.0090 C.2   165  GLU165      0.3649
     70  OE1      144.6770   22.0970    5.7160 O.co2 165  GLU165     -0.2457
     71  OE2      145.3320   24.1380    5.2170 O.co2 165  GLU165     -0.2457
     72  N        143.1580   21.3050   13.6320 N.3   167  PHE167     -0.1227
     73  CA       143.2050   22.0670   14.8730 C.3   167  PHE167      0.1736
     74  C        142.4300   23.3690   14.7490 C.2   167  PHE167      0.2595
     75  O        141.6930   23.7530   15.6650 O.2   167  PHE167     -0.2718
     76  CB       144.6560   22.3660   15.2280 C.3   167  PHE167      0.0547
     77  CG       145.1510   21.6340   16.4200 C.ar  167  PHE167     -0.0202
     78  CD1      144.6540   21.9220   17.6780 C.ar  167  PHE167     -0.0042
     79  CD2      146.1360   20.6750   16.2950 C.ar  167  PHE167     -0.0042
     80  CE1      145.1240   21.2510   18.7900 C.ar  167  PHE167     -0.0003
     81  CE2      146.6050   19.9970   17.4030 C.ar  167  PHE167     -0.0003
     82  CZ       146.0980   20.2870   18.6510 C.ar  167  PHE167     -0.0000
     83  N        142.6140   24.0750   13.6300 N.am  168  TYR168     -0.1976
     84  CA       141.8530   25.2910   13.3630 C.3   168  TYR168      0.1639
     85  C        140.3600   25.0080   13.3140 C.2   168  TYR168      0.2290
     86  O        139.5620   25.6840   13.9750 O.2   168  TYR168     -0.2864
     87  CB       142.3150   25.9260   12.0510 C.3   168  TYR168      0.0560
     88  CG       141.5190   27.1600   11.7120 C.ar  168  TYR168     -0.0198
     89  CD1      141.7480   28.3620   12.3660 C.ar  168  TYR168     -0.0009
     90  CD2      140.5120   27.1150   10.7580 C.ar  168  TYR168     -0.0009
     91  CE1      141.0000   29.4900   12.0720 C.ar  168  TYR168      0.0417
     92  CE2      139.7620   28.2330   10.4600 C.ar  168  TYR168      0.0417
     93  CZ       140.0090   29.4170   11.1190 C.ar  168  TYR168      0.1957
     94  OH       139.2570   30.5280   10.8180 O.3   168  TYR168     -0.2866
     95  N        138.8580   24.2460   16.8230 N.3   171  PHE171     -0.1241
     96  CA       138.5770   25.4470   17.5920 C.3   171  PHE171      0.1605
     97  C        137.3030   26.1120   17.0990 C.2   171  PHE171      0.2264
     98  O        136.4490   26.5060   17.9010 O.2   171  PHE171     -0.2867
     99  CB       139.7520   26.4140   17.5190 C.3   171  PHE171      0.0534
    100  CG       139.5550   27.6460   18.3460 C.ar  171  PHE171     -0.0203
    101  CD1      139.7390   27.6200   19.7130 C.ar  171  PHE171     -0.0042
    102  CD2      139.1590   28.8320   17.7540 C.ar  171  PHE171     -0.0042
    103  CE1      139.5440   28.7620   20.4710 C.ar  171  PHE171     -0.0003
    104  CE2      138.9620   29.9700   18.5080 C.ar  171  PHE171     -0.0003
    105  CZ       139.1580   29.9370   19.8640 C.ar  171  PHE171     -0.0000
    106  N        134.4690   24.4120   18.3360 N.3   174  MET174     -0.1245
    107  CA       134.3680   24.6960   19.7680 C.3   174  MET174      0.1570
    108  C        133.6470   26.0170   20.0180 C.2   174  MET174      0.2261
    109  O        132.7520   26.0990   20.8640 O.2   174  MET174     -0.2867
    110  CB       135.7500   24.7020   20.4190 C.3   174  MET174      0.0387
    111  CG       135.7500   25.3330   21.8170 C.3   174  MET174      0.0595
    112  SD       137.1940   24.9370   22.8230 S.3   174  MET174     -0.1393
    113  CE       138.2210   26.3670   22.5660 C.3   174  MET174      0.0692
@<TRIPOS>BOND
     1    42    41   ar
     2    41    40    1
     3    41    43   ar
     4    39    40    1
     5    39    36    1
     6    35    36    1
     7    36    37    1
     8    37    38    2
     9    71    69   ar
    10    70    69   ar
    11    69    68    1
    12    44    45    1
    13    49    48    1
    14    48    45    1
    15    48    50    1
    16    68    67    1
    17    45    46    1
    18    67    64    1
    19    46    47    2
    20    46    51   am
    21    64    63    1
    22    64    65    1
    23    51    52    1
    24    63    61   am
    25    92    90   ar
    26    92    93   ar
    27    65    66    2
    28    90    88   ar
    29    94    93    1
    30    93    91   ar
    31    61    60    1
    32    61    62    2
    33    59    60    1
    34    59    53   am
    35    52    53    1
    36    52    55    1
    37    88    87    1
    38    88    89   ar
    39    53    54    2
    40    87    84    1
    41    91    89   ar
    42    55    56    1
    43    85    84    1
    44    85    86    2
    45    84    83    1
    46    83    74   am
    47    72    73    1
    48    56    57    1
    49    56    58    1
    50    74    73    1
    51    74    75    2
    52    73    76    1
    53    76    77    1
    54    79    77   ar
    55    79    81   ar
    56    77    78   ar
    57    95    96    1
    58    97    96    1
    59    97    98    2
    60    81    82   ar
    61    99    96    1
    62    99   100    1
    63    78    80   ar
    64   102   100   ar
    65   102   104   ar
    66   106   107    1
    67   100   101   ar
    68   104   105   ar
    69    82    80   ar
    70    27    26    2
    71   101   103   ar
    72   107   108    1
    73   107   110    1
    74   105   103   ar
    75    26    25    1
    76    31    33   ar
    77    31    29   ar
    78   108   109    2
    79    33    34   ar
    80   110   111    1
    81    25    28    1
    82    25    24    1
    83    28    29    1
    84    29    30   ar
    85    34    32   ar
    86   111   112    1
    87    30    32   ar
    88   113   112    1
    89    20    19    2
    90    23    21    1
    91    19    18    1
    92    12    11    2
    93    18    21    1
    94    18    17    1
    95    22    21    1
    96    11    17   am
    97    11    10    1
    98    14    15    1
    99    14    13    1
   100    15    16    1
   101    10    13    1
   102    10     9    1
   103     4     3    2
   104     7     5    1
   105     3     2    1
   106     2     5    1
   107     2     1    1
   108     5     6    1
   109     6     8    1
