@<TRIPOS>MOLECULE
tmp/6mvvC01.pdb
 135 128 0 0 0
SMALL
GASTEIGER

@<TRIPOS>ATOM
      1  N        118.5330   16.2650   34.7170 N.3   132  VAL132     -0.1231
      2  CA       118.2100   17.2380   33.6800 C.3   132  VAL132      0.1692
      3  C        118.5450   16.7150   32.2910 C.2   132  VAL132      0.2591
      4  O        117.8130   16.9860   31.3360 O.2   132  VAL132     -0.2718
      5  CB       118.9140   18.5750   33.9540 C.3   132  VAL132      0.0266
      6  CG1      118.1610   19.6770   33.2630 C.3   132  VAL132      0.0020
      7  CG2      118.9840   18.8350   35.4430 C.3   132  VAL132      0.0020
      8  N        119.6620   15.9970   32.1340 N.am  133  ILE133     -0.1980
      9  CA       119.9480   15.3920   30.8350 C.3   133  ILE133      0.1595
     10  C        118.7710   14.5470   30.3940 C.2   133  ILE133      0.2287
     11  O        118.4070   14.5250   29.2140 O.2   133  ILE133     -0.2864
     12  CB       121.2480   14.5700   30.8830 C.3   133  ILE133      0.0276
     13  CG1      122.4560   15.4940   31.0330 C.3   133  ILE133      0.0022
     14  CG2      121.3760   13.6740   29.6540 C.3   133  ILE133      0.0022
     15  CD1      123.7670   14.7580   31.2310 C.3   133  ILE133      0.0001
     16  N        115.6730   17.0100   29.5660 N.3   136  MET136     -0.1230
     17  CA       116.0010   17.6020   28.2750 C.3   136  MET136      0.1702
     18  C        115.8860   16.5760   27.1630 C.2   136  MET136      0.2593
     19  O        115.2820   16.8420   26.1210 O.2   136  MET136     -0.2718
     20  CB       117.4030   18.1970   28.2910 C.3   136  MET136      0.0401
     21  CG       117.5600   19.2630   27.2370 C.3   136  MET136      0.0596
     22  SD       116.6740   20.7820   27.5910 S.3   136  MET136     -0.1393
     23  CE       118.0750   21.8660   27.8340 C.3   136  MET136      0.0692
     24  N        116.4590   15.3900   27.3730 N.am  137  THR137     -0.1953
     25  CA       116.3680   14.3400   26.3670 C.3   137  THR137      0.1897
     26  C        114.9150   14.0480   26.0230 C.2   137  THR137      0.2313
     27  O        114.5600   13.9220   24.8450 O.2   137  THR137     -0.2863
     28  CB       117.0720   13.0840   26.8690 C.3   137  THR137      0.1794
     29  OG1      118.4770   13.3390   26.9550 O.3   137  THR137     -0.2208
     30  CG2      116.8380   11.9230   25.9370 C.3   137  THR137      0.0378
     31  N        113.6900   17.1360   24.0010 N.3   140  PHE140     -0.1241
     32  CA       114.0370   16.9220   22.6020 C.3   140  PHE140      0.1605
     33  C        113.1070   15.9140   21.9410 C.2   140  PHE140      0.2264
     34  O        112.5020   16.2040   20.9060 O.2   140  PHE140     -0.2867
     35  CB       115.4950   16.4770   22.4850 C.3   140  PHE140      0.0534
     36  CG       116.4450   17.5940   22.1530 C.ar  140  PHE140     -0.0203
     37  CD1      116.4910   18.7480   22.9150 C.ar  140  PHE140     -0.0042
     38  CD2      117.3010   17.4800   21.0710 C.ar  140  PHE140     -0.0042
     39  CE1      117.3650   19.7690   22.5920 C.ar  140  PHE140     -0.0003
     40  CE2      118.1780   18.4940   20.7500 C.ar  140  PHE140     -0.0003
     41  CZ       118.2110   19.6370   21.5110 C.ar  140  PHE140     -0.0000
     42  N        115.9270   17.3560    4.6450 N.3   157  GLU157     -0.1245
     43  CA       117.2240   17.1520    5.2900 C.3   157  GLU157      0.1567
     44  C        117.1790   17.5360    6.7590 C.2   157  GLU157      0.2260
     45  O        117.8040   16.8820    7.5990 O.2   157  GLU157     -0.2867
     46  CB       118.3480   17.9280    4.6150 C.3   157  GLU157      0.0388
     47  CG       119.6840   17.5290    5.2670 C.3   157  GLU157      0.1160
     48  CD       120.8580   18.4280    4.9530 C.2   157  GLU157      0.3649
     49  OE1      120.7930   19.2160    3.9800 O.co2 157  GLU157     -0.2457
     50  OE2      121.8560   18.3250    5.7050 O.co2 157  GLU157     -0.2457
     51  N        113.2100   13.3880    9.2040 N.3   161  THR161     -0.1218
     52  CA       113.4740   12.1750    9.9490 C.3   161  THR161      0.1862
     53  C        113.5690   12.5670   11.4060 C.2   161  THR161      0.2287
     54  O        114.0940   13.6350   11.7280 O.2   161  THR161     -0.2866
     55  CB       114.8040   11.5470    9.5160 C.3   161  THR161      0.1770
     56  OG1      114.7520   11.2150    8.1260 O.3   161  THR161     -0.2211
     57  CG2      115.0900   10.2840   10.3000 C.3   161  THR161      0.0375
     58  N        115.6150   11.3310   13.2490 N.3   163  GLY163     -0.1210
     59  CA       117.0540   11.4880   13.3740 C.3   163  GLY163      0.1956
     60  C        117.5500   12.8300   12.8710 C.2   163  GLY163      0.2611
     61  O        118.3870   13.4700   13.5130 O.2   163  GLY163     -0.2717
     62  N        117.0600   13.2680   11.7090 N.am  164  GLU164     -0.1979
     63  CA       117.4940   14.5570   11.1860 C.3   164  GLU164      0.1602
     64  C        116.9460   15.7010   12.0150 C.2   164  GLU164      0.2287
     65  O        117.5470   16.7800   12.0490 O.2   164  GLU164     -0.2864
     66  CB       117.1020   14.7060    9.7180 C.3   164  GLU164      0.0415
     67  CG       118.0760   14.0370    8.7670 C.3   164  GLU164      0.1163
     68  CD       117.4530   13.6310    7.4600 C.2   164  GLU164      0.3649
     69  OE1      118.2040   13.2160    6.5550 O.co2 164  GLU164     -0.2457
     70  OE2      116.2180   13.7430    7.3290 O.co2 164  GLU164     -0.2457
     71  N        116.5640   15.5100   15.3930 N.3   166  PHE166     -0.1227
     72  CA       117.4420   15.5570   16.5580 C.3   166  PHE166      0.1736
     73  C        118.7140   16.3340   16.2560 C.2   166  PHE166      0.2595
     74  O        119.1230   17.2060   17.0300 O.2   166  PHE166     -0.2718
     75  CB       117.7820   14.1400   17.0070 C.3   166  PHE166      0.0547
     76  CG       117.2140   13.7830   18.3350 C.ar  166  PHE166     -0.0202
     77  CD1      117.7550   14.3090   19.4970 C.ar  166  PHE166     -0.0042
     78  CD2      116.1390   12.9220   18.4300 C.ar  166  PHE166     -0.0042
     79  CE1      117.2350   13.9790   20.7320 C.ar  166  PHE166     -0.0003
     80  CE2      115.6100   12.5870   19.6580 C.ar  166  PHE166     -0.0003
     81  CZ       116.1580   13.1170   20.8140 C.ar  166  PHE166     -0.0000
     82  N        119.3400   16.0430   15.1170 N.am  167  TYR167     -0.1976
     83  CA       120.4950   16.8180   14.6910 C.3   167  TYR167      0.1639
     84  C        120.1290   18.2880   14.5410 C.2   167  TYR167      0.2290
     85  O        120.7710   19.1670   15.1240 O.2   167  TYR167     -0.2864
     86  CB       121.0460   16.2510   13.3820 C.3   167  TYR167      0.0560
     87  CG       122.1990   17.0510   12.8400 C.ar  167  TYR167     -0.0198
     88  CD1      121.9680   18.1620   12.0410 C.ar  167  TYR167     -0.0009
     89  CD2      123.5070   16.7190   13.1260 C.ar  167  TYR167     -0.0009
     90  CE1      122.9920   18.9110   11.5510 C.ar  167  TYR167      0.0417
     91  CE2      124.5480   17.4710   12.6270 C.ar  167  TYR167      0.0417
     92  CZ       124.2750   18.5680   11.8410 C.ar  167  TYR167      0.1957
     93  OH       125.2800   19.3420   11.3300 O.3   167  TYR167     -0.2866
     94  N        119.5860   19.8250   17.9290 N.3   170  PHE170     -0.1241
     95  CA       120.8520   20.1110   18.5910 C.3   170  PHE170      0.1605
     96  C        121.4560   21.3990   18.0460 C.2   170  PHE170      0.2264
     97  O        121.9590   22.2330   18.8090 O.2   170  PHE170     -0.2867
     98  CB       121.8170   18.9400   18.4110 C.3   170  PHE170      0.0534
     99  CG       123.0990   19.0760   19.1960 C.ar  170  PHE170     -0.0203
    100  CD1      124.1280   19.8950   18.7580 C.ar  170  PHE170     -0.0042
    101  CD2      123.2770   18.3700   20.3730 C.ar  170  PHE170     -0.0042
    102  CE1      125.3030   20.0110   19.4870 C.ar  170  PHE170     -0.0003
    103  CE2      124.4500   18.4760   21.1000 C.ar  170  PHE170     -0.0003
    104  CZ       125.4610   19.2970   20.6570 C.ar  170  PHE170     -0.0000
    105  N        119.5790   24.3230   19.2650 N.3   173  MET173     -0.1245
    106  CA       119.9390   24.5060   20.6730 C.3   173  MET173      0.1570
    107  C        121.2250   25.3100   20.8200 C.2   173  MET173      0.2261
    108  O        121.2700   26.2950   21.5630 O.2   173  MET173     -0.2867
    109  CB       120.0570   23.1460   21.3690 C.3   173  MET173      0.0387
    110  CG       120.8580   23.1660   22.6730 C.3   173  MET173      0.0595
    111  SD       120.5520   21.7530   23.7710 S.3   173  MET173     -0.1393
    112  CE       121.8300   20.6010   23.2970 C.3   173  MET173      0.0692
    113  N        116.8640   26.0450   30.6840 N.3   207  VAL207     -0.1231
    114  CA       117.3460   24.8390   31.3380 C.3   207  VAL207      0.1692
    115  C        118.8670   24.8260   31.3710 C.2   207  VAL207      0.2591
    116  O        119.4790   24.6360   32.4270 O.2   207  VAL207     -0.2718
    117  CB       116.7850   23.5990   30.6280 C.3   207  VAL207      0.0266
    118  CG1      117.3700   22.3660   31.2270 C.3   207  VAL207      0.0020
    119  CG2      115.2770   23.5750   30.7270 C.3   207  VAL207      0.0020
    120  N        119.5030   25.0350   30.2140 N.am  208  MET208     -0.1979
    121  CA       120.9580   25.1160   30.1700 C.3   208  MET208      0.1605
    122  C        121.5020   26.2170   31.0630 C.2   208  MET208      0.2287
    123  O        122.6730   26.1610   31.4500 O.2   208  MET208     -0.2864
    124  CB       121.4390   25.3360   28.7410 C.3   208  MET208      0.0413
    125  CG       121.0790   24.2090   27.8340 C.3   208  MET208      0.0598
    126  SD       121.5600   22.6780   28.6310 S.3   208  MET208     -0.1393
    127  CE       123.3430   22.8050   28.5380 C.3   208  MET208      0.0692
    128  N        121.3890   24.5040   34.7820 N.3   211  LEU211     -0.1245
    129  CA       122.4080   23.4760   34.9610 C.3   211  LEU211      0.1561
    130  C        123.7080   24.0630   35.4970 C.2   211  LEU211      0.2260
    131  O        124.3880   23.4400   36.3170 O.2   211  LEU211     -0.2867
    132  CB       122.6360   22.7470   33.6370 C.3   211  LEU211      0.0270
    133  CG       123.6870   21.6400   33.5580 C.3   211  LEU211      0.0019
    134  CD1      123.2350   20.5790   32.5760 C.3   211  LEU211      0.0001
    135  CD2      125.0290   22.2020   33.1220 C.3   211  LEU211      0.0001
@<TRIPOS>BOND
     1    49    48   ar
     2    46    47    1
     3    46    43    1
     4    42    43    1
     5    48    47    1
     6    48    50   ar
     7    43    44    1
     8    69    68   ar
     9    44    45    2
    10    70    68   ar
    11    68    67    1
    12    56    55    1
    13    67    66    1
    14    51    52    1
    15    55    52    1
    16    55    57    1
    17    66    63    1
    18    52    53    1
    19    63    62    1
    20    63    64    1
    21    93    92    1
    22    53    54    2
    23    90    92   ar
    24    90    88   ar
    25    62    60   am
    26    92    91   ar
    27    64    65    2
    28    88    87   ar
    29    91    89   ar
    30    87    89   ar
    31    87    86    1
    32    60    59    1
    33    60    61    2
    34    58    59    1
    35    86    83    1
    36    84    83    1
    37    84    85    2
    38    83    82    1
    39    82    73   am
    40    71    72    1
    41    73    72    1
    42    73    74    2
    43    72    75    1
    44    75    76    1
    45    94    95    1
    46    96    95    1
    47    96    97    2
    48    76    78   ar
    49    76    77   ar
    50    98    95    1
    51    98    99    1
    52    78    80   ar
    53   100    99   ar
    54   100   102   ar
    55    99   101   ar
    56   105   106    1
    57   102   104   ar
    58    77    79   ar
    59    80    81   ar
    60   101   103   ar
    61   104   103   ar
    62   106   107    1
    63   106   109    1
    64    79    81   ar
    65    40    38   ar
    66    40    41   ar
    67   107   108    2
    68    34    33    2
    69    38    36   ar
    70   109   110    1
    71    41    39   ar
    72    33    32    1
    73    36    35    1
    74    36    37   ar
    75    35    32    1
    76    39    37   ar
    77    32    31    1
    78   110   111    1
    79   112   111    1
    80    27    26    2
    81    30    28    1
    82    26    25    1
    83    19    18    2
    84    25    28    1
    85    25    24    1
    86    28    29    1
    87    18    24   am
    88    18    17    1
    89    21    22    1
    90    21    20    1
    91    22    23    1
    92   125   126    1
    93   125   124    1
    94    17    20    1
    95    17    16    1
    96   127   126    1
    97   124   121    1
    98    11    10    2
    99    14    12    1
   100   121   120    1
   101   121   122    1
   102   120   115   am
   103    10     9    1
   104   117   119    1
   105   117   118    1
   106   117   114    1
   107   113   114    1
   108     9    12    1
   109     9     8    1
   110    12    13    1
   111    13    15    1
   112   122   123    2
   113     4     3    2
   114   114   115    1
   115   115   116    2
   116     8     3   am
   117     3     2    1
   118   134   133    1
   119   135   133    1
   120     6     5    1
   121   133   132    1
   122   132   129    1
   123     2     5    1
   124     2     1    1
   125     5     7    1
   126   128   129    1
   127   129   130    1
   128   130   131    2
