@<TRIPOS>MOLECULE
tmp/6mvvC02.pdb
 100 101 0 0 0
SMALL
GASTEIGER

@<TRIPOS>ATOM
      1  N        105.7010   18.0510   11.0830 N.3   150  LEU150     -0.1231
      2  CA       105.2650   19.3740   10.6620 C.3   150  LEU150      0.1693
      3  C        106.0790   19.9060    9.5060 C.2   150  LEU150      0.2592
      4  O        105.5160   20.4690    8.5680 O.2   150  LEU150     -0.2718
      5  CB       105.3530   20.3680   11.8200 C.3   150  LEU150      0.0284
      6  CG       104.2880   20.3990   12.9120 C.3   150  LEU150      0.0019
      7  CD1      104.7450   21.3090   14.0520 C.3   150  LEU150      0.0001
      8  CD2      102.9650   20.8710   12.3530 C.3   150  LEU150      0.0001
      9  N        107.3960   19.7140    9.5500 N.am  151  PHE151     -0.1976
     10  CA       108.3140   20.3240    8.6060 C.3   151  PHE151      0.1639
     11  C        109.0700   19.3060    7.7710 C.2   151  PHE151      0.2290
     12  O        109.6850   19.6910    6.7720 O.2   151  PHE151     -0.2864
     13  CB       109.3170   21.2240    9.3440 C.3   151  PHE151      0.0560
     14  CG       108.6760   22.1230   10.3670 C.ar  151  PHE151     -0.0200
     15  CD1      107.7880   23.1060    9.9860 C.ar  151  PHE151     -0.0042
     16  CD2      108.9780   22.0000   11.7080 C.ar  151  PHE151     -0.0042
     17  CE1      107.1980   23.9260   10.9150 C.ar  151  PHE151     -0.0003
     18  CE2      108.3950   22.8350   12.6450 C.ar  151  PHE151     -0.0003
     19  CZ       107.5040   23.7920   12.2460 C.ar  151  PHE151     -0.0000
     20  N        107.9560   17.0760    5.8190 N.3   153  GLU153     -0.1231
     21  CA       107.3610   16.8980    4.4960 C.3   153  GLU153      0.1699
     22  C        108.0460   17.7840    3.4590 C.2   153  GLU153      0.2592
     23  O        108.5060   17.3040    2.4170 O.2   153  GLU153     -0.2718
     24  CB       105.8580   17.1730    4.5450 C.3   153  GLU153      0.0402
     25  CG       105.1630   16.9990    3.1900 C.3   153  GLU153      0.1161
     26  CD       103.9510   16.0810    3.2520 C.2   153  GLU153      0.3649
     27  OE1      103.0890   16.1710    2.3500 O.co2 153  GLU153     -0.2457
     28  OE2      103.8650   15.2700    4.2020 O.co2 153  GLU153     -0.2457
     29  N        108.0860   19.0960    3.7120 N.am  154  ARG154     -0.1980
     30  CA       108.6600   20.0500    2.7750 C.3   154  ARG154      0.1597
     31  C        110.1150   20.4070    3.0610 C.2   154  ARG154      0.2287
     32  O        110.7490   21.0540    2.2210 O.2   154  ARG154     -0.2864
     33  CB       107.8100   21.3250    2.7450 C.3   154  ARG154      0.0334
     34  CG       106.4280   21.0890    2.1570 C.3   154  ARG154      0.0492
     35  CD       105.8450   22.3490    1.5260 C.3   154  ARG154      0.2205
     36  NE       104.4720   22.1490    1.0580 N.pl3 154  ARG154     -0.0865
     37  CZ       103.7080   23.1060    0.5410 C.cat 154  ARG154      0.5346
     38  NH1      104.1770   24.3410    0.4230 N.pl3 154  ARG154      0.1354
     39  NH2      102.4750   22.8250    0.1360 N.pl3 154  ARG154      0.1354
     40  N        106.8870   28.7320    4.3780 N.3   189  VAL189     -0.1231
     41  CA       105.8340   27.7560    4.1520 C.3   189  VAL189      0.1692
     42  C        104.8300   27.7460    5.2980 C.2   189  VAL189      0.2592
     43  O        103.6250   27.6270    5.0760 O.2   189  VAL189     -0.2718
     44  CB       106.4410   26.3480    3.9550 C.3   189  VAL189      0.0266
     45  CG1      105.3580   25.3530    3.6040 C.3   189  VAL189      0.0020
     46  CG2      107.5690   26.3600    2.9240 C.3   189  VAL189      0.0020
     47  N        105.3220   27.8320    6.5310 N.am  190  TYR190     -0.1963
     48  CA       104.5090   27.8850    7.7420 C.3   190  TYR190      0.1756
     49  C        104.8250   29.2010    8.4390 C.2   190  TYR190      0.2461
     50  O        105.7480   29.2690    9.2660 O.2   190  TYR190     -0.2730
     51  CB       104.8220   26.6860    8.6280 C.3   190  TYR190      0.0574
     52  CG       104.9470   25.4190    7.8180 C.ar  190  TYR190     -0.0198
     53  CD1      103.8280   24.8130    7.2600 C.ar  190  TYR190     -0.0009
     54  CD2      106.1940   24.8540    7.5670 C.ar  190  TYR190     -0.0009
     55  CE1      103.9380   23.6630    6.5060 C.ar  190  TYR190      0.0417
     56  CE2      106.3170   23.7030    6.8080 C.ar  190  TYR190      0.0417
     57  CZ       105.1810   23.1090    6.2790 C.ar  190  TYR190      0.1957
     58  OH       105.2830   21.9610    5.5200 O.3   190  TYR190     -0.2866
     59  N        104.0980   30.2770    8.1280 N.am  191  PRO191     -0.2716
     60  CA       104.4230   31.5960    8.7000 C.3   191  PRO191      0.1536
     61  C        104.3430   31.7060   10.2180 C.2   191  PRO191      0.2599
     62  O        104.6530   32.7670   10.7680 O.2   191  PRO191     -0.2715
     63  CB       103.4020   32.5280    8.0290 C.3   191  PRO191      0.0310
     64  CG       102.3710   31.6410    7.4140 C.3   191  PRO191      0.0237
     65  CD       103.0500   30.3520    7.0960 C.3   191  PRO191      0.0939
     66  N        103.9090   30.6490   10.9020 N.am  192  TYR192     -0.1960
     67  CA       103.8820   30.6070   12.3610 C.3   192  TYR192      0.1771
     68  C        104.9610   29.7070   12.9500 C.2   192  TYR192      0.2619
     69  O        104.8770   29.3600   14.1290 O.2   192  TYR192     -0.2715
     70  CB       102.5100   30.1670   12.8840 C.3   192  TYR192      0.0574
     71  CG       101.3840   31.1460   12.6210 C.ar  192  TYR192     -0.0198
     72  CD1      101.5230   32.4960   12.9170 C.ar  192  TYR192     -0.0009
     73  CD2      100.1740   30.7130   12.1040 C.ar  192  TYR192     -0.0009
     74  CE1      100.4900   33.3880   12.6830 C.ar  192  TYR192      0.0417
     75  CE2       99.1390   31.5940   11.8700 C.ar  192  TYR192      0.0417
     76  CZ        99.2980   32.9270   12.1610 C.ar  192  TYR192      0.1957
     77  OH        98.2560   33.7950   11.9210 O.3   192  TYR192     -0.2866
     78  N        105.9640   29.3120   12.1640 N.am  193  ALA193     -0.1977
     79  CA       107.0010   28.4080   12.6580 C.3   193  ALA193      0.1597
     80  C        107.7120   28.9390   13.8990 C.2   193  ALA193      0.2287
     81  O        108.2840   28.1470   14.6520 O.2   193  ALA193     -0.2864
     82  CB       108.0240   28.1290   11.5560 C.3   193  ALA193      0.0319
     83  N        106.5310   30.0420   16.6060 N.3   195  VAL195     -0.1231
     84  CA       105.8910   29.6350   17.8500 C.3   195  VAL195      0.1692
     85  C        106.4270   28.3000   18.3220 C.2   195  VAL195      0.2592
     86  O        106.3080   27.9610   19.5030 O.2   195  VAL195     -0.2718
     87  CB       104.3660   29.5860   17.6580 C.3   195  VAL195      0.0266
     88  CG1      103.6550   29.3590   18.9920 C.3   195  VAL195      0.0020
     89  CG2      103.8840   30.8670   16.9760 C.3   195  VAL195      0.0020
     90  N        107.0190   27.5300   17.4170 N.am  196  PHE196     -0.1976
     91  CA       107.6950   26.2960   17.7900 C.3   196  PHE196      0.1639
     92  C        109.0940   26.5930   18.3120 C.2   196  PHE196      0.2290
     93  O        109.4460   26.2050   19.4300 O.2   196  PHE196     -0.2864
     94  CB       107.7200   25.3580   16.5740 C.3   196  PHE196      0.0560
     95  CG       108.4050   24.0300   16.7990 C.ar  196  PHE196     -0.0200
     96  CD1      109.7940   23.9290   16.7950 C.ar  196  PHE196     -0.0042
     97  CD2      107.6690   22.8740   16.9600 C.ar  196  PHE196     -0.0042
     98  CE1      110.4270   22.7040   16.9730 C.ar  196  PHE196     -0.0003
     99  CE2      108.2980   21.6430   17.1400 C.ar  196  PHE196     -0.0003
    100  CZ       109.6740   21.5620   17.1440 C.ar  196  PHE196     -0.0000
@<TRIPOS>BOND
     1    39    37    1
     2    38    37    1
     3    37    36    2
     4    36    35    1
     5    35    34    1
     6    34    33    1
     7    32    31    2
     8    27    26   ar
     9    23    22    2
    10    33    30    1
    11    30    31    1
    12    30    29    1
    13    46    44    1
    14    25    26    1
    15    25    24    1
    16    26    28   ar
    17    22    29   am
    18    22    21    1
    19    45    44    1
    20    44    41    1
    21    41    40    1
    22    41    42    1
    23    21    24    1
    24    21    20    1
    25    43    42    2
    26    42    47   am
    27    58    57    1
    28    57    55   ar
    29    57    56   ar
    30    55    53   ar
    31    47    48    1
    32    12    11    2
    33    56    54   ar
    34    65    64    1
    35    65    59    1
    36    53    52   ar
    37    64    63    1
    38    54    52   ar
    39    48    49    1
    40    48    51    1
    41    11    10    1
    42    52    51    1
    43    63    60    1
    44    59    49   am
    45    59    60    1
    46    49    50    2
    47     4     3    2
    48    10    13    1
    49    10     9    1
    50    60    61    1
    51    13    14    1
    52     3     9   am
    53     3     2    1
    54    15    14   ar
    55    15    17   ar
    56    61    62    2
    57    61    66   am
    58    14    16   ar
    59     2     1    1
    60     2     5    1
    61    66    67    1
    62    17    19   ar
    63    82    79    1
    64    16    18   ar
    65     5     6    1
    66    75    73   ar
    67    75    76   ar
    68    77    76    1
    69    73    71   ar
    70    76    74   ar
    71    78    79    1
    72    78    68   am
    73    19    18   ar
    74     8     6    1
    75    67    70    1
    76    67    68    1
    77    71    70    1
    78    71    72   ar
    79    79    80    1
    80    74    72   ar
    81     6     7    1
    82    68    69    2
    83    80    81    2
    84    94    95    1
    85    94    91    1
    86    83    84    1
    87    96    95   ar
    88    96    98   ar
    89    95    97   ar
    90    97    99   ar
    91    98   100   ar
    92    89    87    1
    93    99   100   ar
    94    90    91    1
    95    90    85   am
    96    87    84    1
    97    87    88    1
    98    91    92    1
    99    84    85    1
   100    92    93    2
   101    85    86    2
