@<TRIPOS>MOLECULE
tmp/6mvvB02.pdb
 117 117 0 0 0
SMALL
GASTEIGER

@<TRIPOS>ATOM
      1  N        111.9950   49.0100   20.9390 N.3   143  PHE143     -0.1241
      2  CA       112.9440   48.9250   19.8370 C.3   143  PHE143      0.1605
      3  C        112.3370   48.3070   18.5860 C.2   143  PHE143      0.2264
      4  O        112.6150   48.7700   17.4740 O.2   143  PHE143     -0.2867
      5  CB       114.1750   48.1340   20.2690 C.3   143  PHE143      0.0534
      6  CG       115.1860   48.9640   20.9810 C.ar  143  PHE143     -0.0203
      7  CD1      114.8910   49.5290   22.2040 C.ar  143  PHE143     -0.0042
      8  CD2      116.4290   49.1930   20.4210 C.ar  143  PHE143     -0.0042
      9  CE1      115.8150   50.3020   22.8610 C.ar  143  PHE143     -0.0003
     10  CE2      117.3640   49.9690   21.0740 C.ar  143  PHE143     -0.0003
     11  CZ       117.0540   50.5240   22.2980 C.ar  143  PHE143     -0.0000
     12  N        110.8800   51.0800   16.6470 N.3   146  MET146     -0.1245
     13  CA       111.7930   51.9620   15.9310 C.3   146  MET146      0.1570
     14  C        112.3520   51.2950   14.6870 C.2   146  MET146      0.2261
     15  O        112.4010   51.9120   13.6160 O.2   146  MET146     -0.2867
     16  CB       112.9270   52.3990   16.8450 C.3   146  MET146      0.0387
     17  CG       112.4510   52.9550   18.1530 C.3   146  MET146      0.0595
     18  SD       113.8110   53.6170   19.1130 S.3   146  MET146     -0.1393
     19  CE       113.7210   55.3330   18.6140 C.3   146  MET146      0.0692
     20  N        112.1910   52.6310   10.9110 N.3   150  LEU150     -0.1231
     21  CA       113.5020   53.0100   10.3970 C.3   150  LEU150      0.1693
     22  C        113.9460   52.1990    9.1970 C.2   150  LEU150      0.2592
     23  O        114.5310   52.7540    8.2690 O.2   150  LEU150     -0.2718
     24  CB       114.5690   52.8790   11.4840 C.3   150  LEU150      0.0284
     25  CG       114.6470   54.0080   12.5030 C.3   150  LEU150      0.0019
     26  CD1      115.5720   53.5960   13.6260 C.3   150  LEU150      0.0001
     27  CD2      115.1330   55.2830   11.8340 C.3   150  LEU150      0.0001
     28  N        113.7190   50.8900    9.2090 N.am  151  PHE151     -0.1976
     29  CA       114.2960   50.0150    8.2050 C.3   151  PHE151      0.1639
     30  C        113.2830   49.2450    7.3800 C.2   151  PHE151      0.2290
     31  O        113.6460   48.7570    6.3070 O.2   151  PHE151     -0.2864
     32  CB       115.2400   49.0170    8.8810 C.3   151  PHE151      0.0560
     33  CG       116.1580   49.6540    9.8730 C.ar  151  PHE151     -0.0200
     34  CD1      117.1260   50.5490    9.4610 C.ar  151  PHE151     -0.0042
     35  CD2      116.0550   49.3680   11.2130 C.ar  151  PHE151     -0.0042
     36  CE1      117.9850   51.1410   10.3660 C.ar  151  PHE151     -0.0003
     37  CE2      116.9150   49.9550   12.1230 C.ar  151  PHE151     -0.0003
     38  CZ       117.8780   50.8430   11.6980 C.ar  151  PHE151     -0.0000
     39  N        112.8880   49.9320    3.2500 N.3   154  ARG154     -0.1245
     40  CA       113.7720   49.2850    2.2940 C.3   154  ARG154      0.1563
     41  C        114.1480   47.8760    2.7110 C.2   154  ARG154      0.2260
     42  O        114.7250   47.1430    1.9020 O.2   154  ARG154     -0.2867
     43  CB       115.0340   50.1290    2.0780 C.3   154  ARG154      0.0307
     44  CG       114.7280   51.4550    1.3870 C.3   154  ARG154      0.0489
     45  CD       115.9050   52.0250    0.6120 C.3   154  ARG154      0.2205
     46  NE       115.5870   53.3450    0.0660 N.pl3 154  ARG154     -0.0865
     47  CZ       116.4480   54.1160   -0.5940 C.cat 154  ARG154      0.5346
     48  NH1      117.6900   53.7030   -0.7960 N.pl3 154  ARG154      0.1354
     49  NH2      116.0660   55.2970   -1.0630 N.pl3 154  ARG154      0.1354
     50  N        123.0380   50.6410    3.6020 N.3   189  VAL189     -0.1231
     51  CA       122.0470   51.6580    3.2730 C.3   189  VAL189      0.1692
     52  C        121.9720   52.7430    4.3360 C.2   189  VAL189      0.2592
     53  O        121.8210   53.9260    4.0140 O.2   189  VAL189     -0.2718
     54  CB       120.6620   51.0360    3.0500 C.3   189  VAL189      0.0266
     55  CG1      119.6740   52.1160    2.6450 C.3   189  VAL189      0.0020
     56  CG2      120.7500   49.9430    1.9920 C.3   189  VAL189      0.0020
     57  N        122.0320   52.3560    5.6060 N.am  190  TYR190     -0.1963
     58  CA       122.1120   53.2840    6.7300 C.3   190  TYR190      0.1756
     59  C        123.4420   53.0230    7.4180 C.2   190  TYR190      0.2461
     60  O        123.5180   52.2210    8.3630 O.2   190  TYR190     -0.2730
     61  CB       120.9480   53.1040    7.6890 C.3   190  TYR190      0.0574
     62  CG       119.6170   53.0430    6.9990 C.ar  190  TYR190     -0.0198
     63  CD1      119.0450   54.1820    6.4450 C.ar  190  TYR190     -0.0009
     64  CD2      118.9260   51.8460    6.8980 C.ar  190  TYR190     -0.0009
     65  CE1      117.8110   54.1250    5.8120 C.ar  190  TYR190      0.0417
     66  CE2      117.6990   51.7770    6.2720 C.ar  190  TYR190      0.0417
     67  CZ       117.1430   52.9140    5.7320 C.ar  190  TYR190      0.1957
     68  OH       115.9150   52.8280    5.1120 O.3   190  TYR190     -0.2866
     69  N        124.5100   53.7050    7.0000 N.am  191  PRO191     -0.2716
     70  CA       125.8450   53.4230    7.5490 C.3   191  PRO191      0.1536
     71  C        125.9150   53.6590    9.0440 C.2   191  PRO191      0.2599
     72  O        126.9430   53.4070    9.6810 O.2   191  PRO191     -0.2715
     73  CB       126.7550   54.3900    6.7840 C.3   191  PRO191      0.0310
     74  CG       125.8360   55.4100    6.1820 C.3   191  PRO191      0.0237
     75  CD       124.5300   54.7460    5.9600 C.3   191  PRO191      0.0939
     76  N        124.8080   54.1340    9.6050 N.am  192  TYR192     -0.1960
     77  CA       124.6700   54.3680   11.0310 C.3   192  TYR192      0.1771
     78  C        123.8450   53.2900   11.7200 C.2   192  TYR192      0.2619
     79  O        123.4600   53.4710   12.8760 O.2   192  TYR192     -0.2715
     80  CB       124.0350   55.7330   11.2680 C.3   192  TYR192      0.0574
     81  CG       124.8890   56.8850   10.8010 C.ar  192  TYR192     -0.0198
     82  CD1      126.2260   56.9780   11.1640 C.ar  192  TYR192     -0.0009
     83  CD2      124.3590   57.8840    9.9930 C.ar  192  TYR192     -0.0009
     84  CE1      127.0100   58.0380   10.7370 C.ar  192  TYR192      0.0417
     85  CE2      125.1340   58.9480    9.5610 C.ar  192  TYR192      0.0417
     86  CZ       126.4560   59.0210    9.9360 C.ar  192  TYR192      0.1957
     87  OH       127.2250   60.0780    9.5030 O.3   192  TYR192     -0.2866
     88  N        123.5550   52.1800   11.0360 N.am  193  ALA193     -0.1977
     89  CA       122.7690   51.1210   11.6590 C.3   193  ALA193      0.1597
     90  C        123.4580   50.5500   12.8910 C.2   193  ALA193      0.2287
     91  O        122.7850   50.1060   13.8270 O.2   193  ALA193     -0.2864
     92  CB       122.4940   50.0040   10.6490 C.3   193  ALA193      0.0319
     93  N        124.8530   52.0080   15.2640 N.3   195  VAL195     -0.1231
     94  CA       124.5350   52.7650   16.4710 C.3   195  VAL195      0.1692
     95  C        123.2320   52.2780   17.0980 C.2   195  VAL195      0.2592
     96  O        122.9940   52.4850   18.2930 O.2   195  VAL195     -0.2718
     97  CB       124.4920   54.2760   16.1440 C.3   195  VAL195      0.0266
     98  CG1      124.3040   55.1070   17.3930 C.3   195  VAL195      0.0020
     99  CG2      125.7830   54.6980   15.4650 C.3   195  VAL195      0.0020
    100  N        122.3830   51.6220   16.3200 N.am  196  PHE196     -0.1976
    101  CA       121.1860   51.0110   16.8710 C.3   196  PHE196      0.1639
    102  C        121.5130   49.6510   17.4720 C.2   196  PHE196      0.2290
    103  O        121.1880   49.3750   18.6280 O.2   196  PHE196     -0.2864
    104  CB       120.1320   50.8850   15.7690 C.3   196  PHE196      0.0560
    105  CG       118.8040   50.3270   16.2230 C.ar  196  PHE196     -0.0200
    106  CD1      118.6440   48.9760   16.4910 C.ar  196  PHE196     -0.0042
    107  CD2      117.6950   51.1470   16.2970 C.ar  196  PHE196     -0.0042
    108  CE1      117.4220   48.4750   16.8810 C.ar  196  PHE196     -0.0003
    109  CE2      116.4710   50.6490   16.6830 C.ar  196  PHE196     -0.0003
    110  CZ       116.3310   49.3160   16.9770 C.ar  196  PHE196     -0.0000
    111  N        124.4400   49.0660   20.7090 N.3   199  PRO199     -0.2116
    112  CA       123.9510   49.2780   22.0850 C.3   199  PRO199      0.1372
    113  C        122.8970   48.2730   22.5210 C.2   199  PRO199      0.2244
    114  O        122.9970   47.7180   23.6230 O.2   199  PRO199     -0.2868
    115  CB       123.4050   50.7130   22.0330 C.3   199  PRO199      0.0268
    116  CG       124.1430   51.3610   20.9130 C.3   199  PRO199      0.0207
    117  CD       124.2780   50.2850   19.8960 C.3   199  PRO199      0.0892
@<TRIPOS>BOND
     1    49    47    1
     2    48    47    1
     3    47    46    2
     4    46    45    1
     5    45    44    1
     6    44    43    1
     7    42    41    2
     8    56    54    1
     9    43    40    1
    10    40    41    1
    11    40    39    1
    12    55    54    1
    13    54    51    1
    14    51    50    1
    15    51    52    1
    16    53    52    2
    17    52    57   am
    18    68    67    1
    19    57    58    1
    20    67    65   ar
    21    67    66   ar
    22    65    63   ar
    23    75    74    1
    24    75    69    1
    25    74    73    1
    26    66    64   ar
    27    31    30    2
    28    63    62   ar
    29    58    59    1
    30    58    61    1
    31    73    70    1
    32    64    62   ar
    33    62    61    1
    34    69    59   am
    35    69    70    1
    36    30    29    1
    37    59    60    2
    38    70    71    1
    39    29    32    1
    40    29    28    1
    41    23    22    2
    42    32    33    1
    43    71    76   am
    44    71    72    2
    45    22    28   am
    46    22    21    1
    47    34    33   ar
    48    34    36   ar
    49    87    86    1
    50    85    86   ar
    51    85    83   ar
    52    76    77    1
    53    33    35   ar
    54    86    84   ar
    55    83    81   ar
    56    36    38   ar
    57    21    20    1
    58    21    24    1
    59    92    89    1
    60    84    82   ar
    61    81    82   ar
    62    81    80    1
    63    77    80    1
    64    77    78    1
    65    88    89    1
    66    88    78   am
    67    35    37   ar
    68    24    25    1
    69    89    90    1
    70    38    37   ar
    71    78    79    2
    72    27    25    1
    73    25    26    1
    74    90    91    2
    75    15    14    2
    76    14    13    1
    77    93    94    1
    78    99    97    1
    79   104   105    1
    80   104   101    1
    81    13    12    1
    82    13    16    1
    83    97    94    1
    84    97    98    1
    85   105   107   ar
    86   105   106   ar
    87   107   109   ar
    88   100   101    1
    89   100    95   am
    90    94    95    1
    91   106   108   ar
    92   109   110   ar
    93    16    17    1
    94   101   102    1
    95   108   110   ar
    96    95    96    2
    97   102   103    2
    98     4     3    2
    99    17    18    1
   100     3     2    1
   101    19    18    1
   102     2     5    1
   103     2     1    1
   104   117   111    1
   105   117   116    1
   106     5     6    1
   107     8     6   ar
   108     8    10   ar
   109   111   112    1
   110   116   115    1
   111     6     7   ar
   112    10    11   ar
   113   115   112    1
   114   112   113    1
   115     7     9   ar
   116    11     9   ar
   117   113   114    2
