@<TRIPOS>MOLECULE
tmp/6mvwD04.pdb
 91 92 0 0 0
SMALL
GASTEIGER

@<TRIPOS>ATOM
      1  N        147.3130  172.4050    9.1470 N.3   151  LEU151     -0.1231
      2  CA       147.6870  171.0610    8.7210 C.3   151  LEU151      0.1693
      3  C        146.8580  170.5620    7.5480 C.2   151  LEU151      0.2592
      4  O        147.4150  170.1190    6.5390 O.2   151  LEU151     -0.2718
      5  CB       147.5500  170.0680    9.8850 C.3   151  LEU151      0.0284
      6  CG       148.6930  169.8920   10.8840 C.3   151  LEU151      0.0019
      7  CD1      148.2460  168.9970   12.0310 C.3   151  LEU151      0.0001
      8  CD2      149.9120  169.3040   10.1950 C.3   151  LEU151      0.0001
      9  N        145.5290  170.6250    7.6560 N.am  152  PHE152     -0.1976
     10  CA       144.6380  170.0280    6.6730 C.3   152  PHE152      0.1639
     11  C        143.8120  171.0400    5.8920 C.2   152  PHE152      0.2290
     12  O        143.1810  170.6590    4.8990 O.2   152  PHE152     -0.2864
     13  CB       143.6990  169.0290    7.3620 C.3   152  PHE152      0.0560
     14  CG       144.3790  168.1940    8.4070 C.ar  152  PHE152     -0.0200
     15  CD1      145.2730  167.2020    8.0450 C.ar  152  PHE152     -0.0042
     16  CD2      144.1350  168.4120    9.7520 C.ar  152  PHE152     -0.0042
     17  CE1      145.9060  166.4360    9.0040 C.ar  152  PHE152     -0.0003
     18  CE2      144.7650  167.6500   10.7160 C.ar  152  PHE152     -0.0003
     19  CZ       145.6510  166.6600   10.3410 C.ar  152  PHE152     -0.0000
     20  N        144.2390  171.0220    1.6830 N.3   155  ARG155     -0.1245
     21  CA       143.5110  170.0640    0.8630 C.3   155  ARG155      0.1563
     22  C        142.0680  169.8640    1.3070 C.2   155  ARG155      0.2260
     23  O        141.2820  169.2730    0.5580 O.2   155  ARG155     -0.2867
     24  CB       144.2380  168.7170    0.8720 C.3   155  ARG155      0.0307
     25  CG       145.5930  168.7570    0.1890 C.3   155  ARG155      0.0489
     26  CD       145.8450  167.5150   -0.6410 C.3   155  ARG155      0.2205
     27  NE       147.1950  167.5060   -1.1940 N.pl3 155  ARG155     -0.0865
     28  CZ       147.7110  166.4990   -1.8900 C.cat 155  ARG155      0.5346
     29  NH1      146.9900  165.4100   -2.1190 N.pl3 155  ARG155      0.1354
     30  NH2      148.9500  166.5790   -2.3540 N.pl3 155  ARG155      0.1354
     31  N        145.1340  161.2340    2.2200 N.3   190  VAL190     -0.1231
     32  CA       146.1040  162.2470    1.8260 C.3   190  VAL190      0.1692
     33  C        147.2260  162.3640    2.8500 C.2   190  VAL190      0.2592
     34  O        148.4050  162.3930    2.4940 O.2   190  VAL190     -0.2718
     35  CB       145.4130  163.6090    1.6000 C.3   190  VAL190      0.0266
     36  CG1      146.4440  164.6760    1.2930 C.3   190  VAL190      0.0020
     37  CG2      144.3990  163.5000    0.4720 C.3   190  VAL190      0.0020
     38  N        146.8740  162.4110    4.1330 N.am  191  TYR191     -0.1963
     39  CA       147.8550  162.4480    5.2100 C.3   191  TYR191      0.1756
     40  C        147.7300  161.1540    6.0020 C.2   191  TYR191      0.2461
     41  O        146.8770  161.0540    6.8990 O.2   191  TYR191     -0.2730
     42  CB       147.6220  163.6620    6.1150 C.3   191  TYR191      0.0574
     43  CG       147.4640  164.9670    5.3620 C.ar  191  TYR191     -0.0198
     44  CD1      148.5700  165.6630    4.8900 C.ar  191  TYR191     -0.0009
     45  CD2      146.2050  165.5020    5.1250 C.ar  191  TYR191     -0.0009
     46  CE1      148.4240  166.8570    4.2020 C.ar  191  TYR191      0.0417
     47  CE2      146.0490  166.6940    4.4390 C.ar  191  TYR191      0.0417
     48  CZ       147.1620  167.3670    3.9800 C.ar  191  TYR191      0.1957
     49  OH       147.0100  168.5530    3.2980 O.3   191  TYR191     -0.2866
     50  N        148.5550  160.1400    5.7190 N.am  192  PRO192     -0.2716
     51  CA       148.3180  158.8110    6.3070 C.3   192  PRO192      0.1536
     52  C        148.5020  158.7560    7.8120 C.2   192  PRO192      0.2599
     53  O        148.0050  157.8140    8.4410 O.2   192  PRO192     -0.2715
     54  CB       149.3450  157.9220    5.5910 C.3   192  PRO192      0.0310
     55  CG       150.4250  158.8650    5.1600 C.3   192  PRO192      0.0237
     56  CD       149.7320  160.1580    4.8350 C.3   192  PRO192      0.0939
     57  N        149.1930  159.7250    8.4100 N.am  193  TYR193     -0.1960
     58  CA       149.4000  159.7580    9.8490 C.3   193  TYR193      0.1771
     59  C        148.3600  160.6120   10.5670 C.2   193  TYR193      0.2619
     60  O        148.5800  161.0030   11.7190 O.2   193  TYR193     -0.2715
     61  CB       150.8040  160.2800   10.1640 C.3   193  TYR193      0.0574
     62  CG       151.9230  159.4200    9.6200 C.ar  193  TYR193     -0.0198
     63  CD1      152.3280  158.2690   10.2810 C.ar  193  TYR193     -0.0009
     64  CD2      152.5790  159.7680    8.4460 C.ar  193  TYR193     -0.0009
     65  CE1      153.3530  157.4850    9.7840 C.ar  193  TYR193      0.0417
     66  CE2      153.6040  158.9920    7.9420 C.ar  193  TYR193      0.0417
     67  CZ       153.9870  157.8530    8.6140 C.ar  193  TYR193      0.1957
     68  OH       155.0080  157.0820    8.1090 O.3   193  TYR193     -0.2866
     69  N        147.2380  160.9120    9.9050 N.am  194  ALA194     -0.1977
     70  CA       146.1880  161.7220   10.5150 C.3   194  ALA194      0.1597
     71  C        145.6150  161.0790   11.7710 C.2   194  ALA194      0.2287
     72  O        145.1410  161.7890   12.6670 O.2   194  ALA194     -0.2864
     73  CB       145.0730  161.9780    9.5010 C.3   194  ALA194      0.0319
     74  N        147.1270  159.7870   14.1810 N.3   196  VAL196     -0.1231
     75  CA       147.8830  160.1840   15.3630 C.3   196  VAL196      0.1692
     76  C        147.3230  161.4790   15.9440 C.2   196  VAL196      0.2592
     77  O        147.4520  161.7380   17.1460 O.2   196  VAL196     -0.2718
     78  CB       149.3790  160.3020   15.0130 C.3   196  VAL196      0.0266
     79  CG1      150.1940  160.7510   16.2210 C.3   196  VAL196      0.0020
     80  CG2      149.9030  158.9760   14.4820 C.3   196  VAL196      0.0020
     81  N        146.6900  162.3100   15.1130 N.am  197  PHE197     -0.1976
     82  CA       146.1170  163.5620   15.5990 C.3   197  PHE197      0.1639
     83  C        144.7820  163.3350   16.3020 C.2   197  PHE197      0.2290
     84  O        144.5470  163.8750   17.3890 O.2   197  PHE197     -0.2864
     85  CB       145.9550  164.5480   14.4370 C.3   197  PHE197      0.0560
     86  CG       145.4500  165.9090   14.8480 C.ar  197  PHE197     -0.0200
     87  CD1      144.0960  166.1340   15.0630 C.ar  197  PHE197     -0.0042
     88  CD2      146.3300  166.9640   15.0140 C.ar  197  PHE197     -0.0042
     89  CE1      143.6340  167.3830   15.4430 C.ar  197  PHE197     -0.0003
     90  CE2      145.8750  168.2150   15.3910 C.ar  197  PHE197     -0.0003
     91  CZ       144.5250  168.4250   15.6060 C.ar  197  PHE197     -0.0000
@<TRIPOS>BOND
     1    30    28    1
     2    29    28    1
     3    28    27    2
     4    27    26    1
     5    26    25    1
     6    25    24    1
     7    37    35    1
     8    23    22    2
     9    21    24    1
    10    21    22    1
    11    21    20    1
    12    36    35    1
    13    35    32    1
    14    32    31    1
    15    32    33    1
    16    34    33    2
    17    33    38   am
    18    49    48    1
    19    48    46   ar
    20    48    47   ar
    21    38    39    1
    22    46    44   ar
    23    47    45   ar
    24    56    55    1
    25    56    50    1
    26    44    43   ar
    27    12    11    2
    28    45    43   ar
    29    55    54    1
    30    39    40    1
    31    39    42    1
    32    43    42    1
    33    54    51    1
    34    50    40   am
    35    50    51    1
    36    11    10    1
    37    40    41    2
    38    51    52    1
    39     4     3    2
    40    10    13    1
    41    10     9    1
    42    13    14    1
    43     3     9   am
    44     3     2    1
    45    52    57   am
    46    52    53    2
    47    66    64   ar
    48    66    67   ar
    49    15    14   ar
    50    15    17   ar
    51    68    67    1
    52    14    16   ar
    53    57    58    1
    54    64    62   ar
    55    67    65   ar
    56     2     1    1
    57     2     5    1
    58    17    19   ar
    59    73    70    1
    60    62    61    1
    61    62    63   ar
    62    16    18   ar
    63    65    63   ar
    64    58    61    1
    65    58    59    1
    66     5     6    1
    67    69    70    1
    68    69    59   am
    69     8     6    1
    70    19    18   ar
    71    70    71    1
    72    59    60    2
    73     6     7    1
    74    71    72    2
    75    74    75    1
    76    85    86    1
    77    85    82    1
    78    80    78    1
    79    86    88   ar
    80    86    87   ar
    81    78    75    1
    82    78    79    1
    83    88    90   ar
    84    87    89   ar
    85    81    82    1
    86    81    76   am
    87    75    76    1
    88    90    91   ar
    89    89    91   ar
    90    82    83    1
    91    76    77    2
    92    83    84    2
