@<TRIPOS>MOLECULE
tmp/6mvwB00.pdb
 121 116 0 0 0
SMALL
GASTEIGER

@<TRIPOS>ATOM
      1  N        119.8050  142.2420   32.2790 N.3   134  ILE134     -0.1245
      2  CA       120.0910  141.6470   30.9720 C.3   134  ILE134      0.1561
      3  C        118.9230  140.7920   30.4930 C.2   134  ILE134      0.2260
      4  O        118.5010  140.8780   29.3340 O.2   134  ILE134     -0.2867
      5  CB       121.3990  140.8350   31.0240 C.3   134  ILE134      0.0252
      6  CG1      122.6120  141.7680   31.0210 C.3   134  ILE134      0.0019
      7  CG2      121.4790  139.8610   29.8580 C.3   134  ILE134      0.0019
      8  CD1      123.9360  141.0550   31.2030 C.3   134  ILE134      0.0001
      9  N        115.9360  142.8580   29.2910 N.3   137  MET137     -0.1230
     10  CA       116.2650  143.4240   27.9860 C.3   137  MET137      0.1702
     11  C        116.0730  142.3990   26.8750 C.2   137  MET137      0.2593
     12  O        115.5210  142.7170   25.8140 O.2   137  MET137     -0.2718
     13  CB       117.6970  143.9550   27.9920 C.3   137  MET137      0.0401
     14  CG       117.9630  145.0240   26.9490 C.3   137  MET137      0.0596
     15  SD       117.5380  146.6740   27.5370 S.3   137  MET137     -0.1393
     16  CE       119.0610  147.1320   28.3520 C.3   137  MET137      0.0692
     17  N        116.5370  141.1660   27.0960 N.am  138  THR138     -0.1953
     18  CA       116.4170  140.1330   26.0720 C.3   138  THR138      0.1897
     19  C        114.9550  139.8180   25.7870 C.2   138  THR138      0.2313
     20  O        114.5740  139.5840   24.6340 O.2   138  THR138     -0.2863
     21  CB       117.1600  138.8690   26.5060 C.3   138  THR138      0.1794
     22  OG1      118.5170  139.1940   26.8320 O.3   138  THR138     -0.2208
     23  CG2      117.1500  137.8300   25.3920 C.3   138  THR138      0.0378
     24  N        113.7510  142.9040   23.7900 N.3   141  PHE141     -0.1241
     25  CA       114.1640  142.7740   22.3930 C.3   141  PHE141      0.1605
     26  C        113.3530  141.7180   21.6500 C.2   141  PHE141      0.2264
     27  O        112.9450  141.9360   20.5030 O.2   141  PHE141     -0.2867
     28  CB       115.6560  142.4530   22.3120 C.3   141  PHE141      0.0534
     29  CG       116.5200  143.6530   22.0570 C.ar  141  PHE141     -0.0203
     30  CD1      116.5560  144.7060   22.9550 C.ar  141  PHE141     -0.0042
     31  CD2      117.2970  143.7270   20.9130 C.ar  141  PHE141     -0.0042
     32  CE1      117.3520  145.8130   22.7140 C.ar  141  PHE141     -0.0003
     33  CE2      118.0940  144.8280   20.6670 C.ar  141  PHE141     -0.0003
     34  CZ       118.1210  145.8730   21.5690 C.ar  141  PHE141     -0.0000
     35  N        116.0400  143.1790    4.3670 N.3   158  GLU158     -0.1245
     36  CA       117.4050  143.0490    4.8820 C.3   158  GLU158      0.1567
     37  C        117.5460  143.6140    6.2950 C.2   158  GLU158      0.2260
     38  O        118.5160  143.2870    6.9860 O.2   158  GLU158     -0.2867
     39  CB       118.4240  143.6500    3.9050 C.3   158  GLU158      0.0388
     40  CG       119.8830  143.5700    4.3300 C.3   158  GLU158      0.1160
     41  CD       120.8170  144.1710    3.3000 C.2   158  GLU158      0.3649
     42  OE1      120.5500  143.9990    2.0910 O.co2 158  GLU158     -0.2457
     43  OE2      121.8190  144.8040    3.6930 O.co2 158  GLU158     -0.2457
     44  N        113.6390  138.9640    8.9730 N.3   162  THR162     -0.1203
     45  CA       113.8190  137.7610    9.7730 C.3   162  THR162      0.1994
     46  C        113.8490  138.1430   11.2460 C.2   162  THR162      0.2618
     47  O        114.3690  139.2040   11.6020 O.2   162  THR162     -0.2717
     48  CB       115.1100  137.0240    9.3670 C.3   162  THR162      0.1784
     49  OG1      114.9230  136.4030    8.0900 O.3   162  THR162     -0.2211
     50  CG2      115.4870  135.9560   10.3760 C.3   162  THR162      0.0376
     51  N        113.2500  137.2910   12.0890 N.am  163  LEU163     -0.1965
     52  CA       113.2780  137.5100   13.5340 C.3   163  LEU163      0.1728
     53  C        114.6940  137.7840   14.0220 C.2   163  LEU163      0.2617
     54  O        114.9100  138.6490   14.8810 O.2   163  LEU163     -0.2715
     55  CB       112.6900  136.2920   14.2540 C.3   163  LEU163      0.0311
     56  CG       112.3620  136.3420   15.7490 C.3   163  LEU163      0.0022
     57  CD1      113.5630  135.9800   16.6140 C.3   163  LEU163      0.0001
     58  CD2      111.8170  137.7070   16.1250 C.3   163  LEU163      0.0001
     59  N        115.6720  137.0580   13.4810 N.am  164  GLY164     -0.1940
     60  CA       117.0590  137.3630   13.7830 C.3   164  GLY164      0.2014
     61  C        117.5000  138.6670   13.1460 C.2   164  GLY164      0.2638
     62  O        118.1990  139.4700   13.7700 O.2   164  GLY164     -0.2714
     63  N        117.1260  138.8750   11.8810 N.am  165  GLU165     -0.1977
     64  CA       117.4680  140.1120   11.1850 C.3   165  GLU165      0.1602
     65  C        116.9260  141.3290   11.9260 C.2   165  GLU165      0.2287
     66  O        117.5850  142.3740   11.9890 O.2   165  GLU165     -0.2864
     67  CB       116.9160  140.0620    9.7620 C.3   165  GLU165      0.0415
     68  CG       117.5480  141.0320    8.7960 C.3   165  GLU165      0.1163
     69  CD       118.5430  140.3610    7.8690 C.2   165  GLU165      0.3649
     70  OE1      119.6620  140.8910    7.7120 O.co2 165  GLU165     -0.2457
     71  OE2      118.2040  139.3030    7.2980 O.co2 165  GLU165     -0.2457
     72  N        116.4280  141.4310   15.2020 N.3   167  PHE167     -0.1227
     73  CA       117.3040  141.5370   16.3670 C.3   167  PHE167      0.1736
     74  C        118.5170  142.4110   16.0710 C.2   167  PHE167      0.2595
     75  O        118.8310  143.3380   16.8260 O.2   167  PHE167     -0.2718
     76  CB       117.7640  140.1440   16.8070 C.3   167  PHE167      0.0547
     77  CG       116.9980  139.5780   17.9680 C.ar  167  PHE167     -0.0202
     78  CD1      117.2510  140.0070   19.2610 C.ar  167  PHE167     -0.0042
     79  CD2      116.0470  138.5940   17.7690 C.ar  167  PHE167     -0.0042
     80  CE1      116.5500  139.4760   20.3310 C.ar  167  PHE167     -0.0003
     81  CE2      115.3440  138.0600   18.8330 C.ar  167  PHE167     -0.0003
     82  CZ       115.5960  138.5000   20.1150 C.ar  167  PHE167     -0.0000
     83  N        119.2220  142.1110   14.9770 N.am  168  TYR168     -0.1976
     84  CA       120.4090  142.8750   14.6070 C.3   168  TYR168      0.1639
     85  C        120.0920  144.3580   14.4350 C.2   168  TYR168      0.2290
     86  O        120.7650  145.2190   15.0150 O.2   168  TYR168     -0.2864
     87  CB       121.0140  142.2960   13.3270 C.3   168  TYR168      0.0560
     88  CG       122.2460  143.0230   12.8440 C.ar  168  TYR168     -0.0198
     89  CD1      122.1440  144.1170   11.9950 C.ar  168  TYR168     -0.0009
     90  CD2      123.5130  142.6100   13.2320 C.ar  168  TYR168     -0.0009
     91  CE1      123.2650  144.7840   11.5560 C.ar  168  TYR168      0.0417
     92  CE2      124.6420  143.2710   12.7950 C.ar  168  TYR168      0.0417
     93  CZ       124.5110  144.3590   11.9570 C.ar  168  TYR168      0.1957
     94  OH       125.6240  145.0280   11.5110 O.3   168  TYR168     -0.2866
     95  N        119.3300  146.0630   17.7250 N.3   171  PHE171     -0.1241
     96  CA       120.5540  146.2920   18.4850 C.3   171  PHE171      0.1605
     97  C        121.3030  147.5070   17.9540 C.2   171  PHE171      0.2264
     98  O        121.9110  148.2570   18.7260 O.2   171  PHE171     -0.2867
     99  CB       121.4420  145.0460   18.4360 C.3   171  PHE171      0.0534
    100  CG       122.7070  145.1600   19.2480 C.ar  171  PHE171     -0.0203
    101  CD1      122.6980  144.8850   20.6040 C.ar  171  PHE171     -0.0042
    102  CD2      123.9020  145.5380   18.6570 C.ar  171  PHE171     -0.0042
    103  CE1      123.8560  144.9830   21.3580 C.ar  171  PHE171     -0.0003
    104  CE2      125.0640  145.6420   19.4090 C.ar  171  PHE171     -0.0003
    105  CZ       125.0390  145.3630   20.7600 C.ar  171  PHE171     -0.0000
    106  N        119.6190  150.5420   19.2670 N.3   174  MET174     -0.1245
    107  CA       120.0400  150.7540   20.6500 C.3   174  MET174      0.1570
    108  C        121.3030  151.6070   20.7200 C.2   174  MET174      0.2261
    109  O        121.3590  152.5950   21.4610 O.2   174  MET174     -0.2867
    110  CB       120.2620  149.4090   21.3430 C.3   174  MET174      0.0387
    111  CG       121.0530  149.5080   22.6400 C.3   174  MET174      0.0595
    112  SD       120.6370  148.2110   23.8220 S.3   174  MET174     -0.1393
    113  CE       121.7450  146.9050   23.3170 C.3   174  MET174      0.0692
    114  N        119.6520  151.3660   30.3680 N.3   209  MET209     -0.1245
    115  CA       121.1100  151.4550   30.3650 C.3   209  MET209      0.1570
    116  C        121.6130  152.4560   31.4000 C.2   209  MET209      0.2261
    117  O        122.5920  152.1890   32.1060 O.2   209  MET209     -0.2867
    118  CB       121.6130  151.8270   28.9700 C.3   209  MET209      0.0387
    119  CG       121.6730  150.6530   28.0060 C.3   209  MET209      0.0595
    120  SD       122.6440  149.2800   28.6590 S.3   209  MET209     -0.1393
    121  CE       122.4860  148.0810   27.3380 C.3   209  MET209      0.0692
@<TRIPOS>BOND
     1    42    41   ar
     2    41    43   ar
     3    41    40    1
     4    39    40    1
     5    39    36    1
     6    35    36    1
     7    36    37    1
     8    37    38    2
     9    71    69   ar
    10    70    69   ar
    11    69    68    1
    12    49    48    1
    13    68    67    1
    14    44    45    1
    15    48    45    1
    16    48    50    1
    17    67    64    1
    18    45    46    1
    19    64    63    1
    20    64    65    1
    21    46    47    2
    22    46    51   am
    23    94    93    1
    24    91    93   ar
    25    91    89   ar
    26    63    61   am
    27    65    66    2
    28    93    92   ar
    29    89    88   ar
    30    51    52    1
    31    92    90   ar
    32    88    90   ar
    33    88    87    1
    34    61    62    2
    35    61    60    1
    36    87    84    1
    37    59    60    1
    38    59    53   am
    39    52    53    1
    40    52    55    1
    41    53    54    2
    42    55    56    1
    43    85    84    1
    44    85    86    2
    45    84    83    1
    46    83    74   am
    47    72    73    1
    48    56    58    1
    49    56    57    1
    50    74    73    1
    51    74    75    2
    52    73    76    1
    53    76    77    1
    54    95    96    1
    55    79    77   ar
    56    79    81   ar
    57    97    96    1
    58    97    98    2
    59    77    78   ar
    60    99    96    1
    61    99   100    1
    62   102   100   ar
    63   102   104   ar
    64    81    82   ar
    65   100   101   ar
    66    78    80   ar
    67   106   107    1
    68   104   105   ar
    69    82    80   ar
    70    27    26    2
    71   101   103   ar
    72   107   108    1
    73   107   110    1
    74    33    31   ar
    75    33    34   ar
    76   108   109    2
    77   105   103   ar
    78    31    29   ar
    79   110   111    1
    80    34    32   ar
    81    26    25    1
    82    29    28    1
    83    29    30   ar
    84    28    25    1
    85    25    24    1
    86   111   112    1
    87    32    30   ar
    88   113   112    1
    89    20    19    2
    90    23    21    1
    91    19    18    1
    92    12    11    2
    93    18    21    1
    94    18    17    1
    95    21    22    1
    96    11    17   am
    97    11    10    1
    98    14    15    1
    99    14    13    1
   100   121   120    1
   101    15    16    1
   102    10    13    1
   103    10     9    1
   104   119   120    1
   105   119   118    1
   106   118   115    1
   107     4     3    2
   108     7     5    1
   109   115   114    1
   110   115   116    1
   111     3     2    1
   112     2     5    1
   113     2     1    1
   114     6     5    1
   115     6     8    1
   116   116   117    2
