@<TRIPOS>MOLECULE
tmp/6mvwD00.pdb
 95 90 0 0 0
SMALL
GASTEIGER

@<TRIPOS>ATOM
      1  N        100.6570  182.8850   29.0360 N.3    22  ILE22      -0.1231
      2  CA       101.7830  182.0960   28.5340 C.3    22  ILE22       0.1692
      3  C        101.2890  180.8750   27.7720 C.2    22  ILE22       0.2591
      4  O        101.5960  180.6910   26.5890 O.2    22  ILE22      -0.2718
      5  CB       102.7190  181.6860   29.6820 C.3    22  ILE22       0.0266
      6  CG1      103.3880  182.9190   30.2700 C.3    22  ILE22       0.0019
      7  CG2      103.7660  180.7120   29.1720 C.3    22  ILE22       0.0020
      8  CD1      104.4660  183.4500   29.3700 C.3    22  ILE22       0.0001
      9  N        100.5200  180.0160   28.4460 N.am   23  VAL23      -0.1980
     10  CA       100.0500  178.7870   27.8140 C.3    23  VAL23       0.1595
     11  C         99.1580  179.0930   26.6180 C.2    23  VAL23       0.2287
     12  O         99.0830  178.3010   25.6720 O.2    23  VAL23      -0.2864
     13  CB        99.3280  177.9070   28.8560 C.3    23  VAL23       0.0276
     14  CG1       98.9620  176.5570   28.2600 C.3    23  VAL23       0.0022
     15  CG2      100.2010  177.7280   30.0870 C.3    23  VAL23       0.0022
     16  N        101.6160  180.7440   24.1090 N.3    26  GLY26      -0.1210
     17  CA       102.4590  179.6110   23.7620 C.3    26  GLY26       0.1956
     18  C        101.8290  178.7530   22.6860 C.2    26  GLY26       0.2611
     19  O        102.4770  178.3840   21.7050 O.2    26  GLY26      -0.2717
     20  N        100.5480  178.4210   22.8630 N.am   27  ILE27      -0.1979
     21  CA        99.7910  177.7630   21.8030 C.3    27  ILE27       0.1595
     22  C         99.6690  178.6850   20.5960 C.2    27  ILE27       0.2287
     23  O         99.8910  178.2760   19.4510 O.2    27  ILE27      -0.2864
     24  CB        98.4090  177.3300   22.3270 C.3    27  ILE27       0.0276
     25  CG1       98.5560  176.2110   23.3600 C.3    27  ILE27       0.0022
     26  CG2       97.5050  176.9030   21.1830 C.3    27  ILE27       0.0022
     27  CD1       97.2490  175.8010   24.0130 C.3    27  ILE27       0.0001
     28  N        102.5590  178.6490   18.5190 N.3    30  GLY30      -0.1210
     29  CA       102.7860  177.3680   17.8740 C.3    30  GLY30       0.1956
     30  C        101.8600  177.0350   16.7260 C.2    30  GLY30       0.2611
     31  O        102.1330  176.0800   15.9920 O.2    30  GLY30      -0.2717
     32  N        100.7740  177.7870   16.5500 N.am   31  LEU31      -0.1979
     33  CA        99.9390  177.6440   15.3630 C.3    31  LEU31       0.1596
     34  C        100.3220  178.6090   14.2510 C.2    31  LEU31       0.2287
     35  O         99.9400  178.3820   13.0980 O.2    31  LEU31      -0.2864
     36  CB        98.4520  177.7990   15.7110 C.3    31  LEU31       0.0297
     37  CG        97.7640  176.5750   16.3410 C.3    31  LEU31       0.0022
     38  CD1       98.2280  176.2850   17.7560 C.3    31  LEU31       0.0001
     39  CD2       96.2460  176.7210   16.3030 C.3    31  LEU31       0.0001
     40  N        102.9400  178.4020   13.0400 N.3    33  THR33      -0.1203
     41  CA       103.7390  177.5220   12.1960 C.3    33  THR33       0.1994
     42  C        102.9630  177.0940   10.9560 C.2    33  THR33       0.2619
     43  O        103.5000  177.1140    9.8420 O.2    33  THR33      -0.2717
     44  CB       104.1800  176.2980   13.0020 C.3    33  THR33       0.1784
     45  OG1      105.2940  176.6410   13.8360 O.3    33  THR33      -0.2211
     46  CG2      104.5640  175.1500   12.0810 C.3    33  THR33       0.0376
     47  N        101.6960  176.7220   11.1270 N.am   34  SER34      -0.1937
     48  CA       100.8880  176.1880   10.0340 C.3    34  SER34       0.2055
     49  C        100.4880  177.3050    9.0780 C.2    34  SER34       0.2643
     50  O         99.7420  178.2140    9.4530 O.2    34  SER34      -0.2714
     51  CB        99.6520  175.4910   10.5920 C.3    34  SER34       0.2130
     52  OG        98.9520  174.8060    9.5690 O.3    34  SER34      -0.2179
     53  N        100.9900  177.2420    7.8410 N.am   35  LYS35      -0.1963
     54  CA       100.5370  178.1670    6.8060 C.3    35  LYS35       0.1728
     55  C         99.0450  178.0200    6.5400 C.2    35  LYS35       0.2617
     56  O         98.3690  179.0090    6.2320 O.2    35  LYS35      -0.2715
     57  CB       101.3320  177.9480    5.5190 C.3    35  LYS35       0.0311
     58  CG       102.7810  178.3780    5.6350 C.3    35  LYS35       0.0038
     59  CD       102.8910  179.7470    6.3200 C.3    35  LYS35       0.0206
     60  CE       104.3480  180.1970    6.4420 C.3    35  LYS35       0.1093
     61  NZ       105.1320  179.4150    7.4510 N.3    35  LYS35      -0.1314
     62  N         98.5230  176.7950    6.6380 N.am   36  THR36      -0.1937
     63  CA        97.0870  176.5710    6.4920 C.3    36  THR36       0.2028
     64  C         96.3040  177.3430    7.5470 C.2    36  THR36       0.2642
     65  O         95.3510  178.0650    7.2270 O.2    36  THR36      -0.2714
     66  CB        96.7750  175.0760    6.5830 C.3    36  THR36       0.1808
     67  OG1       97.3230  174.4010    5.4430 O.3    36  THR36      -0.2208
     68  CG2       95.2730  174.8430    6.6310 C.3    36  THR36       0.0379
     69  N         96.6800  177.1800    8.8190 N.am   37  PHE37      -0.1973
     70  CA        96.0030  177.8880    9.9020 C.3    37  PHE37       0.1639
     71  C         96.0440  179.3960    9.6860 C.2    37  PHE37       0.2290
     72  O         95.0560  180.0940    9.9440 O.2    37  PHE37      -0.2864
     73  CB        96.6280  177.5160   11.2490 C.3    37  PHE37       0.0560
     74  CG        96.2210  178.4190   12.3840 C.ar   37  PHE37      -0.0200
     75  CD1       95.0470  178.1910   13.0840 C.ar   37  PHE37      -0.0042
     76  CD2       97.0230  179.4860   12.7640 C.ar   37  PHE37      -0.0042
     77  CE1       94.6730  179.0170   14.1280 C.ar   37  PHE37      -0.0003
     78  CE2       96.6540  180.3140   13.8070 C.ar   37  PHE37      -0.0003
     79  CZ        95.4780  180.0780   14.4910 C.ar   37  PHE37      -0.0000
     80  N        107.9740  182.5360   25.4920 N.3   106  LEU106     -0.1245
     81  CA       107.3730  181.3360   26.0520 C.3   106  LEU106      0.1561
     82  C        108.2550  180.6730   27.1030 C.2   106  LEU106      0.2260
     83  O        107.7630  179.8270   27.8580 O.2   106  LEU106     -0.2867
     84  CB       107.0450  180.3420   24.9360 C.3   106  LEU106      0.0270
     85  CG       106.3110  180.9490   23.7350 C.3   106  LEU106      0.0019
     86  CD1      105.8520  179.8570   22.7830 C.3   106  LEU106      0.0001
     87  CD2      105.1430  181.8330   24.1670 C.3   106  LEU106      0.0001
     88  N        107.4130  180.9970   31.0340 N.3   109  LEU109     -0.1245
     89  CA       106.6580  180.0540   31.8550 C.3   109  LEU109      0.1561
     90  C        107.4610  179.5500   33.0480 C.2   109  LEU109      0.2260
     91  O        106.8880  179.2980   34.1140 O.2   109  LEU109     -0.2867
     92  CB       106.2000  178.8730   30.9980 C.3   109  LEU109      0.0270
     93  CG       105.2770  177.8400   31.6470 C.3   109  LEU109      0.0019
     94  CD1      103.9450  178.4650   32.0200 C.3   109  LEU109      0.0001
     95  CD2      105.0750  176.6590   30.7130 C.3   109  LEU109      0.0001
@<TRIPOS>BOND
     1    67    66    1
     2    57    58    1
     3    57    54    1
     4    58    59    1
     5    56    55    2
     6    59    60    1
     7    60    61    1
     8    63    66    1
     9    63    62    1
    10    63    64    1
    11    55    62   am
    12    55    54    1
    13    66    68    1
    14    54    53    1
    15    65    64    2
    16    64    69   am
    17    53    49   am
    18    69    70    1
    19    49    50    2
    20    49    48    1
    21    52    51    1
    22    71    70    1
    23    71    72    2
    24    43    42    2
    25    70    73    1
    26    48    51    1
    27    48    47    1
    28    42    47   am
    29    42    41    1
    30    73    74    1
    31    46    44    1
    32    41    44    1
    33    41    40    1
    34    74    76   ar
    35    74    75   ar
    36    76    78   ar
    37    44    45    1
    38    75    77   ar
    39    35    34    2
    40    78    79   ar
    41    77    79   ar
    42    34    33    1
    43    33    36    1
    44    33    32    1
    45    36    37    1
    46    31    30    2
    47    39    37    1
    48    37    38    1
    49    32    30   am
    50    30    29    1
    51    29    28    1
    52    23    22    2
    53    22    21    1
    54    26    24    1
    55    19    18    2
    56    21    24    1
    57    21    20    1
    58    24    25    1
    59    18    20   am
    60    18    17    1
    61    86    85    1
    62    25    27    1
    63    85    87    1
    64    85    84    1
    65    17    16    1
    66    84    81    1
    67    80    81    1
    68    12    11    2
    69    81    82    1
    70     4     3    2
    71    11    10    1
    72    82    83    2
    73     3     9   am
    74     3     2    1
    75    10     9    1
    76    10    13    1
    77    14    13    1
    78     2     1    1
    79     2     5    1
    80    13    15    1
    81     7     5    1
    82     8     6    1
    83     5     6    1
    84    95    93    1
    85    92    93    1
    86    92    89    1
    87    88    89    1
    88    93    94    1
    89    89    90    1
    90    90    91    2
