@<TRIPOS>MOLECULE
tmp/6mvwA00.pdb
 99 99 0 0 0
SMALL
GASTEIGER

@<TRIPOS>ATOM
      1  N        111.1680  177.2810   16.5890 N.3   146  MET146     -0.1245
      2  CA       112.1720  178.1360   15.9600 C.3   146  MET146      0.1570
      3  C        112.7770  177.4670   14.7330 C.2   146  MET146      0.2261
      4  O        112.8660  178.0750   13.6620 O.2   146  MET146     -0.2867
      5  CB       113.2700  178.4920   16.9620 C.3   146  MET146      0.0387
      6  CG       112.7620  179.1440   18.2220 C.3   146  MET146      0.0595
      7  SD       114.0240  179.3910   19.4810 S.3   146  MET146     -0.1393
      8  CE       114.2480  181.1610   19.3650 C.3   146  MET146      0.0692
      9  N        112.5310  178.7080   10.7600 N.3   150  LEU150     -0.1231
     10  CA       113.8370  179.1310   10.2700 C.3   150  LEU150      0.1693
     11  C        114.2780  178.3440    9.0460 C.2   150  LEU150      0.2592
     12  O        114.6910  178.9370    8.0450 O.2   150  LEU150     -0.2718
     13  CB       114.8910  179.0070   11.3790 C.3   150  LEU150      0.0284
     14  CG       114.9790  180.1920   12.3440 C.3   150  LEU150      0.0019
     15  CD1      115.9320  179.8910   13.4910 C.3   150  LEU150      0.0001
     16  CD2      115.3990  181.4590   11.6110 C.3   150  LEU150      0.0001
     17  N        114.2080  177.0130    9.1040 N.am  151  PHE151     -0.1976
     18  CA       114.7170  176.1590    8.0420 C.3   151  PHE151      0.1639
     19  C        113.6280  175.4000    7.2960 C.2   151  PHE151      0.2290
     20  O        113.9130  174.8260    6.2390 O.2   151  PHE151     -0.2864
     21  CB       115.7170  175.1400    8.6100 C.3   151  PHE151      0.0560
     22  CG       116.6400  175.7020    9.6550 C.ar  151  PHE151     -0.0200
     23  CD1      117.6570  176.5770    9.3100 C.ar  151  PHE151     -0.0042
     24  CD2      116.4950  175.3430   10.9850 C.ar  151  PHE151     -0.0042
     25  CE1      118.5070  177.0880   10.2740 C.ar  151  PHE151     -0.0003
     26  CE2      117.3410  175.8500   11.9530 C.ar  151  PHE151     -0.0003
     27  CZ       118.3490  176.7240   11.5970 C.ar  151  PHE151     -0.0000
     28  N        113.2230  176.0440    3.1170 N.3   154  ARG154     -0.1245
     29  CA       114.1500  175.3810    2.2120 C.3   154  ARG154      0.1563
     30  C        114.4120  173.9310    2.5920 C.2   154  ARG154      0.2260
     31  O        114.9850  173.1900    1.7850 O.2   154  ARG154     -0.2867
     32  CB       115.4760  176.1440    2.1520 C.3   154  ARG154      0.0307
     33  CG       115.3690  177.4990    1.4720 C.3   154  ARG154      0.0489
     34  CD       116.5680  177.7490    0.5710 C.3   154  ARG154      0.2205
     35  NE       116.5380  179.0760   -0.0360 N.pl3 154  ARG154     -0.0865
     36  CZ       117.5030  179.5620   -0.8090 C.cat 154  ARG154      0.5346
     37  NH1      118.5770  178.8290   -1.0690 N.pl3 154  ARG154      0.1354
     38  NH2      117.3940  180.7770   -1.3260 N.pl3 154  ARG154      0.1354
     39  N        123.2840  176.6460    3.2110 N.3   189  VAL189     -0.1231
     40  CA       122.2750  177.6490    2.8980 C.3   189  VAL189      0.1692
     41  C        122.2220  178.7330    3.9730 C.2   189  VAL189      0.2592
     42  O        122.2130  179.9260    3.6650 O.2   189  VAL189     -0.2718
     43  CB       120.8890  176.9940    2.6960 C.3   189  VAL189      0.0266
     44  CG1      119.8250  178.0530    2.4610 C.3   189  VAL189      0.0020
     45  CG2      120.9350  176.0080    1.5370 C.3   189  VAL189      0.0020
     46  N        122.2140  178.3340    5.2440 N.am  190  TYR190     -0.1963
     47  CA       122.2360  179.2690    6.3720 C.3   190  TYR190      0.1756
     48  C        123.5390  179.1040    7.1410 C.2   190  TYR190      0.2461
     49  O        123.6470  178.2090    7.9990 O.2   190  TYR190     -0.2730
     50  CB       121.0430  179.0410    7.3010 C.3   190  TYR190      0.0574
     51  CG       119.7000  178.9970    6.6070 C.ar  190  TYR190     -0.0198
     52  CD1      119.0470  180.1650    6.2390 C.ar  190  TYR190     -0.0009
     53  CD2      119.0780  177.7850    6.3350 C.ar  190  TYR190     -0.0009
     54  CE1      117.8150  180.1290    5.6100 C.ar  190  TYR190      0.0417
     55  CE2      117.8460  177.7400    5.7070 C.ar  190  TYR190      0.0417
     56  CZ       117.2200  178.9140    5.3470 C.ar  190  TYR190      0.1957
     57  OH       115.9950  178.8720    4.7210 O.3   190  TYR190     -0.2866
     58  N        124.5480  179.9450    6.8900 N.am  191  PRO191     -0.2716
     59  CA       125.8830  179.6800    7.4530 C.3   191  PRO191      0.1536
     60  C        125.9530  179.7830    8.9690 C.2   191  PRO191      0.2599
     61  O        126.8980  179.2470    9.5600 O.2   191  PRO191     -0.2715
     62  CB       126.7650  180.7440    6.7840 C.3   191  PRO191      0.0310
     63  CG       125.8200  181.8440    6.4260 C.3   191  PRO191      0.0237
     64  CD       124.5200  181.1740    6.0780 C.3   191  PRO191      0.0939
     65  N        124.9920  180.4420    9.6160 N.am  192  TYR192     -0.1960
     66  CA       124.9700  180.5650   11.0660 C.3   192  TYR192      0.1771
     67  C        124.1130  179.4960   11.7360 C.2   192  TYR192      0.2619
     68  O        123.7210  179.6680   12.8960 O.2   192  TYR192     -0.2715
     69  CB       124.4830  181.9580   11.4750 C.3   192  TYR192      0.0574
     70  CG       125.3990  183.0760   11.0360 C.ar  192  TYR192     -0.0198
     71  CD1      126.5460  183.3790   11.7580 C.ar  192  TYR192     -0.0009
     72  CD2      125.1190  183.8300    9.9040 C.ar  192  TYR192     -0.0009
     73  CE1      127.3900  184.3980   11.3640 C.ar  192  TYR192      0.0417
     74  CE2      125.9590  184.8550    9.5010 C.ar  192  TYR192      0.0417
     75  CZ       127.0920  185.1330   10.2360 C.ar  192  TYR192      0.1957
     76  OH       127.9340  186.1480    9.8460 O.3   192  TYR192     -0.2866
     77  N        123.8070  178.4030   11.0300 N.am  193  ALA193     -0.1977
     78  CA       123.0190  177.3270   11.6250 C.3   193  ALA193      0.1597
     79  C        123.7070  176.7360   12.8500 C.2   193  ALA193      0.2287
     80  O        123.0350  176.2240   13.7530 O.2   193  ALA193     -0.2864
     81  CB       122.7480  176.2390   10.5880 C.3   193  ALA193      0.0319
     82  N        125.0400  178.2860   15.1890 N.3   195  VAL195     -0.1231
     83  CA       124.6510  179.0570   16.3640 C.3   195  VAL195      0.1692
     84  C        123.3700  178.4950   16.9690 C.2   195  VAL195      0.2592
     85  O        123.1280  178.6320   18.1740 O.2   195  VAL195     -0.2718
     86  CB       124.5090  180.5470   15.9940 C.3   195  VAL195      0.0266
     87  CG1      124.0730  181.3740   17.1990 C.3   195  VAL195      0.0020
     88  CG2      125.8140  181.0810   15.4250 C.3   195  VAL195      0.0020
     89  N        122.5350  177.8500   16.1530 N.am  196  PHE196     -0.1976
     90  CA       121.2840  177.2850   16.6480 C.3   196  PHE196      0.1639
     91  C        121.5150  175.9620   17.3720 C.2   196  PHE196      0.2290
     92  O        120.9690  175.7390   18.4590 O.2   196  PHE196     -0.2864
     93  CB       120.3060  177.1040   15.4820 C.3   196  PHE196      0.0560
     94  CG       118.9350  176.6390   15.8930 C.ar  196  PHE196     -0.0200
     95  CD1      118.6820  175.3020   16.1600 C.ar  196  PHE196     -0.0042
     96  CD2      117.8910  177.5440   15.9940 C.ar  196  PHE196     -0.0042
     97  CE1      117.4190  174.8820   16.5350 C.ar  196  PHE196     -0.0003
     98  CE2      116.6260  177.1300   16.3650 C.ar  196  PHE196     -0.0003
     99  CZ       116.3890  175.7990   16.6360 C.ar  196  PHE196     -0.0000
@<TRIPOS>BOND
     1    38    36    1
     2    37    36    1
     3    36    35    2
     4    35    34    1
     5    34    33    1
     6    33    32    1
     7    45    43    1
     8    31    30    2
     9    32    29    1
    10    29    30    1
    11    29    28    1
    12    44    43    1
    13    43    40    1
    14    40    39    1
    15    40    41    1
    16    42    41    2
    17    41    46   am
    18    57    56    1
    19    46    47    1
    20    56    54   ar
    21    56    55   ar
    22    54    52   ar
    23    55    53   ar
    24    64    63    1
    25    64    58    1
    26    52    51   ar
    27    20    19    2
    28    53    51   ar
    29    47    48    1
    30    47    50    1
    31    63    62    1
    32    51    50    1
    33    62    59    1
    34    58    48   am
    35    58    59    1
    36    48    49    2
    37    19    18    1
    38    59    60    1
    39    18    21    1
    40    18    17    1
    41    12    11    2
    42    21    22    1
    43    60    61    2
    44    60    65   am
    45    11    17   am
    46    11    10    1
    47    23    22   ar
    48    23    25   ar
    49    74    72   ar
    50    74    75   ar
    51    65    66    1
    52    22    24   ar
    53    76    75    1
    54    72    70   ar
    55    75    73   ar
    56    10     9    1
    57    10    13    1
    58    25    27   ar
    59    81    78    1
    60    24    26   ar
    61    77    78    1
    62    77    67   am
    63    70    69    1
    64    70    71   ar
    65    66    69    1
    66    66    67    1
    67    73    71   ar
    68    13    14    1
    69    27    26   ar
    70    16    14    1
    71    78    79    1
    72    67    68    2
    73    14    15    1
    74    79    80    2
    75     4     3    2
    76     3     2    1
    77    82    83    1
    78    88    86    1
    79    93    94    1
    80    93    90    1
    81    94    96   ar
    82    94    95   ar
    83     2     1    1
    84     2     5    1
    85    96    98   ar
    86    86    83    1
    87    86    87    1
    88    89    90    1
    89    89    84   am
    90    95    97   ar
    91    83    84    1
    92    98    99   ar
    93    97    99   ar
    94    90    91    1
    95     5     6    1
    96    84    85    2
    97    91    92    2
    98     6     7    1
    99     8     7    1
