@<TRIPOS>MOLECULE
tmp/6mvyA02.pdb
 95 93 0 0 0
SMALL
GASTEIGER

@<TRIPOS>ATOM
      1  N        -33.1980   52.8230  -38.2780 N.3    77  PRO77      -0.2102
      2  CA       -33.7130   53.1010  -36.9330 C.3    77  PRO77       0.1504
      3  C        -34.1120   51.8410  -36.1870 C.2    77  PRO77       0.2575
      4  O        -33.8140   51.7120  -34.9930 O.2    77  PRO77      -0.2718
      5  CB       -34.9140   54.0200  -37.2080 C.3    77  PRO77       0.0282
      6  CG       -34.6750   54.5720  -38.5780 C.3    77  PRO77       0.0208
      7  CD       -33.9950   53.4800  -39.3250 C.3    77  PRO77       0.0893
      8  N        -34.7740   50.8970  -36.8630 N.am   78  TRP78      -0.1977
      9  CA       -35.2050   49.6770  -36.1880 C.3    78  TRP78       0.1640
     10  C        -34.0300   48.9070  -35.6110 C.2    78  TRP78       0.2290
     11  O        -34.1860   48.1880  -34.6180 O.2    78  TRP78      -0.2864
     12  CB       -35.9990   48.8030  -37.1530 C.3    78  TRP78       0.0576
     13  CG       -37.0860   49.5550  -37.8220 C.ar   78  TRP78       0.0006
     14  CD1      -37.0360   50.1520  -39.0410 C.ar   78  TRP78       0.0946
     15  CD2      -38.3990   49.8050  -37.3050 C.ar   78  TRP78       0.0152
     16  NE1      -38.2350   50.7610  -39.3220 N.ar   78  TRP78      -0.2442
     17  CE2      -39.0900   50.5600  -38.2720 C.ar   78  TRP78       0.0810
     18  CE3      -39.0560   49.4650  -36.1150 C.ar   78  TRP78       0.0012
     19  CZ2      -40.4050   50.9780  -38.0920 C.ar   78  TRP78       0.0191
     20  CZ3      -40.3610   49.8830  -35.9350 C.ar   78  TRP78       0.0001
     21  CH2      -41.0230   50.6300  -36.9200 C.ar   78  TRP78       0.0015
     22  N        -32.5830   51.0300  -32.5530 N.3    81  PHE81      -0.1241
     23  CA       -33.4090   50.6830  -31.4030 C.3    81  PHE81       0.1605
     24  C        -32.9650   49.3610  -30.7900 C.2    81  PHE81       0.2264
     25  O        -32.5120   49.3200  -29.6440 O.2    81  PHE81      -0.2867
     26  CB       -34.8760   50.6120  -31.8120 C.3    81  PHE81       0.0534
     27  CG       -35.7990   50.3350  -30.6680 C.ar   81  PHE81      -0.0203
     28  CD1      -36.0340   51.3000  -29.7050 C.ar   81  PHE81      -0.0042
     29  CD2      -36.4230   49.1040  -30.5420 C.ar   81  PHE81      -0.0042
     30  CE1      -36.8800   51.0520  -28.6450 C.ar   81  PHE81      -0.0003
     31  CE2      -37.2750   48.8460  -29.4800 C.ar   81  PHE81      -0.0003
     32  CZ       -37.5000   49.8250  -28.5280 C.ar   81  PHE81      -0.0000
     33  N        -40.4010   45.5530  -27.0740 N.3   106  PHE106     -0.1241
     34  CA       -40.7720   46.3120  -28.2570 C.3   106  PHE106      0.1605
     35  C        -40.0650   45.8220  -29.5130 C.2   106  PHE106      0.2264
     36  O        -40.4660   46.2100  -30.6150 O.2   106  PHE106     -0.2867
     37  CB       -40.4760   47.7950  -28.0550 C.3   106  PHE106      0.0534
     38  CG       -41.5170   48.5180  -27.2560 C.ar  106  PHE106     -0.0203
     39  CD1      -42.7910   48.7050  -27.7600 C.ar  106  PHE106     -0.0042
     40  CD2      -41.1970   49.0850  -26.0360 C.ar  106  PHE106     -0.0042
     41  CE1      -43.7430   49.3980  -27.0330 C.ar  106  PHE106     -0.0003
     42  CE2      -42.1440   49.7770  -25.3090 C.ar  106  PHE106     -0.0003
     43  CZ       -43.4170   49.9360  -25.8100 C.ar  106  PHE106     -0.0000
     44  N        -42.1890   44.6300  -32.1120 N.3   109  VAL109     -0.1231
     45  CA       -42.6400   45.5590  -33.1390 C.3   109  VAL109      0.1692
     46  C        -41.6160   45.6340  -34.2560 C.2   109  VAL109      0.2592
     47  O        -41.9650   45.5990  -35.4390 O.2   109  VAL109     -0.2718
     48  CB       -42.9120   46.9430  -32.5130 C.3   109  VAL109      0.0266
     49  CG1      -43.0460   48.0140  -33.5760 C.3   109  VAL109      0.0020
     50  CG2      -44.1600   46.8950  -31.6590 C.3   109  VAL109      0.0020
     51  N        -40.3360   45.7330  -33.8890 N.am  110  THR110     -0.1953
     52  CA       -39.2610   45.7710  -34.8740 C.3   110  THR110      0.1897
     53  C        -39.2010   44.4730  -35.6680 C.2   110  THR110      0.2313
     54  O        -39.2170   44.4830  -36.9020 O.2   110  THR110     -0.2863
     55  CB       -37.9240   46.0290  -34.1720 C.3   110  THR110      0.1794
     56  OG1      -37.8630   47.3870  -33.7200 O.3   110  THR110     -0.2208
     57  CG2      -36.7670   45.7610  -35.1140 C.3   110  THR110      0.0378
     58  N        -44.2630   47.1560  -37.8590 N.3   116  ARG116     -0.1245
     59  CA       -43.4760   48.3160  -38.2910 C.3   116  ARG116      0.1563
     60  C        -44.2800   49.2640  -39.1710 C.2   116  ARG116      0.2260
     61  O        -44.1780   50.4930  -39.0270 O.2   116  ARG116     -0.2867
     62  CB       -42.2120   47.8700  -39.0330 C.3   116  ARG116      0.0307
     63  CG       -41.1780   47.2010  -38.1540 C.3   116  ARG116      0.0489
     64  CD       -39.8380   47.0230  -38.8560 C.3   116  ARG116      0.2205
     65  NE       -39.6460   45.6950  -39.4230 N.pl3 116  ARG116     -0.0865
     66  CZ       -39.7540   45.4050  -40.7120 C.cat 116  ARG116      0.5346
     67  NH1      -40.0620   46.3620  -41.5810 N.pl3 116  ARG116      0.1354
     68  NH2      -39.5500   44.1620  -41.1340 N.pl3 116  ARG116      0.1354
     69  N        -46.3380   51.6200  -36.8600 N.3   119  VAL119     -0.1231
     70  CA       -45.5110   52.5800  -36.1300 C.3   119  VAL119      0.1692
     71  C        -44.9640   53.6370  -37.0770 C.2   119  VAL119      0.2592
     72  O        -45.0320   54.8430  -36.7940 O.2   119  VAL119     -0.2718
     73  CB       -44.3630   51.8580  -35.4040 C.3   119  VAL119      0.0266
     74  CG1      -43.4440   52.8760  -34.7460 C.3   119  VAL119      0.0020
     75  CG2      -44.8910   50.8690  -34.3940 C.3   119  VAL119      0.0020
     76  N        -44.4050   53.1890  -38.2160 N.am  120  SER120     -0.1952
     77  CA       -43.7520   54.0860  -39.1700 C.3   120  SER120      0.1924
     78  C        -44.7420   55.0620  -39.7860 C.2   120  SER120      0.2314
     79  O        -44.4050   56.2240  -40.0430 O.2   120  SER120     -0.2863
     80  CB       -43.0880   53.2790  -40.2680 C.3   120  SER120      0.2116
     81  OG       -44.0900   52.7600  -41.1190 O.3   120  SER120     -0.2180
     82  N        -45.0920   57.6380  -36.9420 N.3   123  ILE123     -0.1231
     83  CA       -43.9210   58.4720  -36.6940 C.3   123  ILE123      0.1692
     84  C        -43.7030   59.4660  -37.8350 C.2   123  ILE123      0.2592
     85  O        -43.2870   60.6080  -37.6020 O.2   123  ILE123     -0.2718
     86  CB       -42.6960   57.5740  -36.4380 C.3   123  ILE123      0.0266
     87  CG1      -42.8720   56.8540  -35.0960 C.3   123  ILE123      0.0019
     88  CG2      -41.4080   58.3700  -36.4920 C.3   123  ILE123      0.0020
     89  CD1      -41.6850   56.0410  -34.6600 C.3   123  ILE123      0.0001
     90  N        -43.9970   59.0670  -39.0790 N.am  124  SER124     -0.1952
     91  CA       -43.7820   59.9730  -40.2090 C.3   124  SER124      0.1924
     92  C        -44.7830   61.1210  -40.2100 C.2   124  SER124      0.2314
     93  O        -44.4770   62.2140  -40.6950 O.2   124  SER124     -0.2863
     94  CB       -43.8360   59.2020  -41.5260 C.3   124  SER124      0.2116
     95  OG       -43.1650   57.9600  -41.4090 O.3   124  SER124     -0.2180
@<TRIPOS>BOND
     1    67    66    1
     2    94    95    1
     3    94    91    1
     4    68    66    1
     5    81    80    1
     6    66    65    2
     7    93    92    2
     8    80    77    1
     9    92    91    1
    10    91    90    1
    11    79    78    2
    12    78    77    1
    13    65    64    1
    14     7     6    1
    15     7     1    1
    16    16    14   ar
    17    16    17   ar
    18    60    61    2
    19    60    59    1
    20    77    76    1
    21    90    84   am
    22    14    13   ar
    23    62    59    1
    24    62    63    1
    25    64    63    1
    26     6     5    1
    27    59    58    1
    28     1     2    1
    29    17    19   ar
    30    17    15   ar
    31    76    71   am
    32    19    21   ar
    33    84    85    2
    34    84    83    1
    35    13    15   ar
    36    13    12    1
    37    15    18   ar
    38     5     2    1
    39    12     9    1
    40    71    72    2
    41    71    70    1
    42    82    83    1
    43     2     3    1
    44    21    20   ar
    45    54    53    2
    46     8     9    1
    47     8     3   am
    48    69    70    1
    49    83    86    1
    50    88    86    1
    51    86    87    1
    52     9    10    1
    53     3     4    2
    54    70    73    1
    55    18    20   ar
    56    53    52    1
    57    10    11    2
    58    47    46    2
    59    73    74    1
    60    73    75    1
    61    57    55    1
    62    87    89    1
    63    52    55    1
    64    52    51    1
    65    46    51   am
    66    46    45    1
    67    55    56    1
    68    49    48    1
    69    45    48    1
    70    45    44    1
    71    22    23    1
    72    48    50    1
    73    26    23    1
    74    26    27    1
    75    23    24    1
    76    24    25    2
    77    27    29   ar
    78    27    28   ar
    79    36    35    2
    80    29    31   ar
    81    28    30   ar
    82    35    34    1
    83    31    32   ar
    84    30    32   ar
    85    34    37    1
    86    34    33    1
    87    37    38    1
    88    39    38   ar
    89    39    41   ar
    90    38    40   ar
    91    41    43   ar
    92    40    42   ar
    93    43    42   ar
