@<TRIPOS>MOLECULE
tmp/6mwbA02.pdb
 104 102 0 0 0
SMALL
GASTEIGER

@<TRIPOS>ATOM
      1  N        -71.1680  -31.8930  -57.7540 N.3    77  PRO77      -0.2102
      2  CA       -70.9510  -32.5010  -59.0790 C.3    77  PRO77       0.1504
      3  C        -72.2430  -32.8680  -59.7830 C.2    77  PRO77       0.2575
      4  O        -72.3640  -32.6690  -61.0000 O.2    77  PRO77      -0.2718
      5  CB       -70.1040  -33.7440  -58.7620 C.3    77  PRO77       0.0282
      6  CG       -69.5070  -33.4840  -57.4250 C.3    77  PRO77       0.0208
      7  CD       -70.5080  -32.6490  -56.6790 C.3    77  PRO77       0.0893
      8  N        -73.2160  -33.4030  -59.0390 N.am   78  TRP78      -0.1977
      9  CA       -74.4880  -33.7890  -59.6410 C.3    78  TRP78       0.1640
     10  C        -75.2040  -32.5880  -60.2400 C.2    78  TRP78       0.2290
     11  O        -75.7920  -32.6810  -61.3230 O.2    78  TRP78      -0.2864
     12  CB       -75.3730  -34.4670  -58.5970 C.3    78  TRP78       0.0576
     13  CG       -74.6780  -35.5580  -57.8590 C.ar   78  TRP78       0.0006
     14  CD1      -74.1160  -35.4780  -56.6220 C.ar   78  TRP78       0.0946
     15  CD2      -74.4530  -36.8960  -58.3180 C.ar   78  TRP78       0.0152
     16  NE1      -73.5610  -36.6840  -56.2770 N.ar   78  TRP78      -0.2442
     17  CE2      -73.7550  -37.5740  -57.2970 C.ar   78  TRP78       0.0810
     18  CE3      -74.7810  -37.5890  -59.4860 C.ar   78  TRP78       0.0012
     19  CZ2      -73.3770  -38.9120  -57.4090 C.ar   78  TRP78       0.0191
     20  CZ3      -74.4030  -38.9170  -59.5980 C.ar   78  TRP78       0.0001
     21  CH2      -73.7090  -39.5650  -58.5670 C.ar   78  TRP78       0.0015
     22  N        -73.4150  -31.3530  -63.3440 N.3    81  PHE81      -0.1241
     23  CA       -73.7670  -32.2040  -64.4740 C.3    81  PHE81       0.1605
     24  C        -75.1200  -31.8170  -65.0510 C.2    81  PHE81       0.2264
     25  O        -75.2790  -31.7090  -66.2720 O.2    81  PHE81      -0.2867
     26  CB       -73.7710  -33.6740  -64.0670 C.3    81  PHE81       0.0534
     27  CG       -74.1110  -34.5920  -65.1990 C.ar   81  PHE81      -0.0203
     28  CD1      -73.1210  -35.0240  -66.0770 C.ar   81  PHE81      -0.0042
     29  CD2      -75.4220  -34.9940  -65.4190 C.ar   81  PHE81      -0.0042
     30  CE1      -73.4250  -35.8600  -67.1460 C.ar   81  PHE81      -0.0003
     31  CE2      -75.7380  -35.8320  -66.4900 C.ar   81  PHE81      -0.0003
     32  CZ       -74.7330  -36.2650  -67.3540 C.ar   81  PHE81      -0.0000
     33  N        -79.1200  -38.9600  -68.7310 N.3   106  PHE106     -0.1241
     34  CA       -78.3820  -39.3330  -67.5290 C.3   106  PHE106      0.1605
     35  C        -78.8850  -38.5730  -66.3210 C.2   106  PHE106      0.2264
     36  O        -78.5970  -38.9670  -65.1890 O.2   106  PHE106     -0.2867
     37  CB       -76.8840  -39.0840  -67.6870 C.3   106  PHE106      0.0534
     38  CG       -76.1950  -40.0920  -68.5470 C.ar  106  PHE106     -0.0203
     39  CD1      -76.0660  -41.4060  -68.1280 C.ar  106  PHE106     -0.0042
     40  CD2      -75.6840  -39.7310  -69.7870 C.ar  106  PHE106     -0.0042
     41  CE1      -75.4230  -42.3460  -68.9290 C.ar  106  PHE106     -0.0003
     42  CE2      -75.0480  -40.6660  -70.5840 C.ar  106  PHE106     -0.0003
     43  CZ       -74.9200  -41.9750  -70.1530 C.ar  106  PHE106     -0.0000
     44  N        -80.1080  -40.4050  -63.6150 N.3   109  VAL109     -0.1231
     45  CA       -79.1840  -40.8450  -62.5770 C.3   109  VAL109      0.1692
     46  C        -79.0280  -39.7710  -61.5080 C.2   109  VAL109      0.2592
     47  O        -79.1010  -40.0540  -60.3080 O.2   109  VAL109     -0.2718
     48  CB       -77.8210  -41.2260  -63.1870 C.3   109  VAL109      0.0266
     49  CG1      -76.8180  -41.5100  -62.0870 C.3   109  VAL109      0.0020
     50  CG2      -77.9690  -42.4210  -64.0900 C.3   109  VAL109      0.0020
     51  N        -78.8100  -38.5200  -61.9190 N.am  110  THR110     -0.1953
     52  CA       -78.5650  -37.4610  -60.9430 C.3   110  THR110      0.1897
     53  C        -79.7930  -37.1230  -60.1090 C.2   110  THR110      0.2313
     54  O        -79.6540  -36.4480  -59.0870 O.2   110  THR110     -0.2863
     55  CB       -78.0660  -36.1960  -61.6410 C.3   110  THR110      0.1794
     56  OG1      -79.1430  -35.6110  -62.3820 O.3   110  THR110     -0.2208
     57  CG2      -76.9240  -36.5340  -62.5870 C.3   110  THR110      0.0378
     58  N        -77.5680  -42.4350  -57.8900 N.3   116  ARG116     -0.1245
     59  CA       -76.4520  -41.6610  -57.3480 C.3   116  ARG116      0.1563
     60  C        -75.5070  -42.5490  -56.5470 C.2   116  ARG116      0.2260
     61  O        -74.2890  -42.5400  -56.7640 O.2   116  ARG116     -0.2867
     62  CB       -76.9730  -40.5350  -56.4580 C.3   116  ARG116      0.0307
     63  CG       -77.4580  -39.2760  -57.1450 C.3   116  ARG116      0.0489
     64  CD       -78.2780  -38.4730  -56.1340 C.3   116  ARG116      0.2205
     65  NE       -78.3970  -37.0570  -56.4620 N.pl3 116  ARG116     -0.0865
     66  CZ       -77.8510  -36.0800  -55.7470 C.cat 116  ARG116      0.5346
     67  NH1      -77.1500  -36.3670  -54.6580 N.pl3 116  ARG116      0.1354
     68  NH2      -78.0110  -34.8140  -56.1150 N.pl3 116  ARG116      0.1354
     69  N        -73.3220  -44.9050  -58.6140 N.3   119  VAL119     -0.1231
     70  CA       -72.2270  -44.2130  -59.2830 C.3   119  VAL119      0.1692
     71  C        -71.1930  -43.7450  -58.2660 C.2   119  VAL119      0.2592
     72  O        -69.9830  -43.8350  -58.5040 O.2   119  VAL119     -0.2718
     73  CB       -72.7810  -43.0540  -60.1320 C.3   119  VAL119      0.0266
     74  CG1      -71.6510  -42.2680  -60.7930 C.3   119  VAL119      0.0020
     75  CG2      -73.7450  -43.6000  -61.1800 C.3   119  VAL119      0.0020
     76  N        -71.6480  -43.2550  -57.1100 N.am  120  SER120     -0.1952
     77  CA       -70.7110  -42.8550  -56.0650 C.3   120  SER120      0.1924
     78  C        -69.8240  -44.0190  -55.6560 C.2   120  SER120      0.2314
     79  O        -68.5940  -43.8890  -55.5970 O.2   120  SER120     -0.2863
     80  CB       -71.4660  -42.3110  -54.8610 C.3   120  SER120      0.2116
     81  OG       -72.0790  -41.0870  -55.1980 O.3   120  SER120     -0.2180
     82  N        -69.0650  -46.7850  -57.3530 N.3   122  LEU122     -0.1231
     83  CA       -68.1360  -47.1720  -58.4120 C.3   122  LEU122      0.1693
     84  C        -67.0060  -46.1630  -58.5420 C.2   122  LEU122      0.2591
     85  O        -65.8360  -46.5380  -58.6740 O.2   122  LEU122     -0.2718
     86  CB       -68.8760  -47.3250  -59.7400 C.3   122  LEU122      0.0284
     87  CG       -69.9310  -48.4330  -59.7750 C.3   122  LEU122      0.0019
     88  CD1      -70.9190  -48.1820  -60.8930 C.3   122  LEU122      0.0001
     89  CD2      -69.2720  -49.7970  -59.9290 C.3   122  LEU122      0.0001
     90  N        -67.3370  -44.8760  -58.4900 N.am  123  ILE123     -0.1980
     91  CA       -66.3310  -43.8350  -58.6370 C.3   123  ILE123      0.1595
     92  C        -65.3210  -43.8860  -57.5060 C.2   123  ILE123      0.2287
     93  O        -64.1610  -43.4960  -57.6850 O.2   123  ILE123     -0.2864
     94  CB       -67.0210  -42.4620  -58.7090 C.3   123  ILE123      0.0276
     95  CG1      -67.7170  -42.2860  -60.0590 C.3   123  ILE123      0.0022
     96  CG2      -66.0310  -41.3410  -58.4390 C.3   123  ILE123      0.0022
     97  CD1      -68.5310  -41.0170  -60.1400 C.3   123  ILE123      0.0001
     98  N        -60.0180  -42.7240  -57.0920 N.3   127  PRO127     -0.2116
     99  CA       -58.9220  -41.9000  -56.5420 C.3   127  PRO127      0.1372
    100  C        -57.7000  -42.7110  -56.1270 C.2   127  PRO127      0.2244
    101  O        -56.5680  -42.3180  -56.4320 O.2   127  PRO127     -0.2868
    102  CB       -59.5870  -41.1890  -55.3600 C.3   127  PRO127      0.0268
    103  CG       -61.0290  -41.1580  -55.7130 C.3   127  PRO127      0.0207
    104  CD       -61.2920  -42.4610  -56.4080 C.3   127  PRO127      0.0892
@<TRIPOS>BOND
     1    42    43   ar
     2    42    40   ar
     3    43    41   ar
     4    40    38   ar
     5    41    39   ar
     6    33    34    1
     7    38    39   ar
     8    38    37    1
     9    37    34    1
    10    34    35    1
    11    32    30   ar
    12    32    31   ar
    13    30    28   ar
    14    31    29   ar
    15    35    36    2
    16    25    24    2
    17    28    27   ar
    18    29    27   ar
    19    27    26    1
    20    24    23    1
    21    23    26    1
    22    23    22    1
    23    50    48    1
    24    44    45    1
    25    48    45    1
    26    48    49    1
    27    57    55    1
    28    45    46    1
    29    56    55    1
    30    51    46   am
    31    51    52    1
    32    55    52    1
    33    46    47    2
    34    11    10    2
    35    75    73    1
    36     4     3    2
    37    52    53    1
    38    88    87    1
    39    74    73    1
    40    10     9    1
    41    97    95    1
    42    73    70    1
    43    53    54    2
    44    95    94    1
    45    89    87    1
    46     3     2    1
    47     3     8   am
    48    87    86    1
    49    86    83    1
    50     9     8    1
    51     9    12    1
    52    20    18   ar
    53    20    21   ar
    54    18    15   ar
    55    70    69    1
    56    70    71    1
    57     2     5    1
    58     2     1    1
    59     5     6    1
    60    94    91    1
    61    94    96    1
    62    85    84    2
    63    91    90    1
    64    91    92    1
    65    12    13    1
    66    21    19   ar
    67    84    90   am
    68    84    83    1
    69    72    71    2
    70    83    82    1
    71    15    13   ar
    72    15    17   ar
    73    71    76   am
    74    58    59    1
    75    13    14   ar
    76     1     7    1
    77    93    92    2
    78     6     7    1
    79    19    17   ar
    80    59    60    1
    81    59    62    1
    82    17    16   ar
    83    63    62    1
    84    63    64    1
    85    76    77    1
    86    98    99    1
    87    98   104    1
    88    61    60    2
    89    14    16   ar
    90    99   100    1
    91    99   102    1
    92    65    64    1
    93    65    66    2
    94   101   100    2
    95   104   103    1
    96    68    66    1
    97    77    78    1
    98    77    80    1
    99    66    67    1
   100   103   102    1
   101    78    79    2
   102    81    80    1
