@<TRIPOS>MOLECULE
tmp/6mwgA02.pdb
 86 85 0 0 0
SMALL
GASTEIGER

@<TRIPOS>ATOM
      1  N        -71.5620  -32.0830  -57.5650 N.3    77  PRO77      -0.2102
      2  CA       -71.3180  -32.6650  -58.8980 C.3    77  PRO77       0.1504
      3  C        -72.5900  -33.0730  -59.6150 C.2    77  PRO77       0.2575
      4  O        -72.6720  -32.9410  -60.8430 O.2    77  PRO77      -0.2718
      5  CB       -70.4240  -33.8800  -58.6000 C.3    77  PRO77       0.0282
      6  CG       -69.9290  -33.6840  -57.1900 C.3    77  PRO77       0.0208
      7  CD       -71.0070  -32.9140  -56.4860 C.3    77  PRO77       0.0893
      8  N        -73.5910  -33.5650  -58.8790 N.am   78  TRP78      -0.1977
      9  CA       -74.8310  -34.0030  -59.5110 C.3    78  TRP78       0.1640
     10  C        -75.5620  -32.8380  -60.1620 C.2    78  TRP78       0.2290
     11  O        -76.1070  -32.9770  -61.2620 O.2    78  TRP78      -0.2864
     12  CB       -75.7220  -34.6900  -58.4830 C.3    78  TRP78       0.0576
     13  CG       -74.9960  -35.7230  -57.6930 C.ar   78  TRP78       0.0006
     14  CD1      -74.4980  -35.5850  -56.4340 C.ar   78  TRP78       0.0946
     15  CD2      -74.6650  -37.0520  -58.1160 C.ar   78  TRP78       0.0152
     16  NE1      -73.8860  -36.7500  -56.0400 N.ar   78  TRP78      -0.2442
     17  CE2      -73.9750  -37.6660  -57.0530 C.ar   78  TRP78       0.0810
     18  CE3      -74.8940  -37.7840  -59.2860 C.ar   78  TRP78       0.0012
     19  CZ2      -73.5090  -38.9780  -57.1220 C.ar   78  TRP78       0.0191
     20  CZ3      -74.4300  -39.0880  -59.3540 C.ar   78  TRP78       0.0001
     21  CH2      -73.7460  -39.6710  -58.2770 C.ar   78  TRP78       0.0015
     22  N        -73.6260  -31.5840  -63.2080 N.3    81  PHE81      -0.1241
     23  CA       -73.9630  -32.3970  -64.3700 C.3    81  PHE81       0.1605
     24  C        -75.3210  -32.0070  -64.9340 C.2    81  PHE81       0.2264
     25  O        -75.4760  -31.8520  -66.1500 O.2    81  PHE81      -0.2867
     26  CB       -73.9520  -33.8760  -64.0050 C.3    81  PHE81       0.0534
     27  CG       -74.3030  -34.7660  -65.1500 C.ar   81  PHE81      -0.0203
     28  CD1      -73.3130  -35.2480  -65.9910 C.ar   81  PHE81      -0.0042
     29  CD2      -75.6250  -35.1080  -65.4040 C.ar   81  PHE81      -0.0042
     30  CE1      -73.6300  -36.0640  -67.0540 C.ar   81  PHE81      -0.0003
     31  CE2      -75.9520  -35.9260  -66.4740 C.ar   81  PHE81      -0.0003
     32  CZ       -74.9540  -36.4050  -67.2980 C.ar   81  PHE81      -0.0000
     33  N        -79.3300  -39.1930  -68.6820 N.3   105  PHE105     -0.1241
     34  CA       -78.5820  -39.5130  -67.4720 C.3   105  PHE105      0.1605
     35  C        -79.0770  -38.7100  -66.2860 C.2   105  PHE105      0.2264
     36  O        -78.7580  -39.0440  -65.1400 O.2   105  PHE105     -0.2867
     37  CB       -77.0920  -39.2570  -67.6750 C.3   105  PHE105      0.0534
     38  CG       -76.4080  -40.3110  -68.4820 C.ar  105  PHE105     -0.0203
     39  CD1      -75.6620  -39.9720  -69.6020 C.ar  105  PHE105     -0.0042
     40  CD2      -76.5010  -41.6460  -68.1180 C.ar  105  PHE105     -0.0042
     41  CE1      -75.0270  -40.9480  -70.3500 C.ar  105  PHE105     -0.0003
     42  CE2      -75.8660  -42.6280  -68.8610 C.ar  105  PHE105     -0.0003
     43  CZ       -75.1300  -42.2800  -69.9790 C.ar  105  PHE105     -0.0000
     44  N        -80.3030  -40.6230  -63.5440 N.3   108  VAL108     -0.1231
     45  CA       -79.3570  -41.0230  -62.5040 C.3   108  VAL108      0.1692
     46  C        -79.2170  -39.9250  -61.4560 C.2   108  VAL108      0.2592
     47  O        -79.1170  -40.2070  -60.2570 O.2   108  VAL108     -0.2718
     48  CB       -77.9910  -41.3740  -63.1250 C.3   108  VAL108      0.0266
     49  CG1      -76.9970  -41.7720  -62.0480 C.3   108  VAL108      0.0020
     50  CG2      -78.1340  -42.4660  -64.1560 C.3   108  VAL108      0.0020
     51  N        -79.2030  -38.6600  -61.8890 N.am  109  THR109     -0.1953
     52  CA       -79.0680  -37.5560  -60.9440 C.3   109  THR109      0.1897
     53  C        -80.2450  -37.5040  -59.9830 C.2   109  THR109      0.2313
     54  O        -80.0730  -37.2210  -58.7920 O.2   109  THR109     -0.2863
     55  CB       -78.9560  -36.2250  -61.6860 C.3   109  THR109      0.1794
     56  OG1      -77.7060  -36.1650  -62.3670 O.3   109  THR109     -0.2208
     57  CG2      -79.0180  -35.0790  -60.6990 C.3   109  THR109      0.0378
     58  N        -73.6540  -45.1160  -58.5570 N.3   118  VAL118     -0.1231
     59  CA       -72.5860  -44.4110  -59.2530 C.3   118  VAL118      0.1692
     60  C        -71.5220  -43.9420  -58.2670 C.2   118  VAL118      0.2592
     61  O        -70.3210  -44.1170  -58.5060 O.2   118  VAL118     -0.2718
     62  CB       -73.1740  -43.2540  -60.0830 C.3   118  VAL118      0.0266
     63  CG1      -72.0680  -42.4120  -60.7020 C.3   118  VAL118      0.0020
     64  CG2      -74.0850  -43.8120  -61.1640 C.3   118  VAL118      0.0020
     65  N        -71.9380  -43.3550  -57.1370 N.am  119  SER119     -0.1952
     66  CA       -70.9730  -42.9690  -56.1110 C.3   119  SER119      0.1924
     67  C        -70.1250  -44.1570  -55.6880 C.2   119  SER119      0.2314
     68  O        -68.8910  -44.0820  -55.6730 O.2   119  SER119     -0.2863
     69  CB       -71.6910  -42.3720  -54.9060 C.3   119  SER119      0.2116
     70  OG       -72.1280  -41.0640  -55.2090 O.3   119  SER119     -0.2180
     71  N        -69.4650  -46.8980  -57.3080 N.3   121  LEU121     -0.1231
     72  CA       -68.5600  -47.3200  -58.3720 C.3   121  LEU121      0.1693
     73  C        -67.4000  -46.3510  -58.5240 C.2   121  LEU121      0.2591
     74  O        -66.2530  -46.7660  -58.7180 O.2   121  LEU121     -0.2718
     75  CB       -69.3240  -47.4590  -59.6880 C.3   121  LEU121      0.0284
     76  CG       -70.3150  -48.6190  -59.6720 C.3   121  LEU121      0.0019
     77  CD1      -71.4590  -48.3670  -60.6320 C.3   121  LEU121      0.0001
     78  CD2      -69.5850  -49.9030  -60.0170 C.3   121  LEU121      0.0001
     79  N        -67.6800  -45.0520  -58.4320 N.am  122  ILE122     -0.1980
     80  CA       -66.6410  -44.0470  -58.5690 C.3   122  ILE122      0.1595
     81  C        -65.6210  -44.1250  -57.4450 C.2   122  ILE122      0.2287
     82  O        -64.4830  -43.6730  -57.6220 O.2   122  ILE122     -0.2864
     83  CB       -67.2900  -42.6520  -58.6200 C.3   122  ILE122      0.0276
     84  CG1      -68.1060  -42.5250  -59.8960 C.3   122  ILE122      0.0022
     85  CG2      -66.2460  -41.5590  -58.5630 C.3   122  ILE122      0.0022
     86  CD1      -67.3550  -43.0060  -61.1040 C.3   122  ILE122      0.0001
@<TRIPOS>BOND
     1    41    43   ar
     2    41    39   ar
     3    43    42   ar
     4    39    38   ar
     5    42    40   ar
     6    33    34    1
     7    38    40   ar
     8    38    37    1
     9    37    34    1
    10    34    35    1
    11    32    30   ar
    12    32    31   ar
    13    30    28   ar
    14    31    29   ar
    15    35    36    2
    16    25    24    2
    17    28    27   ar
    18    29    27   ar
    19    27    26    1
    20    24    23    1
    21    23    26    1
    22    23    22    1
    23    50    48    1
    24    44    45    1
    25    48    45    1
    26    48    49    1
    27    45    46    1
    28    56    55    1
    29    51    46   am
    30    51    52    1
    31    55    52    1
    32    55    57    1
    33    46    47    2
    34    11    10    2
    35    64    62    1
    36    86    84    1
    37    52    53    1
    38     4     3    2
    39    63    62    1
    40    77    76    1
    41    10     9    1
    42    62    59    1
    43    78    76    1
    44    53    54    2
    45    84    83    1
    46    75    76    1
    47    75    72    1
    48     3     2    1
    49     3     8   am
    50     9     8    1
    51     9    12    1
    52    20    18   ar
    53    20    21   ar
    54    18    15   ar
    55    59    58    1
    56    59    60    1
    57     2     5    1
    58     2     1    1
    59    74    73    2
    60    83    80    1
    61    83    85    1
    62     5     6    1
    63    80    79    1
    64    80    81    1
    65    73    79   am
    66    73    72    1
    67    61    60    2
    68    12    13    1
    69    72    71    1
    70    21    19   ar
    71    60    65   am
    72    15    13   ar
    73    15    17   ar
    74    13    14   ar
    75    82    81    2
    76     1     7    1
    77     6     7    1
    78    65    66    1
    79    19    17   ar
    80    17    16   ar
    81    14    16   ar
    82    66    67    1
    83    66    69    1
    84    67    68    2
    85    70    69    1
