@<TRIPOS>MOLECULE
tmp/6mx3A01.pdb
 83 81 0 0 0
SMALL
GASTEIGER

@<TRIPOS>ATOM
      1  N         53.4680   26.9030   77.1490 N.3     6  LEU6       -0.1245
      2  CA        53.1330   26.2620   75.8900 C.3     6  LEU6        0.1561
      3  C         54.2030   26.5390   74.8430 C.2     6  LEU6        0.2260
      4  O         54.6040   25.6270   74.1180 O.2     6  LEU6       -0.2867
      5  CB        51.7490   26.7070   75.3890 C.3     6  LEU6        0.0270
      6  CG        50.5970   26.3810   76.3230 C.3     6  LEU6        0.0019
      7  CD1       49.3000   26.9060   75.7450 C.3     6  LEU6        0.0001
      8  CD2       50.4330   24.8640   76.5230 C.3     6  LEU6        0.0001
      9  N         57.6230   24.6780   75.8600 N.3     9  SER9       -0.1202
     10  CA        57.5920   23.2260   75.6560 C.3     9  SER9        0.2020
     11  C         57.5880   22.8740   74.1730 C.2     9  SER9        0.2618
     12  O         58.2740   21.9560   73.7410 O.2     9  SER9       -0.2717
     13  CB        56.4010   22.6030   76.3830 C.3     9  SER9        0.2103
     14  OG        55.1640   23.1530   75.9780 O.3     9  SER9       -0.2182
     15  N         56.7930   23.6290   73.3740 N.am   10  TYR10      -0.1975
     16  CA        56.6940   23.3520   71.9360 C.3    10  TYR10       0.1639
     17  C         58.0450   23.5490   71.2730 C.2    10  TYR10       0.2290
     18  O         58.4480   22.7070   70.4390 O.2    10  TYR10      -0.2864
     19  CB        55.6760   24.3170   71.3700 C.3    10  TYR10       0.0560
     20  CG        55.3240   24.1090   69.9160 C.ar   10  TYR10      -0.0198
     21  CD1       54.9550   22.8530   69.4300 C.ar   10  TYR10      -0.0009
     22  CD2       55.3240   25.1710   69.0320 C.ar   10  TYR10      -0.0009
     23  CE1       54.5910   22.6790   68.0850 C.ar   10  TYR10       0.0417
     24  CE2       54.9560   25.0120   67.7050 C.ar   10  TYR10       0.0417
     25  CZ        54.6000   23.7640   67.2360 C.ar   10  TYR10       0.1957
     26  OH        54.2600   23.6980   65.9060 O.3    10  TYR10      -0.2866
     27  N         61.2130   23.5570   72.9890 N.3    12  ILE12      -0.1231
     28  CA        62.2930   22.7680   73.5140 C.3    12  ILE12       0.1692
     29  C         62.0770   21.2610   73.3640 C.2    12  ILE12       0.2593
     30  O         63.0770   20.5250   73.2720 O.2    12  ILE12      -0.2718
     31  CB        62.6150   23.2360   74.9580 C.3    12  ILE12       0.0266
     32  CG1       64.1410   23.2500   75.1820 C.3    12  ILE12       0.0019
     33  CG2       61.8400   22.4530   75.9830 C.3    12  ILE12       0.0020
     34  CD1       64.6070   24.2500   76.1690 C.3    12  ILE12       0.0001
     35  N         60.8280   20.8180   73.2530 N.am   13  GLY13      -0.1942
     36  CA        60.4990   19.4110   73.1070 C.3    13  GLY13       0.2014
     37  C         60.1610   18.9520   71.6950 C.2    13  GLY13       0.2638
     38  O         59.8890   17.7670   71.4550 O.2    13  GLY13      -0.2714
     39  N         60.1240   19.9030   70.7360 N.am   14  TYR14      -0.1973
     40  CA        59.7380   19.5340   69.3800 C.3    14  TYR14       0.1639
     41  C         60.4820   20.3400   68.3340 C.2    14  TYR14       0.2290
     42  O         61.2790   19.7780   67.5870 O.2    14  TYR14      -0.2864
     43  CB        58.2060   19.6410   69.2230 C.3    14  TYR14       0.0560
     44  CG        57.7260   19.3190   67.8210 C.ar   14  TYR14      -0.0198
     45  CD1       57.8730   18.0380   67.2920 C.ar   14  TYR14      -0.0009
     46  CD2       57.1390   20.2950   67.0210 C.ar   14  TYR14      -0.0009
     47  CE1       57.4290   17.7320   66.0060 C.ar   14  TYR14       0.0417
     48  CE2       56.6710   19.9930   65.7450 C.ar   14  TYR14       0.0417
     49  CZ        56.7940   18.7070   65.2600 C.ar   14  TYR14       0.1957
     50  OH        56.3670   18.4050   63.9860 O.3    14  TYR14      -0.2866
     51  N         62.9620   22.4370   68.4210 N.3    16  ARG16      -0.1231
     52  CA        64.4060   22.4060   68.5590 C.3    16  ARG16       0.1694
     53  C         64.9770   21.0950   68.0220 C.2    16  ARG16       0.2591
     54  O         66.1280   21.0800   67.5570 O.2    16  ARG16      -0.2718
     55  CB        64.7170   22.5180   70.0620 C.3    16  ARG16       0.0321
     56  CG        66.2020   22.4160   70.4220 C.3    16  ARG16       0.0489
     57  CD        66.4190   22.5150   71.9240 C.3    16  ARG16       0.2205
     58  NE        65.7780   21.4300   72.6910 N.pl3  16  ARG16      -0.0865
     59  CZ        66.4010   20.3750   73.2090 C.cat  16  ARG16       0.5346
     60  NH1       67.7060   20.2080   73.0240 N.pl3  16  ARG16       0.1354
     61  NH2       65.7290   19.4860   73.9160 N.pl3  16  ARG16       0.1354
     62  N         64.2160   20.0090   68.1160 N.am   17  LEU17      -0.1980
     63  CA        64.6560   18.6760   67.7120 C.3    17  LEU17       0.1596
     64  C         64.4590   18.4000   66.2420 C.2    17  LEU17       0.2287
     65  O         65.2560   17.6680   65.6580 O.2    17  LEU17      -0.2864
     66  CB        63.9430   17.5980   68.5450 C.3    17  LEU17       0.0297
     67  CG        64.1980   17.6510   70.0670 C.3    17  LEU17       0.0022
     68  CD1       63.4390   16.5600   70.7460 C.3    17  LEU17       0.0001
     69  CD2       65.6820   17.5470   70.3890 C.3    17  LEU17       0.0001
     70  N         50.1410   22.6060   67.4740 N.3    94  THR94      -0.1204
     71  CA        49.2530   21.7400   68.2670 C.3    94  THR94       0.1979
     72  C         49.0720   22.2060   69.7370 C.2    94  THR94       0.2459
     73  O         47.9790   21.9570   70.2460 O.2    94  THR94      -0.2732
     74  CB        49.6540   20.2920   68.1310 C.3    94  THR94       0.1783
     75  OG1       51.0680   20.1680   68.3140 O.3    94  THR94      -0.2211
     76  CG2       49.2980   19.7660   66.7210 C.3    94  THR94       0.0376
     77  N         49.9990   22.9370   70.3920 N.am   95  PRO95      -0.2728
     78  CA        49.7180   23.3970   71.7670 C.3    95  PRO95       0.1401
     79  C         48.5530   24.3630   71.8620 C.2    95  PRO95       0.2269
     80  O         48.0170   24.5760   72.9600 O.2    95  PRO95      -0.2865
     81  CB        51.0270   24.0660   72.2220 C.3    95  PRO95       0.0296
     82  CG        52.0530   23.2950   71.4630 C.3    95  PRO95       0.0237
     83  CD        51.4260   23.1200   70.0710 C.3    95  PRO95       0.0939
@<TRIPOS>BOND
     1    50    49    1
     2    49    48   ar
     3    49    47   ar
     4    65    64    2
     5    48    46   ar
     6    26    25    1
     7    47    45   ar
     8    64    63    1
     9    76    74    1
    10    46    44   ar
    11    25    24   ar
    12    25    23   ar
    13    45    44   ar
    14    70    71    1
    15    54    53    2
    16    42    41    2
    17    24    22   ar
    18    63    62    1
    19    63    66    1
    20    44    43    1
    21    53    62   am
    22    53    52    1
    23    23    21   ar
    24    74    71    1
    25    74    75    1
    26    71    72    1
    27    41    40    1
    28    51    52    1
    29    66    67    1
    30    52    55    1
    31    22    20   ar
    32    43    40    1
    33    40    39    1
    34    21    20   ar
    35    72    73    2
    36    72    77   am
    37    20    19    1
    38    55    56    1
    39    67    69    1
    40    67    68    1
    41    83    77    1
    42    83    82    1
    43    77    78    1
    44    56    57    1
    45    18    17    2
    46    39    37   am
    47    17    16    1
    48    19    16    1
    49    38    37    2
    50    82    81    1
    51    37    36    1
    52    78    79    1
    53    78    81    1
    54    79    80    2
    55    57    58    1
    56    16    15    1
    57    58    59    2
    58    27    28    1
    59    60    59    1
    60    36    35    1
    61    59    61    1
    62    35    29   am
    63    30    29    2
    64    29    28    1
    65    15    11   am
    66    28    31    1
    67    12    11    2
    68     4     3    2
    69    11    10    1
    70     3     2    1
    71    31    32    1
    72    31    33    1
    73    32    34    1
    74     5     2    1
    75     5     6    1
    76    10     9    1
    77    10    13    1
    78     7     6    1
    79     2     1    1
    80    14    13    1
    81     6     8    1
