@<TRIPOS>MOLECULE
tmp/6mx8A00.pdb
 173 163 0 0 0
SMALL
GASTEIGER

@<TRIPOS>ATOM
      1  N          2.8970   18.1070    1.2820 N.3    29  LEU29      -0.1231
      2  CA         3.1670   19.0290    2.4030 C.3    29  LEU29       0.1693
      3  C          4.6330   19.4910    2.4380 C.2    29  LEU29       0.2593
      4  O          4.9050   20.5710    2.9340 O.2    29  LEU29      -0.2718
      5  CB         2.8220   18.3350    3.7220 C.3    29  LEU29       0.0284
      6  CG         1.3690   17.9070    3.9020 C.3    29  LEU29       0.0019
      7  CD1        1.2200   17.0730    5.1680 C.3    29  LEU29       0.0001
      8  CD2        0.4440   19.1130    3.9490 C.3    29  LEU29       0.0001
      9  N          5.5780   18.6580    1.9850 N.am   30  GLY30      -0.1942
     10  CA         6.9870   19.0650    1.8770 C.3    30  GLY30       0.2014
     11  C          7.9160   17.8720    1.7600 C.2    30  GLY30       0.2638
     12  O          7.4560   16.7480    1.6040 O.2    30  GLY30      -0.2714
     13  N          9.2280   18.1230    1.8540 N.am   31  HIS31      -0.1973
     14  CA        10.2430   17.0600    1.8320 C.3    31  HIS31       0.1656
     15  C         10.7130   16.7430    3.2610 C.2    31  HIS31       0.2291
     16  O         10.8680   17.6320    4.1020 O.2    31  HIS31      -0.2864
     17  CB        11.3880   17.4430    0.8850 C.3    31  HIS31       0.0771
     18  CG        10.9550   17.5110   -0.5400 C.ar   31  HIS31       0.0820
     19  ND1       10.8940   16.3900   -1.3420 N.ar   31  HIS31      -0.2267
     20  CD2       10.5400   18.5490   -1.2990 C.ar   31  HIS31       0.1154
     21  CE1       10.4740   16.7370   -2.5410 C.ar   31  HIS31       0.1986
     22  NE2       10.2490   18.0560   -2.5410 N.ar   31  HIS31      -0.2212
     23  N          6.2090   14.0570    2.1310 N.3    34  VAL34      -0.1245
     24  CA         5.1370   13.9120    3.1140 C.3    34  VAL34       0.1561
     25  C          3.8420   14.4230    2.4790 C.2    34  VAL34       0.2260
     26  O          3.8550   15.4790    1.8570 O.2    34  VAL34      -0.2867
     27  CB         5.4560   14.6950    4.4060 C.3    34  VAL34       0.0252
     28  CG1        4.4460   14.4220    5.5130 C.3    34  VAL34       0.0019
     29  CG2        6.8710   14.4260    4.8960 C.3    34  VAL34       0.0019
     30  N         -0.6110   14.9830    3.1100 N.3    36  GLU36      -0.1245
     31  CA        -1.8570   14.8550    3.8590 C.3    36  GLU36       0.1567
     32  C         -2.5950   13.6230    3.3270 C.2    36  GLU36       0.2260
     33  O         -2.5420   13.3400    2.1280 O.2    36  GLU36      -0.2867
     34  CB        -2.7320   16.1040    3.7290 C.3    36  GLU36       0.0388
     35  CG        -3.9930   16.0200    4.5710 C.3    36  GLU36       0.1160
     36  CD        -4.8490   17.2720    4.6310 C.2    36  GLU36       0.3649
     37  OE1       -4.3000   18.3790    4.4920 O.co2  36  GLU36      -0.2457
     38  OE2       -6.0670   17.1280    4.8300 O.co2  36  GLU36      -0.2457
     39  N         -0.7840   12.5070    8.3340 N.3    45  ALA45      -0.1245
     40  CA         0.3580   12.7830    7.4990 C.3    45  ALA45       0.1562
     41  C          0.9920   11.4390    7.1180 C.2    45  ALA45       0.2260
     42  O          1.0390   10.4960    7.9190 O.2    45  ALA45      -0.2867
     43  CB         1.3410   13.6890    8.2140 C.3    45  ALA45       0.0290
     44  N          4.3420    9.7910    5.4420 N.3    47  LYS47      -0.1245
     45  CA         5.7290    9.8070    4.9910 C.3    47  LYS47       0.1561
     46  C          5.9380    8.6100    4.0730 C.2    47  LYS47       0.2260
     47  O          5.5950    7.4940    4.4340 O.2    47  LYS47      -0.2867
     48  CB         6.7240    9.7450    6.1530 C.3    47  LYS47       0.0271
     49  CG         6.5630   10.8450    7.1870 C.3    47  LYS47       0.0035
     50  CD         7.7810   11.0500    8.0630 C.3    47  LYS47       0.0206
     51  CE         8.9260   11.7450    7.3550 C.3    47  LYS47       0.1093
     52  NZ        10.0600   12.0060    8.2770 N.3    47  LYS47      -0.1314
     53  N          4.9520   13.4270   18.2260 N.3    77  VAL77      -0.1245
     54  CA         3.9870   13.1130   17.1800 C.3    77  VAL77       0.1561
     55  C          3.6350   11.6320   17.2770 C.2    77  VAL77       0.2260
     56  O          4.5220   10.7880   17.3810 O.2    77  VAL77      -0.2867
     57  CB         4.5390   13.4610   15.7850 C.3    77  VAL77       0.0252
     58  CG1        3.6570   12.9380   14.6720 C.3    77  VAL77       0.0019
     59  CG2        4.7030   14.9600   15.6120 C.3    77  VAL77       0.0019
     60  N          1.3800    9.2510   10.3590 N.3    93  LEU93      -0.1231
     61  CA         1.6230   10.0820   11.5110 C.3    93  LEU93       0.1693
     62  C          0.4330   11.0140   11.7320 C.2    93  LEU93       0.2592
     63  O         -0.3450   11.3230   10.8220 O.2    93  LEU93      -0.2718
     64  CB         2.9130   10.8680   11.2790 C.3    93  LEU93       0.0284
     65  CG         4.1590   10.0110   11.0690 C.3    93  LEU93       0.0019
     66  CD1        5.3660   10.8790   10.7880 C.3    93  LEU93       0.0001
     67  CD2        4.4210    9.1320   12.2780 C.3    93  LEU93       0.0001
     68  N          0.2900   11.4140   12.9870 N.am   94  GLU94      -0.1966
     69  CA        -0.5860   12.4640   13.3890 C.3    94  GLU94       0.1733
     70  C         -0.4220   13.6710   12.4570 C.2    94  GLU94       0.2616
     71  O          0.6930   14.1690   12.2620 O.2    94  GLU94      -0.2715
     72  CB        -0.1930   12.8050   14.8280 C.3    94  GLU94       0.0429
     73  CG        -0.9040   13.9950   15.4310 C.3    94  GLU94       0.1163
     74  CD        -0.5260   14.2080   16.8860 C.2    94  GLU94       0.3649
     75  OE1        0.4820   13.6170   17.3420 O.co2  94  GLU94      -0.2457
     76  OE2       -1.2260   14.9670   17.5600 O.co2  94  GLU94      -0.2457
     77  N         -1.5300   14.1690   11.9090 N.am   95  LEU95      -0.1963
     78  CA        -1.4780   15.3580   11.0580 C.3    95  LEU95       0.1728
     79  C         -1.3240   16.5990   11.9410 C.2    95  LEU95       0.2616
     80  O         -2.1310   16.8560   12.7920 O.2    95  LEU95      -0.2715
     81  CB        -2.7460   15.4890   10.2190 C.3    95  LEU95       0.0311
     82  CG        -2.7330   16.6800    9.2640 C.3    95  LEU95       0.0022
     83  CD1       -1.6030   16.5620    8.2470 C.3    95  LEU95       0.0001
     84  CD2       -4.0690   16.8210    8.5670 C.3    95  LEU95       0.0001
     85  N         -0.2660   17.3610   11.7090 N.am   96  MET96      -0.1963
     86  CA         0.0100   18.5430   12.4750 C.3    96  MET96       0.1736
     87  C         -0.3090   19.7480   11.5740 C.2    96  MET96       0.2616
     88  O          0.5170   20.1730   10.7660 O.2    96  MET96      -0.2715
     89  CB         1.4780   18.5170   12.9080 C.3    96  MET96       0.0427
     90  CG         1.8180   17.2640   13.7170 C.3    96  MET96       0.0599
     91  SD         1.0450   17.3280   15.3480 S.3    96  MET96      -0.1393
     92  CE         2.0560   18.5930   16.1130 C.3    96  MET96       0.0692
     93  N         -1.5380   20.2550   11.7080 N.am   97  ALA97      -0.1963
     94  CA        -2.1380   21.2080   10.7460 C.3    97  ALA97       0.1728
     95  C         -1.4590   22.5850   10.8070 C.2    97  ALA97       0.2617
     96  O         -1.5550   23.3570    9.8500 O.2    97  ALA97      -0.2715
     97  CB        -3.6230   21.3220   10.9870 C.3    97  ALA97       0.0334
     98  N         -0.7520   22.8750   11.9070 N.am   98  GLY98      -0.1940
     99  CA        -0.0250   24.1250   12.0570 C.3    98  GLY98       0.2014
    100  C          1.2800   24.1330   11.2790 C.2    98  GLY98       0.2639
    101  O          1.9360   25.1590   11.1920 O.2    98  GLY98      -0.2714
    102  N          1.7040   22.9660   10.7820 N.am   99  GLY99      -0.1939
    103  CA         2.9610   22.8290   10.0460 C.3    99  GLY99       0.2014
    104  C          4.1830   22.7550   10.9560 C.2    99  GLY99       0.2638
    105  O          4.0670   22.6530   12.1780 O.2    99  GLY99      -0.2714
    106  N          5.3660   22.7990   10.3260 N.am  100  ASP100     -0.1971
    107  CA         6.6600   22.8670   11.0040 C.3   100  ASP100      0.1709
    108  C          6.8020   24.2490   11.6390 C.2   100  ASP100      0.2293
    109  O          6.2600   25.2440   11.1480 O.2   100  ASP100     -0.2864
    110  CB         7.8330   22.5720   10.0670 C.3   100  ASP100      0.1436
    111  CG         8.0580   23.6610    9.0350 C.2   100  ASP100      0.3671
    112  OD1        7.1820   23.8220    8.1470 O.co2 100  ASP100     -0.2456
    113  OD2        9.0620   24.3850    9.1740 O.co2 100  ASP100     -0.2456
    114  N          8.6230   27.2610    9.6910 N.3   103  SER103     -0.1217
    115  CA         7.7340   27.9240    8.7290 C.3   103  SER103      0.1889
    116  C          6.6700   28.7350    9.4620 C.2   103  SER103      0.2288
    117  O          6.3440   29.8560    9.0390 O.2   103  SER103     -0.2866
    118  CB         7.0770   26.9340    7.8140 C.3   103  SER103      0.2089
    119  OG         8.0490   26.0680    7.2570 O.3   103  SER103     -0.2183
    120  N          6.0930   32.6790    8.9710 N.3   107  GLU107     -0.1245
    121  CA         4.8620   33.0740    8.3430 C.3   107  GLU107      0.1567
    122  C          3.9450   33.8190    9.3160 C.2   107  GLU107      0.2260
    123  O          3.1340   34.5980    8.8540 O.2   107  GLU107     -0.2867
    124  CB         4.1530   31.8610    7.7430 C.3   107  GLU107      0.0388
    125  CG         4.5380   31.6150    6.2940 C.3   107  GLU107      0.1160
    126  CD         4.3890   30.1790    5.8170 C.2   107  GLU107      0.3649
    127  OE1        3.2470   29.7620    5.5330 O.co2 107  GLU107     -0.2457
    128  OE2        5.4170   29.4830    5.7290 O.co2 107  GLU107     -0.2457
    129  N         12.9870   23.1840   12.6510 N.3   148  ARG148     -0.1231
    130  CA        12.5510   22.4280   11.4140 C.3   148  ARG148      0.1694
    131  C         12.0350   21.0120   11.7580 C.2   148  ARG148      0.2592
    132  O         11.3760   20.3560   10.9460 O.2   148  ARG148     -0.2718
    133  CB        13.7100   22.3580   10.4030 C.3   148  ARG148      0.0321
    134  CG        14.8800   21.4950   10.8640 C.3   148  ARG148      0.0489
    135  CD        16.0780   21.3870    9.9310 C.3   148  ARG148      0.2205
    136  NE        17.2200   20.8080   10.6570 N.pl3 148  ARG148     -0.0865
    137  CZ        18.1410   21.5320   11.3040 C.cat 148  ARG148      0.5346
    138  NH1       18.1590   22.8460   11.1650 N.pl3 148  ARG148      0.1354
    139  NH2       19.0370   20.9600   12.0910 N.pl3 148  ARG148      0.1354
    140  N         12.3250   20.5200   12.9690 N.am  149  ASN149     -0.1960
    141  CA        11.9830   19.1520   13.3600 C.3   149  ASN149      0.1819
    142  C         10.7890   19.1480   14.3300 C.2   149  ASN149      0.2621
    143  O         10.3820   18.0910   14.7840 O.2   149  ASN149     -0.2715
    144  CB        13.2220   18.4410   13.9130 C.3   149  ASN149      0.1195
    145  CG        14.2550   18.1730   12.8380 C.2   149  ASN149      0.2630
    146  OD1       13.8870   17.9280   11.6910 O.2   149  ASN149     -0.2716
    147  ND2       15.5350   18.2150   13.1880 N.am  149  ASN149     -0.0877
    148  N         10.2300   20.3270   14.6180 N.am  150  CYS150     -0.1954
    149  CA         9.0770   20.5010   15.4950 C.3   150  CYS150      0.1843
    150  C          7.8420   20.9030   14.6890 C.2   150  CYS150      0.2625
    151  O          7.9600   21.5940   13.6760 O.2   150  CYS150     -0.2714
    152  CB         9.3230   21.6060   16.5070 C.3   150  CYS150      0.0997
    153  SG        10.6830   21.2050   17.6300 S.3   150  CYS150     -0.0797
    154  N          6.6660   20.4930   15.1720 N.am  151  LEU151     -0.1977
    155  CA         5.3840   20.6890   14.4630 C.3   151  LEU151      0.1596
    156  C          4.3450   21.2310   15.4430 C.2   151  LEU151      0.2287
    157  O          4.4570   21.0190   16.6560 O.2   151  LEU151     -0.2864
    158  CB         4.8920   19.3620   13.8840 C.3   151  LEU151      0.0297
    159  CG         5.8230   18.6840   12.8920 C.3   151  LEU151      0.0022
    160  CD1        5.6500   17.1770   12.9580 C.3   151  LEU151      0.0001
    161  CD2        5.5780   19.1900   11.4800 C.3   151  LEU151      0.0001
    162  N          8.7620   16.0160   15.9500 N.3   164  GLY164     -0.1210
    163  CA         8.1680   15.3920   14.7650 C.3   164  GLY164      0.1956
    164  C          9.0820   14.4430   14.0080 C.2   164  GLY164      0.2611
    165  O          8.6070   13.4370   13.4910 O.2   164  GLY164     -0.2717
    166  N         10.3710   14.7790   13.8880 N.am  165  ASP165     -0.1973
    167  CA        11.3350   14.0410   13.0630 C.3   165  ASP165      0.1709
    168  C         12.4400   13.4870   13.9750 C.2   165  ASP165      0.2293
    169  O         12.8980   14.1710   14.9270 O.2   165  ASP165     -0.2864
    170  CB        11.8680   14.9540   11.9600 C.3   165  ASP165      0.1436
    171  CG        12.9800   14.3700   11.1030 C.2   165  ASP165      0.3671
    172  OD1       14.1170   14.2880   11.5940 O.co2 165  ASP165     -0.2456
    173  OD2       12.7020   14.0230    9.9430 O.co2 165  ASP165     -0.2456
@<TRIPOS>BOND
     1    22    21   ar
     2    22    20   ar
     3    21    19   ar
     4    19    18   ar
     5    20    18   ar
     6    18    17    1
     7    17    14    1
     8     1     2    1
     9    12    11    2
    10    11    13   am
    11    11    10    1
    12    14    13    1
    13    14    15    1
    14    26    25    2
    15    10     9    1
    16     9     3   am
    17    33    32    2
    18    23    24    1
    19     2     3    1
    20     2     5    1
    21     3     4    2
    22    25    24    1
    23    30    31    1
    24    24    27    1
    25    15    16    2
    26    32    31    1
    27     5     6    1
    28    34    31    1
    29    34    35    1
    30     6     8    1
    31     6     7    1
    32    46    47    2
    33    46    45    1
    34    27    29    1
    35    27    28    1
    36    37    36   ar
    37    35    36    1
    38    36    38   ar
    39    45    44    1
    40    45    48    1
    41   127   126   ar
    42   128   126   ar
    43   126   125    1
    44    48    49    1
    45   125   124    1
    46    41    40    1
    47    41    42    2
    48    49    50    1
    49   119   118    1
    50    51    50    1
    51    51    52    1
    52    40    43    1
    53    40    39    1
    54   124   121    1
    55   118   115    1
    56   112   111   ar
    57    83    82    1
    58   121   120    1
    59   121   122    1
    60    84    82    1
    61   115   116    1
    62   115   114    1
    63   123   122    2
    64   111   113   ar
    65   111   110    1
    66   117   116    2
    67    82    81    1
    68    96    95    2
    69   135   136    1
    70   135   134    1
    71   173   171   ar
    72   103   102    1
    73   103   104    1
    74   110   107    1
    75    81    78    1
    76   106   104   am
    77   106   107    1
    78    60    61    1
    79   133   134    1
    80   133   130    1
    81   136   137    2
    82    94    95    1
    83    94    97    1
    84    94    93    1
    85    88    87    2
    86   102   100   am
    87    66    65    1
    88    95    98   am
    89    63    62    2
    90   132   131    2
    91   104   105    2
    92   107   108    1
    93    78    77    1
    94    78    79    1
    95    65    64    1
    96    65    67    1
    97   171   172   ar
    98   171   170    1
    99   109   108    2
   100   138   137    1
   101   101   100    2
   102    64    61    1
   103   100    99    1
   104   137   139    1
   105   130   131    1
   106   130   129    1
   107   161   159    1
   108    61    62    1
   109    87    93   am
   110    87    86    1
   111   146   145    2
   112    85    79   am
   113    85    86    1
   114    62    68   am
   115   131   140   am
   116    98    99    1
   117    77    70   am
   118    79    80    2
   119   170   167    1
   120    71    70    2
   121    70    69    1
   122    86    89    1
   123   145   147   am
   124   145   144    1
   125   159   160    1
   126   159   158    1
   127    89    90    1
   128   140   141    1
   129    68    69    1
   130   167   166    1
   131   167   168    1
   132   141   144    1
   133   141   142    1
   134    69    72    1
   135   165   164    2
   136   151   150    2
   137    90    91    1
   138   158   155    1
   139   166   164   am
   140   168   169    2
   141   164   163    1
   142   142   148   am
   143   142   143    2
   144   155   154    1
   145   155   156    1
   146   148   149    1
   147    58    57    1
   148   150   154   am
   149   150   149    1
   150   163   162    1
   151    72    73    1
   152    91    92    1
   153    73    74    1
   154   156   157    2
   155   149   152    1
   156    59    57    1
   157    57    54    1
   158   152   153    1
   159    74    75   ar
   160    74    76   ar
   161    54    55    1
   162    54    53    1
   163    55    56    2
