@<TRIPOS>MOLECULE
tmp/6mxeB01.pdb
 84 81 0 0 0
SMALL
GASTEIGER

@<TRIPOS>ATOM
      1  N         50.9400   26.9040   81.8950 N.3     5  GLY5       -0.1210
      2  CA        50.5460   26.3450   80.6000 C.3     5  GLY5        0.1956
      3  C         50.8370   24.8650   80.4160 C.2     5  GLY5        0.2611
      4  O         50.1150   24.1690   79.6900 O.2     5  GLY5       -0.2717
      5  N         51.8720   24.3560   81.1040 N.am    6  LEU6       -0.1979
      6  CA        52.2600   22.9400   81.0490 C.3     6  LEU6        0.1596
      7  C         51.2890   22.0800   81.8010 C.2     6  LEU6        0.2287
      8  O         50.9330   20.9860   81.3470 O.2     6  LEU6       -0.2864
      9  CB        53.6690   22.7300   81.6230 C.3     6  LEU6        0.0297
     10  CG        54.8420   23.4330   80.9200 C.3     6  LEU6        0.0022
     11  CD1       56.1240   23.1600   81.6660 C.3     6  LEU6        0.0001
     12  CD2       54.9620   23.0270   79.4610 C.3     6  LEU6        0.0001
     13  N         47.9140   21.9850   79.9310 N.3     9  SER9       -0.1202
     14  CA        48.0670   21.1070   78.7760 C.3     9  SER9        0.2020
     15  C         48.0660   19.6310   79.2120 C.2     9  SER9        0.2618
     16  O         47.3340   18.8430   78.6210 O.2     9  SER9       -0.2717
     17  CB        49.3160   21.4750   77.9900 C.3     9  SER9        0.2103
     18  OG        49.3840   20.6900   76.8170 O.3     9  SER9       -0.2182
     19  N         48.8400   19.2700   80.2710 N.am   10  TYR10      -0.1975
     20  CA        48.8790   17.9140   80.8120 C.3    10  TYR10       0.1639
     21  C         47.4760   17.4120   81.1690 C.2    10  TYR10       0.2290
     22  O         47.0870   16.3150   80.7680 O.2    10  TYR10      -0.2864
     23  CB        49.8090   17.8260   82.0370 C.3    10  TYR10       0.0560
     24  CG        50.1580   16.4070   82.4380 C.ar   10  TYR10      -0.0198
     25  CD1       50.6070   15.4830   81.4960 C.ar   10  TYR10      -0.0009
     26  CD2       50.1050   16.0050   83.7700 C.ar   10  TYR10      -0.0009
     27  CE1       50.9890   14.1960   81.8680 C.ar   10  TYR10       0.0417
     28  CE2       50.4690   14.7080   84.1520 C.ar   10  TYR10       0.0417
     29  CZ        50.8940   13.8050   83.1920 C.ar   10  TYR10       0.1957
     30  OH        51.2440   12.5340   83.5510 O.3    10  TYR10      -0.2866
     31  N         63.6550    8.4410   80.2210 N.3    57  ASP57      -0.1239
     32  CA        63.5880    7.6440   78.9470 C.3    57  ASP57       0.1674
     33  C         63.0060    6.2320   79.1860 C.2    57  ASP57       0.2266
     34  O         61.9250    5.9460   78.6820 O.2    57  ASP57      -0.2867
     35  CB        64.9360    7.5390   78.1690 C.3    57  ASP57       0.1410
     36  CG        65.2940    8.6730   77.2110 C.2    57  ASP57       0.3668
     37  OD1       64.8210    9.8200   77.4280 O.co2  57  ASP57      -0.2456
     38  OD2       66.1160    8.4400   76.3020 O.co2  57  ASP57      -0.2456
     39  N         55.4380   13.7980   81.8180 N.3    97  THR97      -0.1204
     40  CA        56.3520   14.1080   80.7100 C.3    97  THR97       0.1979
     41  C         56.4210   15.6240   80.3730 C.2    97  THR97       0.2459
     42  O         57.5140   16.0280   80.0200 O.2    97  THR97      -0.2732
     43  CB        56.0690   13.2280   79.4950 C.3    97  THR97       0.1783
     44  OG1       54.6640   13.2050   79.2330 O.3    97  THR97      -0.2211
     45  CG2       56.5790   11.7910   79.6970 C.3    97  THR97       0.0376
     46  N         55.4020   16.5180   80.6020 N.am   98  PRO98      -0.2728
     47  CA        55.6330   17.9640   80.3990 C.3    98  PRO98       0.1401
     48  C         56.7890   18.5750   81.2240 C.2    98  PRO98       0.2269
     49  O         57.2300   19.6970   80.9210 O.2    98  PRO98      -0.2865
     50  CB        54.2950   18.5730   80.8150 C.3    98  PRO98       0.0296
     51  CG        53.3220   17.5290   80.4750 C.3    98  PRO98       0.0237
     52  CD        53.9910   16.2850   80.9680 C.3    98  PRO98       0.0939
     53  N         59.7520   17.7160   81.1030 N.3   100  GLN100     -0.1231
     54  CA        60.8540   17.7170   80.1300 C.3   100  GLN100      0.1698
     55  C         61.1380   19.0850   79.5360 C.2   100  GLN100      0.2592
     56  O         62.2920   19.3970   79.3230 O.2   100  GLN100     -0.2718
     57  CB        60.6140   16.6690   79.0500 C.3   100  GLN100      0.0381
     58  CG        60.8710   15.3110   79.6510 C.3   100  GLN100      0.0905
     59  CD        60.6330   14.1590   78.7510 C.2   100  GLN100      0.2608
     60  OE1       61.5740   13.4590   78.3650 O.2   100  GLN100     -0.2717
     61  NE2       59.3670   13.8600   78.5160 N.am  100  GLN100     -0.0878
     62  N         60.1130   19.9240   79.3590 N.am  101  THR101     -0.1953
     63  CA        60.2270   21.3040   78.9030 C.3   101  THR101      0.1897
     64  C         61.0560   22.1320   79.8840 C.2   101  THR101      0.2313
     65  O         61.9540   22.8530   79.4420 O.2   101  THR101     -0.2863
     66  CB        58.8350   21.8810   78.6330 C.3   101  THR101      0.1794
     67  OG1       58.2640   21.1600   77.5450 O.3   101  THR101     -0.2208
     68  CG2       58.8590   23.4000   78.3120 C.3   101  THR101      0.0378
     69  N         63.2310   21.0040   82.1910 N.3   103  PHE103     -0.1227
     70  CA        64.6030   20.5100   82.1870 C.3   103  PHE103      0.1736
     71  C         65.3330   21.0000   80.9300 C.2   103  PHE103      0.2595
     72  O         66.4260   21.5590   81.0610 O.2   103  PHE103     -0.2718
     73  CB        64.6850   18.9760   82.3780 C.3   103  PHE103      0.0547
     74  CG        66.1110   18.4870   82.3880 C.ar  103  PHE103     -0.0202
     75  CD1       66.8700   18.5430   83.5500 C.ar  103  PHE103     -0.0042
     76  CD2       66.7370   18.0750   81.2030 C.ar  103  PHE103     -0.0042
     77  CE1       68.2170   18.1620   83.5450 C.ar  103  PHE103     -0.0003
     78  CE2       68.0920   17.6970   81.1950 C.ar  103  PHE103     -0.0003
     79  CZ        68.8150   17.7150   82.3740 C.ar  103  PHE103     -0.0000
     80  N         64.7430   20.8190   79.7310 N.am  104  ALA104     -0.1980
     81  CA        65.3580   21.2830   78.4760 C.3   104  ALA104      0.1597
     82  C         65.6460   22.8060   78.5180 C.2   104  ALA104      0.2287
     83  O         66.7540   23.2140   78.1960 O.2   104  ALA104     -0.2864
     84  CB        64.4690   20.9550   77.3030 C.3   104  ALA104      0.0319
@<TRIPOS>BOND
     1    38    36   ar
     2    18    17    1
     3    36    37   ar
     4    36    35    1
     5    84    81    1
     6    67    66    1
     7    17    14    1
     8    35    32    1
     9    83    82    2
    10    68    66    1
    11    60    59    2
    12    81    82    1
    13    81    80    1
    14    61    59   am
    15    16    15    2
    16    66    63    1
    17    34    33    2
    18    59    58    1
    19    14    15    1
    20    14    13    1
    21    63    62    1
    22    63    64    1
    23    32    33    1
    24    32    31    1
    25    57    58    1
    26    57    54    1
    27    15    19   am
    28    44    43    1
    29    56    55    2
    30    62    55   am
    31    65    64    2
    32    12    10    1
    33    43    45    1
    34    43    40    1
    35    55    54    1
    36     4     3    2
    37    80    71   am
    38    42    41    2
    39    54    53    1
    40    19    20    1
    41    41    46   am
    42    41    40    1
    43    47    46    1
    44    47    50    1
    45    47    48    1
    46     3     2    1
    47     3     5   am
    48    51    50    1
    49    51    52    1
    50     2     1    1
    51    46    52    1
    52    40    39    1
    53    22    21    2
    54    20    21    1
    55    20    23    1
    56    10     9    1
    57    10    11    1
    58    49    48    2
    59    71    72    2
    60    71    70    1
    61     6     5    1
    62     6     9    1
    63     6     7    1
    64    78    76   ar
    65    78    79   ar
    66    76    74   ar
    67     8     7    2
    68    25    27   ar
    69    25    24   ar
    70    27    29   ar
    71    23    24    1
    72    70    69    1
    73    70    73    1
    74    79    77   ar
    75    73    74    1
    76    74    75   ar
    77    24    26   ar
    78    29    30    1
    79    29    28   ar
    80    77    75   ar
    81    26    28   ar
