@<TRIPOS>MOLECULE
tmp/6mxeB00.pdb
 87 85 0 0 0
SMALL
GASTEIGER

@<TRIPOS>ATOM
      1  N         50.9400   26.9040   81.8950 N.3     5  GLY5       -0.1210
      2  CA        50.5460   26.3450   80.6000 C.3     5  GLY5        0.1956
      3  C         50.8370   24.8650   80.4160 C.2     5  GLY5        0.2611
      4  O         50.1150   24.1690   79.6900 O.2     5  GLY5       -0.2717
      5  N         51.8720   24.3560   81.1040 N.am    6  LEU6       -0.1979
      6  CA        52.2600   22.9400   81.0490 C.3     6  LEU6        0.1596
      7  C         51.2890   22.0800   81.8010 C.2     6  LEU6        0.2287
      8  O         50.9330   20.9860   81.3470 O.2     6  LEU6       -0.2864
      9  CB        53.6690   22.7300   81.6230 C.3     6  LEU6        0.0297
     10  CG        54.8420   23.4330   80.9200 C.3     6  LEU6        0.0022
     11  CD1       56.1240   23.1600   81.6660 C.3     6  LEU6        0.0001
     12  CD2       54.9620   23.0270   79.4610 C.3     6  LEU6        0.0001
     13  N         47.9140   21.9850   79.9310 N.3     9  SER9       -0.1202
     14  CA        48.0670   21.1070   78.7760 C.3     9  SER9        0.2020
     15  C         48.0660   19.6310   79.2120 C.2     9  SER9        0.2618
     16  O         47.3340   18.8430   78.6210 O.2     9  SER9       -0.2717
     17  CB        49.3160   21.4750   77.9900 C.3     9  SER9        0.2103
     18  OG        49.3840   20.6900   76.8170 O.3     9  SER9       -0.2182
     19  N         48.8400   19.2700   80.2710 N.am   10  TYR10      -0.1975
     20  CA        48.8790   17.9140   80.8120 C.3    10  TYR10       0.1639
     21  C         47.4760   17.4120   81.1690 C.2    10  TYR10       0.2290
     22  O         47.0870   16.3150   80.7680 O.2    10  TYR10      -0.2864
     23  CB        49.8090   17.8260   82.0370 C.3    10  TYR10       0.0560
     24  CG        50.1580   16.4070   82.4380 C.ar   10  TYR10      -0.0198
     25  CD1       50.6070   15.4830   81.4960 C.ar   10  TYR10      -0.0009
     26  CD2       50.1050   16.0050   83.7700 C.ar   10  TYR10      -0.0009
     27  CE1       50.9890   14.1960   81.8680 C.ar   10  TYR10       0.0417
     28  CE2       50.4690   14.7080   84.1520 C.ar   10  TYR10       0.0417
     29  CZ        50.8940   13.8050   83.1920 C.ar   10  TYR10       0.1957
     30  OH        51.2440   12.5340   83.5510 O.3    10  TYR10      -0.2866
     31  N         44.1720   18.9180   80.3440 N.3    12  ILE12      -0.1231
     32  CA        43.1510   19.0810   79.2930 C.3    12  ILE12       0.1692
     33  C         43.4540   18.2820   78.0380 C.2    12  ILE12       0.2593
     34  O         42.5270   17.8500   77.3450 O.2    12  ILE12      -0.2718
     35  CB        42.9090   20.5930   79.0310 C.3    12  ILE12       0.0266
     36  CG1       41.4210   20.8680   78.8210 C.3    12  ILE12       0.0019
     37  CG2       43.7950   21.2380   77.9300 C.3    12  ILE12       0.0020
     38  CD1       40.7820   21.7090   79.8760 C.3    12  ILE12       0.0001
     39  N         44.7300   18.0420   77.7710 N.am   13  GLY13      -0.1942
     40  CA        45.1220   17.3130   76.5780 C.3    13  GLY13       0.2014
     41  C         45.4160   15.8570   76.7910 C.2    13  GLY13       0.2638
     42  O         45.7240   15.1570   75.8310 O.2    13  GLY13      -0.2714
     43  N         45.3670   15.3960   78.0380 N.am   14  TYR14      -0.1973
     44  CA        45.7580   14.0310   78.3410 C.3    14  TYR14       0.1639
     45  C         44.9720   13.3940   79.4730 C.2    14  TYR14       0.2290
     46  O         44.2610   12.4290   79.2110 O.2    14  TYR14      -0.2864
     47  CB        47.2830   13.9650   78.6020 C.3    14  TYR14       0.0560
     48  CG        47.8210   12.5910   78.9100 C.ar   14  TYR14      -0.0198
     49  CD1       47.6770   11.5430   78.0020 C.ar   14  TYR14      -0.0009
     50  CD2       48.5250   12.3460   80.0830 C.ar   14  TYR14      -0.0009
     51  CE1       48.1750   10.2710   78.2790 C.ar   14  TYR14       0.0417
     52  CE2       49.0270   11.0750   80.3760 C.ar   14  TYR14       0.0417
     53  CZ        48.8560   10.0450   79.4680 C.ar   14  TYR14       0.1957
     54  OH        49.3370    8.7840   79.7570 O.3    14  TYR14      -0.2866
     55  N         42.3190   14.3470   81.3600 N.3    16  ARG16      -0.1231
     56  CA        40.8840   14.4930   81.0910 C.3    16  ARG16       0.1694
     57  C         40.3820   13.4120   80.1030 C.2    16  ARG16       0.2591
     58  O         39.2220   13.0150   80.1770 O.2    16  ARG16      -0.2718
     59  CB        40.6470   15.9270   80.5460 C.3    16  ARG16       0.0321
     60  CG        39.2440   16.2690   80.0400 C.3    16  ARG16       0.0489
     61  CD        39.1140   17.6870   79.4940 C.3    16  ARG16       0.2205
     62  NE        39.7750   17.8560   78.1940 N.pl3  16  ARG16      -0.0865
     63  CZ        39.2310   17.5670   77.0130 C.cat  16  ARG16       0.5346
     64  NH1       38.0000   17.0700   76.9440 N.pl3  16  ARG16       0.1354
     65  NH2       39.9170   17.7660   75.8910 N.pl3  16  ARG16       0.1354
     66  N         41.2510   12.9380   79.1950 N.am   17  LEU17      -0.1980
     67  CA        40.9230   11.9140   78.1940 C.3    17  LEU17       0.1596
     68  C         41.2280   10.4630   78.6080 C.2    17  LEU17       0.2287
     69  O         40.5040    9.5540   78.1720 O.2    17  LEU17      -0.2864
     70  CB        41.5930   12.2020   76.8400 C.3    17  LEU17       0.0297
     71  CG        41.4670   13.6080   76.2150 C.3    17  LEU17       0.0022
     72  CD1       42.2290   13.6580   74.9200 C.3    17  LEU17       0.0001
     73  CD2       40.0180   14.0190   75.9540 C.3    17  LEU17       0.0001
     74  N         55.4380   13.7980   81.8180 N.3    97  THR97      -0.1204
     75  CA        56.3520   14.1080   80.7100 C.3    97  THR97       0.1979
     76  C         56.4210   15.6240   80.3730 C.2    97  THR97       0.2459
     77  O         57.5140   16.0280   80.0200 O.2    97  THR97      -0.2732
     78  CB        56.0690   13.2280   79.4950 C.3    97  THR97       0.1783
     79  OG1       54.6640   13.2050   79.2330 O.3    97  THR97      -0.2211
     80  CG2       56.5790   11.7910   79.6970 C.3    97  THR97       0.0376
     81  N         55.4020   16.5180   80.6020 N.am   98  PRO98      -0.2728
     82  CA        55.6330   17.9640   80.3990 C.3    98  PRO98       0.1401
     83  C         56.7890   18.5750   81.2240 C.2    98  PRO98       0.2269
     84  O         57.2300   19.6970   80.9210 O.2    98  PRO98      -0.2865
     85  CB        54.2950   18.5730   80.8150 C.3    98  PRO98       0.0296
     86  CG        53.3220   17.5290   80.4750 C.3    98  PRO98       0.0237
     87  CD        53.9910   16.2850   80.9680 C.3    98  PRO98       0.0939
@<TRIPOS>BOND
     1    72    71    1
     2    42    41    2
     3    65    63    1
     4    73    71    1
     5    71    70    1
     6    40    41    1
     7    40    39    1
     8    41    43   am
     9    18    17    1
    10    70    67    1
    11    64    63    1
    12    63    62    2
    13    34    33    2
    14    39    33   am
    15    37    35    1
    16    17    14    1
    17    49    51   ar
    18    49    48   ar
    19    43    44    1
    20    33    32    1
    21    69    68    2
    22    62    61    1
    23    67    68    1
    24    67    66    1
    25    51    53   ar
    26    44    47    1
    27    44    45    1
    28    47    48    1
    29    16    15    2
    30    14    15    1
    31    14    13    1
    32    36    35    1
    33    36    38    1
    34    48    50   ar
    35    35    32    1
    36    66    57   am
    37    46    45    2
    38    15    19   am
    39    79    78    1
    40    32    31    1
    41    12    10    1
    42    53    54    1
    43    53    52   ar
    44    61    60    1
    45    78    80    1
    46    78    75    1
    47     4     3    2
    48    77    76    2
    49    60    59    1
    50    50    52   ar
    51    57    58    2
    52    57    56    1
    53    19    20    1
    54    76    81   am
    55    76    75    1
    56    82    81    1
    57    82    85    1
    58    82    83    1
    59     3     2    1
    60     3     5   am
    61    86    85    1
    62    86    87    1
    63    59    56    1
    64     2     1    1
    65    81    87    1
    66    75    74    1
    67    22    21    2
    68    20    21    1
    69    20    23    1
    70    10     9    1
    71    10    11    1
    72    84    83    2
    73     6     5    1
    74     6     9    1
    75     6     7    1
    76    56    55    1
    77     8     7    2
    78    25    27   ar
    79    25    24   ar
    80    27    29   ar
    81    23    24    1
    82    24    26   ar
    83    29    30    1
    84    29    28   ar
    85    26    28   ar
