@<TRIPOS>MOLECULE
tmp/6mxtA02.pdb
 144 138 0 0 0
SMALL
GASTEIGER

@<TRIPOS>ATOM
      1  N         -6.2030    4.4630   62.0330 N.3    11  GLU11      -0.1245
      2  CA        -5.0370    4.4680   61.1590 C.3    11  GLU11       0.1567
      3  C         -5.2430    3.5970   59.9250 C.2    11  GLU11       0.2260
      4  O         -4.4660    3.6660   58.9720 O.2    11  GLU11      -0.2867
      5  CB        -3.7990    3.9940   61.9230 C.3    11  GLU11       0.0388
      6  CG        -3.4830    4.8030   63.1700 C.3    11  GLU11       0.1160
      7  CD        -2.8720    6.1570   62.8600 C.2    11  GLU11       0.3649
      8  OE1       -2.6120    6.4440   61.6720 O.co2  11  GLU11      -0.2457
      9  OE2       -2.6450    6.9360   63.8110 O.co2  11  GLU11      -0.2457
     10  N          1.0020   10.1430   55.3850 N.3    20  ASP20      -0.1225
     11  CA        -0.1240   10.4640   56.2540 C.3    20  ASP20       0.1805
     12  C         -0.5880   11.9030   56.0440 C.2    20  ASP20       0.2598
     13  O         -0.2810   12.5220   55.0260 O.2    20  ASP20      -0.2718
     14  CB         0.2450   10.2370   57.7230 C.3    20  ASP20       0.1424
     15  CG         1.2940   11.2100   58.2180 C.2    20  ASP20       0.3668
     16  OD1        2.1520   11.6190   57.4090 O.co2  20  ASP20      -0.2456
     17  OD2        1.2580   11.5710   59.4130 O.co2  20  ASP20      -0.2456
     18  N         -1.3280   12.4270   57.0150 N.am   21  THR21      -0.1939
     19  CA        -1.8720   13.7770   56.9260 C.3    21  THR21       0.2028
     20  C         -0.7790   14.8450   56.9290 C.2    21  THR21       0.2642
     21  O         -0.9120   15.8800   56.2770 O.2    21  THR21      -0.2714
     22  CB        -2.8490   14.0600   58.0830 C.3    21  THR21       0.1808
     23  OG1       -2.1890   13.8380   59.3360 O.3    21  THR21      -0.2208
     24  CG2       -4.0640   13.1500   57.9890 C.3    21  THR21       0.0379
     25  N          0.3010   14.5880   57.6610 N.am   22  GLU22      -0.1976
     26  CA         1.3950   15.5480   57.7710 C.3    22  GLU22       0.1602
     27  C          2.3960   15.3950   56.6290 C.2    22  GLU22       0.2287
     28  O          3.3520   16.1630   56.5220 O.2    22  GLU22      -0.2864
     29  CB         2.1120   15.3920   59.1160 C.3    22  GLU22       0.0415
     30  CG         1.2040   15.4940   60.3340 C.3    22  GLU22       0.1163
     31  CD         0.8880   16.9280   60.7320 C.2    22  GLU22       0.3649
     32  OE1        1.0320   17.8380   59.8890 O.co2  22  GLU22      -0.2457
     33  OE2        0.4970   17.1440   61.8990 O.co2  22  GLU22      -0.2457
     34  N          4.1350   12.5420   56.0920 N.3    24  TYR24      -0.1241
     35  CA         5.2240   11.6920   56.5590 C.3    24  TYR24       0.1605
     36  C          5.0450   10.2560   56.0750 C.2    24  TYR24       0.2264
     37  O          3.9260    9.7470   56.0170 O.2    24  TYR24      -0.2867
     38  CB         5.3080   11.7290   58.0840 C.3    24  TYR24       0.0534
     39  CG         5.6730   13.0860   58.6390 C.ar   24  TYR24      -0.0201
     40  CD1        6.5420   13.9260   57.9550 C.ar   24  TYR24      -0.0009
     41  CD2        5.1450   13.5290   59.8440 C.ar   24  TYR24      -0.0009
     42  CE1        6.8780   15.1670   58.4570 C.ar   24  TYR24       0.0417
     43  CE2        5.4750   14.7690   60.3550 C.ar   24  TYR24       0.0417
     44  CZ         6.3410   15.5830   59.6570 C.ar   24  TYR24       0.1957
     45  OH         6.6730   16.8190   60.1630 O.3    24  TYR24      -0.2866
     46  N          4.4570    6.7110   56.1070 N.3    26  THR26      -0.1218
     47  CA         3.8570    5.7880   57.0580 C.3    26  THR26       0.1862
     48  C          3.5910    4.4530   56.3670 C.2    26  THR26       0.2287
     49  O          3.4860    4.3960   55.1420 O.2    26  THR26      -0.2866
     50  CB         2.5420    6.3590   57.6350 C.3    26  THR26       0.1770
     51  OG1        2.7200    7.7450   57.9530 O.3    26  THR26      -0.2211
     52  CG2        2.1160    5.6090   58.8880 C.3    26  THR26       0.0375
     53  N         -0.4870    2.7260   60.7950 N.3    30  GLY30      -0.1225
     54  CA        -0.0280    3.9950   61.3270 C.3    30  GLY30       0.1811
     55  C          1.3600    3.9710   61.9390 C.2    30  GLY30       0.2280
     56  O          1.5930    4.5860   62.9800 O.2    30  GLY30      -0.2866
     57  N          4.8460    5.3570   61.7010 N.3    32  LEU32      -0.1245
     58  CA         5.7200    6.3770   61.1360 C.3    32  LEU32       0.1561
     59  C          7.1080    5.8150   60.8510 C.2    32  LEU32       0.2260
     60  O          7.7780    5.3120   61.7510 O.2    32  LEU32      -0.2867
     61  CB         5.8250    7.5720   62.0840 C.3    32  LEU32       0.0270
     62  CG         6.9000    8.6110   61.7590 C.3    32  LEU32       0.0019
     63  CD1        6.6020    9.2960   60.4370 C.3    32  LEU32       0.0001
     64  CD2        7.0170    9.6300   62.8810 C.3    32  LEU32       0.0001
     65  N          0.1240    7.7360   70.6930 N.3   104  PHE104     -0.1227
     66  CA         0.4010    6.9420   69.5000 C.3   104  PHE104      0.1736
     67  C          0.5460    7.8480   68.2840 C.2   104  PHE104      0.2595
     68  O          1.2960    7.5500   67.3540 O.2   104  PHE104     -0.2718
     69  CB        -0.7170    5.9190   69.2730 C.3   104  PHE104      0.0547
     70  CG        -0.5180    5.0460   68.0620 C.ar  104  PHE104     -0.0202
     71  CD1        0.1410    3.8330   68.1690 C.ar  104  PHE104     -0.0042
     72  CD2       -1.0070    5.4280   66.8210 C.ar  104  PHE104     -0.0042
     73  CE1        0.3190    3.0240   67.0630 C.ar  104  PHE104     -0.0003
     74  CE2       -0.8280    4.6220   65.7100 C.ar  104  PHE104     -0.0003
     75  CZ        -0.1650    3.4180   65.8330 C.ar  104  PHE104     -0.0000
     76  N         -0.1750    8.9640   68.3130 N.am  105  GLN105     -0.1965
     77  CA        -0.2680    9.8660   67.1740 C.3   105  GLN105      0.1733
     78  C          0.7550   11.0010   67.2210 C.2   105  GLN105      0.2616
     79  O          1.3480   11.3510   66.2000 O.2   105  GLN105     -0.2715
     80  CB        -1.6850   10.4430   67.0940 C.3   105  GLN105      0.0408
     81  CG        -1.9090   11.4250   65.9610 C.3   105  GLN105      0.0908
     82  CD        -3.3430   11.9060   65.8860 C.2   105  GLN105      0.2608
     83  OE1       -4.1540   11.6150   66.7660 O.2   105  GLN105     -0.2717
     84  NE2       -3.6650   12.6450   64.8310 N.am  105  GLN105     -0.0878
     85  N          0.9630   11.5700   68.4050 N.am  106  MET106     -0.1977
     86  CA         1.7970   12.7620   68.5350 C.3   106  MET106      0.1605
     87  C          3.0750   12.5370   69.3410 C.2   106  MET106      0.2287
     88  O          3.9470   13.4050   69.3830 O.2   106  MET106     -0.2864
     89  CB         0.9870   13.8940   69.1710 C.3   106  MET106      0.0413
     90  CG        -0.1960   14.3490   68.3330 C.3   106  MET106      0.0598
     91  SD        -1.2110   15.5750   69.1780 S.3   106  MET106     -0.1393
     92  CE        -1.7800   14.6230   70.5830 C.3   106  MET106      0.0692
     93  N         -3.9520   22.6620   67.5660 N.3   137  ARG137     -0.1231
     94  CA        -3.5980   22.3520   66.1850 C.3   137  ARG137      0.1694
     95  C         -3.9350   20.9030   65.8530 C.2   137  ARG137      0.2592
     96  O         -4.2150   20.5690   64.7020 O.2   137  ARG137     -0.2718
     97  CB        -2.1120   22.6170   65.9330 C.3   137  ARG137      0.0321
     98  CG        -1.7520   22.7350   64.4590 C.3   137  ARG137      0.0489
     99  CD        -0.2510   22.6630   64.2410 C.3   137  ARG137      0.2205
    100  NE         0.2670   21.3170   64.4660 N.pl3 137  ARG137     -0.0865
    101  CZ         0.3170   20.3710   63.5340 C.cat 137  ARG137      0.5346
    102  NH1       -0.1200   20.6230   62.3070 N.pl3 137  ARG137      0.1354
    103  NH2        0.8040   19.1720   63.8260 N.pl3 137  ARG137      0.1354
    104  N         -3.9060   20.0490   66.8720 N.am  138  TRP138     -0.1976
    105  CA        -4.2490   18.6410   66.7150 C.3   138  TRP138      0.1640
    106  C         -5.6900   18.4800   66.2440 C.2   138  TRP138      0.2290
    107  O         -6.0130   17.5520   65.5030 O.2   138  TRP138     -0.2864
    108  CB        -4.0300   17.8880   68.0310 C.3   138  TRP138      0.0576
    109  CG        -4.5560   16.4830   68.0280 C.ar  138  TRP138      0.0006
    110  CD1       -4.1110   15.4420   67.2660 C.ar  138  TRP138      0.0946
    111  CD2       -5.6170   15.9620   68.8380 C.ar  138  TRP138      0.0152
    112  NE1       -4.8340   14.3080   67.5460 N.ar  138  TRP138     -0.2442
    113  CE2       -5.7650   14.6000   68.5080 C.ar  138  TRP138      0.0810
    114  CE3       -6.4580   16.5150   69.8080 C.ar  138  TRP138      0.0012
    115  CZ2       -6.7190   13.7850   69.1130 C.ar  138  TRP138      0.0191
    116  CZ3       -7.4050   15.7040   70.4080 C.ar  138  TRP138      0.0001
    117  CH2       -7.5270   14.3540   70.0580 C.ar  138  TRP138      0.0015
    118  N         -5.8650   20.0160   62.4460 N.3   141  GLN141     -0.1231
    119  CA        -5.1830   19.1650   61.4760 C.3   141  GLN141      0.1698
    120  C         -5.9860   17.9010   61.1870 C.2   141  GLN141      0.2592
    121  O         -6.1860   17.5300   60.0310 O.2   141  GLN141     -0.2718
    122  CB        -3.7850   18.7950   61.9780 C.3   141  GLN141      0.0381
    123  CG        -2.9680   17.9550   61.0050 C.3   141  GLN141      0.0905
    124  CD        -2.4870   18.7450   59.8010 C.2   141  GLN141      0.2608
    125  OE1       -2.5540   19.9750   59.7810 O.2   141  GLN141     -0.2717
    126  NE2       -1.9970   18.0380   58.7890 N.am  141  GLN141     -0.0878
    127  N         -6.4410   17.2430   62.2480 N.am  142  THR142     -0.1953
    128  CA        -7.2330   16.0260   62.1190 C.3   142  THR142      0.1897
    129  C         -8.5680   16.1690   62.8430 C.2   142  THR142      0.2313
    130  O         -8.7270   15.6720   63.9560 O.2   142  THR142     -0.2863
    131  CB        -6.4830   14.8030   62.6770 C.3   142  THR142      0.1794
    132  OG1       -6.1370   15.0380   64.0470 O.3   142  THR142     -0.2208
    133  CG2       -5.2130   14.5470   61.8790 C.3   142  THR142      0.0378
    134  N        -10.7380   12.7360   63.5130 N.3   145  ARG145     -0.1245
    135  CA       -10.1480   11.8440   64.5040 C.3   145  ARG145      0.1563
    136  C        -10.1630   12.4540   65.9000 C.2   145  ARG145      0.2260
    137  O        -10.4600   11.7690   66.8790 O.2   145  ARG145     -0.2867
    138  CB        -8.7150   11.4830   64.1110 C.3   145  ARG145      0.0307
    139  CG        -8.0120   10.6010   65.1260 C.3   145  ARG145      0.0489
    140  CD        -6.6810   10.1030   64.6020 C.3   145  ARG145      0.2205
    141  NE        -6.0390    9.1900   65.5420 N.pl3 145  ARG145     -0.0865
    142  CZ        -4.9450    8.4890   65.2670 C.cat 145  ARG145      0.5346
    143  NH1       -4.3740    8.5940   64.0760 N.pl3 145  ARG145      0.1354
    144  NH2       -4.4250    7.6800   66.1820 N.pl3 145  ARG145      0.1354
@<TRIPOS>BOND
     1    13    12    2
     2    49    48    2
     3    10    11    1
     4    37    36    2
     5    12    11    1
     6    12    18   am
     7    36    35    1
     8    34    35    1
     9    46    47    1
    10    11    14    1
    11    21    20    2
    12    48    47    1
    13    28    27    2
    14    35    38    1
    15    27    26    1
    16    19    20    1
    17    19    18    1
    18    19    22    1
    19    20    25   am
    20    47    50    1
    21    16    15   ar
    22    50    51    1
    23    50    52    1
    24    25    26    1
    25    14    15    1
    26    26    29    1
    27    40    42   ar
    28    40    39   ar
    29    24    22    1
    30    22    23    1
    31    38    39    1
    32    15    17   ar
    33    42    44   ar
    34    39    41   ar
    35   126   124   am
    36     4     3    2
    37    29    30    1
    38    44    45    1
    39    44    43   ar
    40   125   124    2
    41   124   123    1
    42    41    43   ar
    43    32    31   ar
    44     3     2    1
    45   121   120    2
    46    30    31    1
    47    63    62    1
    48    31    33   ar
    49    53    54    1
    50    59    58    1
    51    59    60    2
    52   123   122    1
    53    58    57    1
    54    58    61    1
    55     2     5    1
    56     2     1    1
    57   120   119    1
    58   120   127   am
    59    54    55    1
    60   119   122    1
    61   119   118    1
    62     8     7   ar
    63    62    61    1
    64    62    64    1
    65   133   131    1
    66     5     6    1
    67    55    56    2
    68   128   127    1
    69   128   131    1
    70   128   129    1
    71   102   101    1
    72   131   132    1
    73   129   130    2
    74     7     6    1
    75     7     9   ar
    76   134   135    1
    77   101   103    1
    78   101   100    2
    79   143   142    1
    80   138   135    1
    81   138   139    1
    82    99    98    1
    83    99   100    1
    84    98    97    1
    85   135   136    1
    86   140   139    1
    87   140   141    1
    88    96    95    2
    89    84    82   am
    90   142   141    2
    91   142   144    1
    92   107   106    2
    93    74    75   ar
    94    74    72   ar
    95    75    73   ar
    96    95    94    1
    97    95   104   am
    98    82    81    1
    99    82    83    2
   100   136   137    2
   101    97    94    1
   102    81    80    1
   103    94    93    1
   104    79    78    2
   105   106   105    1
   106   105   104    1
   107   105   108    1
   108    72    70   ar
   109    73    71   ar
   110    80    77    1
   111    77    78    1
   112    77    76    1
   113    78    85   am
   114   110   112   ar
   115   110   109   ar
   116    68    67    2
   117   112   113   ar
   118   109   108    1
   119   109   111   ar
   120    70    71   ar
   121    70    69    1
   122    67    76   am
   123    67    66    1
   124    90    89    1
   125    90    91    1
   126    85    86    1
   127   113   111   ar
   128   113   115   ar
   129    86    89    1
   130    86    87    1
   131   111   114   ar
   132   115   117   ar
   133    91    92    1
   134    69    66    1
   135    87    88    2
   136    66    65    1
   137   114   116   ar
   138   117   116   ar
