@<TRIPOS>MOLECULE
tmp/6mxtA04.pdb
 105 101 0 0 0
SMALL
GASTEIGER

@<TRIPOS>ATOM
      1  N          0.3010   14.5880   57.6610 N.3    22  GLU22      -0.1245
      2  CA         1.3950   15.5480   57.7710 C.3    22  GLU22       0.1567
      3  C          2.3960   15.3950   56.6290 C.2    22  GLU22       0.2260
      4  O          3.3520   16.1630   56.5220 O.2    22  GLU22      -0.2867
      5  CB         2.1120   15.3920   59.1160 C.3    22  GLU22       0.0388
      6  CG         1.2040   15.4940   60.3340 C.3    22  GLU22       0.1160
      7  CD         0.8880   16.9280   60.7320 C.2    22  GLU22       0.3649
      8  OE1        1.0320   17.8380   59.8890 O.co2  22  GLU22      -0.2457
      9  OE2        0.4970   17.1440   61.8990 O.co2  22  GLU22      -0.2457
     10  N          4.1350   12.5420   56.0920 N.3    24  TYR24      -0.1241
     11  CA         5.2240   11.6920   56.5590 C.3    24  TYR24       0.1605
     12  C          5.0450   10.2560   56.0750 C.2    24  TYR24       0.2264
     13  O          3.9260    9.7470   56.0170 O.2    24  TYR24      -0.2867
     14  CB         5.3080   11.7290   58.0840 C.3    24  TYR24       0.0534
     15  CG         5.6730   13.0860   58.6390 C.ar   24  TYR24      -0.0201
     16  CD1        6.5420   13.9260   57.9550 C.ar   24  TYR24      -0.0009
     17  CD2        5.1450   13.5290   59.8440 C.ar   24  TYR24      -0.0009
     18  CE1        6.8780   15.1670   58.4570 C.ar   24  TYR24       0.0417
     19  CE2        5.4750   14.7690   60.3550 C.ar   24  TYR24       0.0417
     20  CZ         6.3410   15.5830   59.6570 C.ar   24  TYR24       0.1957
     21  OH         6.6730   16.8190   60.1630 O.3    24  TYR24      -0.2866
     22  N          4.8460    5.3570   61.7010 N.3    32  LEU32      -0.1231
     23  CA         5.7200    6.3770   61.1360 C.3    32  LEU32       0.1693
     24  C          7.1080    5.8150   60.8510 C.2    32  LEU32       0.2592
     25  O          7.7780    5.3120   61.7510 O.2    32  LEU32      -0.2718
     26  CB         5.8250    7.5720   62.0840 C.3    32  LEU32       0.0284
     27  CG         6.9000    8.6110   61.7590 C.3    32  LEU32       0.0019
     28  CD1        6.6020    9.2960   60.4370 C.3    32  LEU32       0.0001
     29  CD2        7.0170    9.6300   62.8810 C.3    32  LEU32       0.0001
     30  N          7.5310    5.8970   59.5940 N.am   33  LEU33      -0.1966
     31  CA         8.8560    5.4290   59.2060 C.3    33  LEU33       0.1728
     32  C          9.9030    6.5150   59.4250 C.2    33  LEU33       0.2617
     33  O         10.9430    6.2710   60.0380 O.2    33  LEU33      -0.2715
     34  CB         8.8620    4.9800   57.7440 C.3    33  LEU33       0.0311
     35  CG         8.0210    3.7470   57.4140 C.3    33  LEU33       0.0022
     36  CD1        8.1000    3.4250   55.9340 C.3    33  LEU33       0.0001
     37  CD2        8.4710    2.5610   58.2510 C.3    33  LEU33       0.0001
     38  N          9.6180    7.7100   58.9190 N.am   34  THR34      -0.1937
     39  CA        10.5230    8.8450   59.0560 C.3    34  THR34       0.2028
     40  C          9.7960   10.1570   58.7900 C.2    34  THR34       0.2642
     41  O          8.7990   10.1910   58.0650 O.2    34  THR34      -0.2714
     42  CB        11.7280    8.7340   58.0960 C.3    34  THR34       0.1808
     43  OG1       12.5890    9.8660   58.2720 O.3    34  THR34      -0.2208
     44  CG2       11.2590    8.6860   56.6520 C.3    34  THR34       0.0379
     45  N         10.2990   11.2360   59.3810 N.am   35  LYS35      -0.1977
     46  CA         9.7460   12.5640   59.1480 C.3    35  LYS35       0.1596
     47  C         10.4830   13.2480   58.0010 C.2    35  LYS35       0.2287
     48  O         10.2460   14.4180   57.7010 O.2    35  LYS35      -0.2864
     49  CB         9.8270   13.4090   60.4180 C.3    35  LYS35       0.0298
     50  CG         9.0780   12.8150   61.5930 C.3    35  LYS35       0.0038
     51  CD         9.2000   13.6960   62.8210 C.3    35  LYS35       0.0206
     52  CE         8.3140   13.1880   63.9410 C.3    35  LYS35       0.1093
     53  NZ         6.9040   13.0610   63.4860 N.3    35  LYS35      -0.1314
     54  N         14.3930    2.5090   56.9020 N.3    45  GLU45      -0.1245
     55  CA        13.8320    2.3630   58.2390 C.3    45  GLU45       0.1567
     56  C         12.8740    1.1800   58.3070 C.2    45  GLU45       0.2260
     57  O         12.7990    0.4880   59.3220 O.2    45  GLU45      -0.2867
     58  CB        13.1160    3.6460   58.6660 C.3    45  GLU45       0.0388
     59  CG        14.0430    4.7070   59.2270 C.3    45  GLU45       0.1160
     60  CD        14.6870    4.2780   60.5310 C.2    45  GLU45       0.3649
     61  OE1       14.0420    3.5270   61.2950 O.co2  45  GLU45      -0.2457
     62  OE2       15.8390    4.6870   60.7910 O.co2  45  GLU45      -0.2457
     63  N          0.1240    7.7360   70.6930 N.3   104  PHE104     -0.1227
     64  CA         0.4010    6.9420   69.5000 C.3   104  PHE104      0.1736
     65  C          0.5460    7.8480   68.2840 C.2   104  PHE104      0.2595
     66  O          1.2960    7.5500   67.3540 O.2   104  PHE104     -0.2718
     67  CB        -0.7170    5.9190   69.2730 C.3   104  PHE104      0.0547
     68  CG        -0.5180    5.0460   68.0620 C.ar  104  PHE104     -0.0202
     69  CD1        0.1410    3.8330   68.1690 C.ar  104  PHE104     -0.0042
     70  CD2       -1.0070    5.4280   66.8210 C.ar  104  PHE104     -0.0042
     71  CE1        0.3190    3.0240   67.0630 C.ar  104  PHE104     -0.0003
     72  CE2       -0.8280    4.6220   65.7100 C.ar  104  PHE104     -0.0003
     73  CZ        -0.1650    3.4180   65.8330 C.ar  104  PHE104     -0.0000
     74  N         -0.1750    8.9640   68.3130 N.am  105  GLN105     -0.1965
     75  CA        -0.2680    9.8660   67.1740 C.3   105  GLN105      0.1733
     76  C          0.7550   11.0010   67.2210 C.2   105  GLN105      0.2616
     77  O          1.3480   11.3510   66.2000 O.2   105  GLN105     -0.2715
     78  CB        -1.6850   10.4430   67.0940 C.3   105  GLN105      0.0408
     79  CG        -1.9090   11.4250   65.9610 C.3   105  GLN105      0.0908
     80  CD        -3.3430   11.9060   65.8860 C.2   105  GLN105      0.2608
     81  OE1       -4.1540   11.6150   66.7660 O.2   105  GLN105     -0.2717
     82  NE2       -3.6650   12.6450   64.8310 N.am  105  GLN105     -0.0878
     83  N          0.9630   11.5700   68.4050 N.am  106  MET106     -0.1963
     84  CA         1.7970   12.7620   68.5350 C.3   106  MET106      0.1736
     85  C          3.0750   12.5370   69.3410 C.2   106  MET106      0.2617
     86  O          3.9470   13.4050   69.3830 O.2   106  MET106     -0.2715
     87  CB         0.9870   13.8940   69.1710 C.3   106  MET106      0.0427
     88  CG        -0.1960   14.3490   68.3330 C.3   106  MET106      0.0599
     89  SD        -1.2110   15.5750   69.1780 S.3   106  MET106     -0.1393
     90  CE        -1.7800   14.6230   70.5830 C.3   106  MET106      0.0692
     91  N          3.1880   11.3760   69.9790 N.am  107  GLY107     -0.1955
     92  CA         4.3500   11.0770   70.7950 C.3   107  GLY107      0.1869
     93  C          4.1480   11.4910   72.2400 C.2   107  GLY107      0.2309
     94  O          3.2310   12.2490   72.5500 O.2   107  GLY107     -0.2863
     95  N         -3.9520   22.6620   67.5660 N.3   137  ARG137     -0.1245
     96  CA        -3.5980   22.3520   66.1850 C.3   137  ARG137      0.1563
     97  C         -3.9350   20.9030   65.8530 C.2   137  ARG137      0.2260
     98  O         -4.2150   20.5690   64.7020 O.2   137  ARG137     -0.2867
     99  CB        -2.1120   22.6170   65.9330 C.3   137  ARG137      0.0307
    100  CG        -1.7520   22.7350   64.4590 C.3   137  ARG137      0.0489
    101  CD        -0.2510   22.6630   64.2410 C.3   137  ARG137      0.2205
    102  NE         0.2670   21.3170   64.4660 N.pl3 137  ARG137     -0.0865
    103  CZ         0.3170   20.3710   63.5340 C.cat 137  ARG137      0.5346
    104  NH1       -0.1200   20.6230   62.3070 N.pl3 137  ARG137      0.1354
    105  NH2        0.8040   19.1720   63.8260 N.pl3 137  ARG137      0.1354
@<TRIPOS>BOND
     1    36    35    1
     2    13    12    2
     3    12    11    1
     4    10    11    1
     5     4     3    2
     6    11    14    1
     7     3     2    1
     8    44    42    1
     9    54    55    1
    10    35    34    1
    11    35    37    1
    12     1     2    1
    13    48    47    2
    14    34    31    1
    15     2     5    1
    16    16    18   ar
    17    16    15   ar
    18    47    46    1
    19    41    40    2
    20    14    15    1
    21    42    43    1
    22    42    39    1
    23    55    56    1
    24    55    58    1
    25    56    57    2
    26    18    20   ar
    27    15    17   ar
    28    58    59    1
    29    40    39    1
    30    40    45   am
    31    38    39    1
    32    38    32   am
    33     5     6    1
    34    46    45    1
    35    46    49    1
    36    31    32    1
    37    31    30    1
    38    59    60    1
    39    32    33    2
    40    30    24   am
    41    20    21    1
    42    20    19   ar
    43    17    19   ar
    44     8     7   ar
    45     6     7    1
    46    49    50    1
    47    28    27    1
    48    60    62   ar
    49    60    61   ar
    50     7     9   ar
    51    24    23    1
    52    24    25    2
    53    23    22    1
    54    23    26    1
    55    50    51    1
    56    27    26    1
    57    27    29    1
    58   104   103    1
    59    51    52    1
    60    53    52    1
    61   103   105    1
    62   103   102    2
    63   101   100    1
    64   101   102    1
    65   100    99    1
    66    98    97    2
    67    82    80   am
    68    72    73   ar
    69    72    70   ar
    70    73    71   ar
    71    97    96    1
    72    80    79    1
    73    80    81    2
    74    99    96    1
    75    79    78    1
    76    96    95    1
    77    77    76    2
    78    70    68   ar
    79    71    69   ar
    80    78    75    1
    81    75    76    1
    82    75    74    1
    83    76    83   am
    84    66    65    2
    85    68    69   ar
    86    68    67    1
    87    65    74   am
    88    65    64    1
    89    88    87    1
    90    88    89    1
    91    83    84    1
    92    84    87    1
    93    84    85    1
    94    89    90    1
    95    67    64    1
    96    85    86    2
    97    85    91   am
    98    64    63    1
    99    91    92    1
   100    92    93    1
   101    93    94    2
