@<TRIPOS>MOLECULE
tmp/6mxtA01.pdb
 94 89 0 0 0
SMALL
GASTEIGER

@<TRIPOS>ATOM
      1  N        -21.2240    5.5010   20.8740 N.3   351  VAL351     -0.1245
      2  CA       -21.4110    6.9390   20.7190 C.3   351  VAL351      0.1561
      3  C        -21.6430    7.2930   19.2510 C.2   351  VAL351      0.2260
      4  O        -22.4910    8.1260   18.9310 O.2   351  VAL351     -0.2867
      5  CB       -20.2040    7.7280   21.2690 C.3   351  VAL351      0.0252
      6  CG1      -20.2740    9.1890   20.8520 C.3   351  VAL351      0.0019
      7  CG2      -20.1460    7.6070   22.7810 C.3   351  VAL351      0.0019
      8  N        -25.1620    5.8520   17.9280 N.3   354  TYR354     -0.1227
      9  CA       -26.2720    6.5170   18.5970 C.3   354  TYR354      0.1736
     10  C        -26.3320    7.9880   18.2090 C.2   354  TYR354      0.2596
     11  O        -27.3860    8.6170   18.2940 O.2   354  TYR354     -0.2718
     12  CB       -26.1630    6.3640   20.1140 C.3   354  TYR354      0.0548
     13  CG       -26.7320    5.0590   20.6270 C.ar  354  TYR354     -0.0200
     14  CD1      -27.6130    4.3150   19.8530 C.ar  354  TYR354     -0.0009
     15  CD2      -26.3960    4.5760   21.8840 C.ar  354  TYR354     -0.0009
     16  CE1      -28.1420    3.1270   20.3160 C.ar  354  TYR354      0.0417
     17  CE2      -26.9200    3.3860   22.3550 C.ar  354  TYR354      0.0417
     18  CZ       -27.7930    2.6660   21.5660 C.ar  354  TYR354      0.1957
     19  OH       -28.3170    1.4800   22.0270 O.3   354  TYR354     -0.2866
     20  N        -25.1960    8.5300   17.7830 N.am  355  SER355     -0.1952
     21  CA       -25.1660    9.8760   17.2290 C.3   355  SER355      0.1924
     22  C        -25.9300    9.8840   15.9140 C.2   355  SER355      0.2314
     23  O        -26.6640   10.8240   15.6140 O.2   355  SER355     -0.2863
     24  CB       -23.7290   10.3530   17.0180 C.3   355  SER355      0.2116
     25  OG       -23.0150   10.3670   18.2410 O.3   355  SER355     -0.2180
     26  N        -29.5000    9.6830   16.6600 N.3   358  PHE358     -0.1241
     27  CA       -29.8980   11.0170   17.0950 C.3   358  PHE358      0.1605
     28  C        -30.2060   11.9030   15.8920 C.2   358  PHE358      0.2264
     29  O        -31.1850   12.6460   15.8950 O.2   358  PHE358     -0.2867
     30  CB       -28.8030   11.6530   17.9570 C.3   358  PHE358      0.0534
     31  CG       -29.1150   13.0550   18.4050 C.ar  358  PHE358     -0.0203
     32  CD1      -29.9450   13.2800   19.4920 C.ar  358  PHE358     -0.0042
     33  CD2      -28.5700   14.1460   17.7480 C.ar  358  PHE358     -0.0042
     34  CE1      -30.2330   14.5690   19.9090 C.ar  358  PHE358     -0.0003
     35  CE2      -28.8530   15.4360   18.1600 C.ar  358  PHE358     -0.0003
     36  CZ       -29.6860   15.6470   19.2410 C.ar  358  PHE358     -0.0000
     37  N        -39.6080   10.9820   19.6650 N.3   375  HIS375     -0.1241
     38  CA       -39.5040   11.5050   21.0230 C.3   375  HIS375      0.1621
     39  C        -39.1320   10.4020   22.0090 C.2   375  HIS375      0.2264
     40  O        -38.2220   10.5630   22.8210 O.2   375  HIS375     -0.2867
     41  CB       -40.8120   12.1710   21.4520 C.3   375  HIS375      0.0745
     42  CG       -40.9470   13.5900   20.9950 C.ar  375  HIS375      0.0817
     43  ND1      -41.8530   13.9800   20.0330 N.ar  375  HIS375     -0.2268
     44  CD2      -40.2880   14.7120   21.3690 C.ar  375  HIS375      0.1154
     45  CE1      -41.7480   15.2820   19.8340 C.ar  375  HIS375      0.1986
     46  NE2      -40.8060   15.7500   20.6330 N.ar  375  HIS375     -0.2212
     47  N        -35.4710    9.3360   21.4760 N.3   378  LEU378     -0.1231
     48  CA       -34.5010   10.2400   22.0880 C.3   378  LEU378      0.1693
     49  C        -34.4370   10.0570   23.6020 C.2   378  LEU378      0.2591
     50  O        -33.3600   10.1070   24.1960 O.2   378  LEU378     -0.2718
     51  CB       -34.8370   11.6960   21.7520 C.3   378  LEU378      0.0284
     52  CG       -34.6160   12.1320   20.3030 C.3   378  LEU378      0.0019
     53  CD1      -35.0240   13.5820   20.1050 C.3   378  LEU378      0.0001
     54  CD2      -33.1680   11.9240   19.9040 C.3   378  LEU378      0.0001
     55  N        -35.5950    9.8490   24.2190 N.am  379  LYS379     -0.1980
     56  CA       -35.6700    9.6500   25.6610 C.3   379  LYS379      0.1596
     57  C        -34.9770    8.3510   26.0600 C.2   379  LYS379      0.2287
     58  O        -34.1980    8.3190   27.0120 O.2   379  LYS379     -0.2864
     59  CB       -37.1270    9.6430   26.1270 C.3   379  LYS379      0.0298
     60  CG       -37.3000    9.5890   27.6350 C.3   379  LYS379      0.0038
     61  CD       -38.7700    9.5720   28.0220 C.3   379  LYS379      0.0206
     62  CE       -38.9480    9.6250   29.5310 C.3   379  LYS379      0.1093
     63  NZ       -38.3100    8.4630   30.2110 N.3   379  LYS379     -0.1314
     64  N        -32.8110    6.8800   24.2210 N.3   381  LEU381     -0.1231
     65  CA       -31.4300    7.0960   23.8090 C.3   381  LEU381      0.1693
     66  C        -30.6150    7.7350   24.9290 C.2   381  LEU381      0.2592
     67  O        -29.4370    7.4270   25.1070 O.2   381  LEU381     -0.2718
     68  CB       -31.3800    7.9750   22.5580 C.3   381  LEU381      0.0284
     69  CG       -30.0510    8.0220   21.8090 C.3   381  LEU381      0.0019
     70  CD1      -29.6350    6.6150   21.4440 C.3   381  LEU381      0.0001
     71  CD2      -30.1670    8.8860   20.5640 C.3   381  LEU381      0.0001
     72  N        -31.2540    8.6240   25.6820 N.am  382  GLY382     -0.1957
     73  CA       -30.5990    9.2990   26.7850 C.3   382  GLY382      0.1869
     74  C        -30.3820    8.3810   27.9710 C.2   382  GLY382      0.2309
     75  O        -29.3100    8.3770   28.5730 O.2   382  GLY382     -0.2863
     76  N        -27.3770    5.7400   27.0660 N.3   385  MET385     -0.1230
     77  CA       -26.0440    6.3280   27.1410 C.3   385  MET385      0.1702
     78  C        -25.7890    6.9900   28.4880 C.2   385  MET385      0.2592
     79  O        -24.6470    7.0780   28.9390 O.2   385  MET385     -0.2718
     80  CB       -25.8400    7.3390   26.0130 C.3   385  MET385      0.0401
     81  CG       -25.5390    6.7130   24.6580 C.3   385  MET385      0.0596
     82  SD       -23.9530    5.8530   24.6020 S.3   385  MET385     -0.1393
     83  CE       -24.4540    4.1570   24.8900 C.3   385  MET385      0.0692
     84  N        -26.8580    7.4560   29.1250 N.am  386  GLY386     -0.1957
     85  CA       -26.7500    8.0610   30.4380 C.3   386  GLY386      0.1869
     86  C        -26.2710    7.0640   31.4730 C.2   386  GLY386      0.2309
     87  O        -25.1480    7.1630   31.9650 O.2   386  GLY386     -0.2863
     88  N        -22.7460    5.1330   30.6110 N.3   389  THR389     -0.1218
     89  CA       -21.5110    5.8890   30.7870 C.3   389  THR389      0.1862
     90  C        -21.3210    6.3180   32.2390 C.2   389  THR389      0.2287
     91  O        -20.2150    6.2670   32.7660 O.2   389  THR389     -0.2866
     92  CB       -21.4730    7.1330   29.8820 C.3   389  THR389      0.1770
     93  OG1      -22.6240    7.9470   30.1360 O.3   389  THR389     -0.2211
     94  CG2      -21.4630    6.7220   28.4160 C.3   389  THR389      0.0375
@<TRIPOS>BOND
     1    23    22    2
     2    28    29    2
     3    28    27    1
     4    22    21    1
     5    26    27    1
     6    24    21    1
     7    24    25    1
     8    27    30    1
     9    21    20    1
    10    33    35   ar
    11    33    31   ar
    12    20    10   am
    13     8     9    1
    14    30    31    1
    15    35    36   ar
    16    10    11    2
    17    10     9    1
    18    31    32   ar
    19     9    12    1
    20     4     3    2
    21    36    34   ar
    22     3     2    1
    23    32    34   ar
    24    37    38    1
    25    45    43   ar
    26    45    46   ar
    27    14    16   ar
    28    14    13   ar
    29    54    52    1
    30    43    42   ar
    31    53    52    1
    32    12    13    1
    33    52    51    1
    34    16    18   ar
    35    71    69    1
    36    13    15   ar
    37    46    44   ar
    38     2     1    1
    39     2     5    1
    40     6     5    1
    41    42    44   ar
    42    42    41    1
    43    38    41    1
    44    38    39    1
    45     5     7    1
    46    70    69    1
    47    47    48    1
    48    18    19    1
    49    18    17   ar
    50    51    48    1
    51    69    68    1
    52    15    17   ar
    53    39    40    2
    54    48    49    1
    55    68    65    1
    56    49    50    2
    57    49    55   am
    58    65    64    1
    59    65    66    1
    60    55    56    1
    61    82    81    1
    62    82    83    1
    63    81    80    1
    64    66    67    2
    65    66    72   am
    66    56    57    1
    67    56    59    1
    68    72    73    1
    69    80    77    1
    70    57    58    2
    71    59    60    1
    72    73    74    1
    73    76    77    1
    74    77    78    1
    75    60    61    1
    76    74    75    2
    77    61    62    1
    78    94    92    1
    79    78    79    2
    80    78    84   am
    81    84    85    1
    82    62    63    1
    83    92    93    1
    84    92    89    1
    85    85    86    1
    86    88    89    1
    87    89    90    1
    88    86    87    2
    89    90    91    2
