@<TRIPOS>MOLECULE
tmp/6mxtA03.pdb
 97 92 0 0 0
SMALL
GASTEIGER

@<TRIPOS>ATOM
      1  N        -14.5810  -13.6380   22.3860 N.3   295  VAL295     -0.1245
      2  CA       -13.7050  -12.5040   22.6500 C.3   295  VAL295      0.1561
      3  C        -13.5470  -12.2910   24.1520 C.2   295  VAL295      0.2260
      4  O        -12.4280  -12.2080   24.6550 O.2   295  VAL295     -0.2867
      5  CB       -14.2330  -11.2100   21.9960 C.3   295  VAL295      0.0252
      6  CG1      -13.5830   -9.9850   22.6230 C.3   295  VAL295      0.0019
      7  CG2      -13.9910  -11.2370   20.4940 C.3   295  VAL295      0.0019
      8  N        -11.2520  -14.4910   25.7870 N.3   298  LEU298     -0.1231
      9  CA        -9.8570  -14.2100   25.4660 C.3   298  LEU298      0.1693
     10  C         -9.3310  -12.9850   26.2060 C.2   298  LEU298      0.2592
     11  O         -8.1380  -12.6880   26.1470 O.2   298  LEU298     -0.2718
     12  CB        -9.6830  -14.0140   23.9580 C.3   298  LEU298      0.0284
     13  CG       -10.0380  -15.2020   23.0600 C.3   298  LEU298      0.0019
     14  CD1       -9.7330  -14.8840   21.6040 C.3   298  LEU298      0.0001
     15  CD2       -9.3080  -16.4610   23.5040 C.3   298  LEU298      0.0001
     16  N        -10.2180  -12.2710   26.8930 N.am  299  THR299     -0.1953
     17  CA        -9.8100  -11.1030   27.6710 C.3   299  THR299      0.1897
     18  C         -9.8470  -11.3980   29.1640 C.2   299  THR299      0.2313
     19  O         -9.3130  -10.6370   29.9700 O.2   299  THR299     -0.2863
     20  CB       -10.7060   -9.8780   27.3950 C.3   299  THR299      0.1794
     21  OG1      -11.9340  -10.0030   28.1230 O.3   299  THR299     -0.2208
     22  CG2      -11.0050   -9.7490   25.9150 C.3   299  THR299      0.0378
     23  N         -6.1070  -14.6400   29.5710 N.3   303  PRO303     -0.2116
     24  CA        -4.9580  -13.9110   30.1250 C.3   303  PRO303      0.1372
     25  C         -4.7540  -14.1300   31.6250 C.2   303  PRO303      0.2244
     26  O         -3.6200  -14.0790   32.1000 O.2   303  PRO303     -0.2868
     27  CB        -5.3030  -12.4410   29.8470 C.3   303  PRO303      0.0268
     28  CG        -6.3900  -12.4720   28.8210 C.3   303  PRO303      0.0207
     29  CD        -7.1570  -13.7160   29.1090 C.3   303  PRO303      0.0892
     30  N         -0.9820  -13.7650   32.5410 N.3   308  TRP308     -0.1241
     31  CA        -0.4880  -12.7000   31.6750 C.3   308  TRP308      0.1605
     32  C         -0.8800  -11.3310   32.2210 C.2   308  TRP308      0.2264
     33  O         -0.2570  -10.3190   31.8980 O.2   308  TRP308     -0.2867
     34  CB        -1.0280  -12.8600   30.2530 C.3   308  TRP308      0.0550
     35  CG        -0.5950  -14.1150   29.5600 C.ar  308  TRP308      0.0003
     36  CD1        0.3940  -14.9710   29.9490 C.ar  308  TRP308      0.0946
     37  CD2       -1.1460  -14.6580   28.3550 C.ar  308  TRP308      0.0152
     38  NE1        0.4950  -16.0130   29.0570 N.ar  308  TRP308     -0.2442
     39  CE2       -0.4400  -15.8450   28.0700 C.ar  308  TRP308      0.0810
     40  CE3       -2.1670  -14.2560   27.4890 C.ar  308  TRP308      0.0012
     41  CZ2       -0.7240  -16.6320   26.9560 C.ar  308  TRP308      0.0191
     42  CZ3       -2.4470  -15.0390   26.3830 C.ar  308  TRP308      0.0001
     43  CH2       -1.7270  -16.2130   26.1260 C.ar  308  TRP308      0.0015
     44  N         -0.8220  -10.4340   35.3680 N.3   310  ARG310     -0.1245
     45  CA        -0.1330  -10.1320   36.6200 C.3   310  ARG310      0.1563
     46  C          0.8740   -8.9870   36.5330 C.2   310  ARG310      0.2260
     47  O          1.6830   -8.9160   35.6070 O.2   310  ARG310     -0.2867
     48  CB         0.5700  -11.3880   37.1380 C.3   310  ARG310      0.0307
     49  CG        -0.3830  -12.4390   37.6740 C.3   310  ARG310      0.0489
     50  CD         0.3500  -13.5100   38.4630 C.3   310  ARG310      0.2205
     51  NE        -0.5740  -14.3130   39.2580 N.pl3 310  ARG310     -0.0865
     52  CZ        -0.2000  -15.2710   40.1000 C.cat 310  ARG310      0.5346
     53  NH1        1.0850  -15.5520   40.2600 N.pl3 310  ARG310      0.1354
     54  NH2       -1.1130  -15.9470   40.7830 N.pl3 310  ARG310      0.1354
     55  N         -0.8800   -5.4990   35.1740 N.3   331  ASN331     -0.1240
     56  CA         0.1770   -4.7280   34.5310 C.3   331  ASN331      0.1653
     57  C         -0.4100   -3.6630   33.6120 C.2   331  ASN331      0.2266
     58  O         -1.5830   -3.7320   33.2450 O.2   331  ASN331     -0.2867
     59  CB         1.1230   -5.6420   33.7480 C.3   331  ASN331      0.1155
     60  CG         0.4030   -6.4880   32.7160 C.2   331  ASN331      0.2627
     61  OD1       -0.0650   -5.9820   31.6970 O.2   331  ASN331     -0.2716
     62  ND2        0.3270   -7.7880   32.9680 N.am  331  ASN331     -0.0877
     63  N          0.1020   -3.0730   30.5130 N.3   333  ALA333     -0.1231
     64  CA        -0.2560   -3.6040   29.2030 C.3   333  ALA333      0.1694
     65  C         -1.6530   -4.2190   29.2010 C.2   333  ALA333      0.2592
     66  O         -2.5220   -3.7870   28.4460 O.2   333  ALA333     -0.2718
     67  CB         0.7710   -4.6260   28.7510 C.3   333  ALA333      0.0304
     68  N         -1.8650   -5.2210   30.0490 N.am  334  TYR334     -0.1976
     69  CA        -3.1540   -5.9070   30.1120 C.3   334  TYR334      0.1639
     70  C         -4.2890   -4.9680   30.5080 C.2   334  TYR334      0.2290
     71  O         -5.4170   -5.1210   30.0400 O.2   334  TYR334     -0.2864
     72  CB        -3.1000   -7.0790   31.0960 C.3   334  TYR334      0.0560
     73  CG        -4.4590   -7.6890   31.3630 C.ar  334  TYR334     -0.0198
     74  CD1       -5.0400   -8.5600   30.4510 C.ar  334  TYR334     -0.0009
     75  CD2       -5.1670   -7.3840   32.5200 C.ar  334  TYR334     -0.0009
     76  CE1       -6.2820   -9.1160   30.6850 C.ar  334  TYR334      0.0417
     77  CE2       -6.4110   -7.9350   32.7620 C.ar  334  TYR334      0.0417
     78  CZ        -6.9630   -8.8010   31.8410 C.ar  334  TYR334      0.1957
     79  OH        -8.2010   -9.3550   32.0730 O.3   334  TYR334     -0.2866
     80  N         -5.1650   -2.9040   27.5600 N.3   337  ALA337     -0.1231
     81  CA        -5.5720   -3.8160   26.4970 C.3   337  ALA337      0.1694
     82  C         -6.9830   -4.3250   26.7560 C.2   337  ALA337      0.2592
     83  O         -7.8030   -4.4020   25.8430 O.2   337  ALA337     -0.2718
     84  CB        -4.6020   -4.9760   26.3820 C.3   337  ALA337      0.0304
     85  N         -7.2600   -4.6690   28.0090 N.am  338  SER338     -0.1952
     86  CA        -8.5760   -5.1650   28.3900 C.3   338  SER338      0.1924
     87  C         -9.5820   -4.0280   28.5150 C.2   338  SER338      0.2314
     88  O        -10.7760   -4.2300   28.3150 O.2   338  SER338     -0.2863
     89  CB        -8.5010   -5.9390   29.7060 C.3   338  SER338      0.2116
     90  OG        -8.2000   -5.0740   30.7860 O.3   338  SER338     -0.2180
     91  N        -10.7630   -3.0800   24.9800 N.3   341  VAL341     -0.1245
     92  CA       -11.4490   -4.1900   24.3270 C.3   341  VAL341      0.1561
     93  C        -12.7620   -4.5290   25.0300 C.2   341  VAL341      0.2260
     94  O        -13.6290   -5.1820   24.4510 O.2   341  VAL341     -0.2867
     95  CB       -10.5560   -5.4530   24.2680 C.3   341  VAL341      0.0252
     96  CG1      -10.5800   -6.1880   25.5950 C.3   341  VAL341      0.0019
     97  CG2      -11.0080   -6.3770   23.1480 C.3   341  VAL341      0.0019
@<TRIPOS>BOND
     1     7     5    1
     2    14    13    1
     3     5     6    1
     4     5     2    1
     5     1     2    1
     6     2     3    1
     7    13    15    1
     8    13    12    1
     9    97    95    1
    10    12     9    1
    11     3     4    2
    12    95    92    1
    13    95    96    1
    14    92    91    1
    15    92    93    1
    16    94    93    2
    17     9     8    1
    18     9    10    1
    19    83    82    2
    20    22    20    1
    21    43    42   ar
    22    43    41   ar
    23    11    10    2
    24    10    16   am
    25    84    81    1
    26    42    40   ar
    27    81    82    1
    28    81    80    1
    29    82    85   am
    30    16    17    1
    31    41    39   ar
    32    20    17    1
    33    20    21    1
    34    40    37   ar
    35    17    18    1
    36    85    86    1
    37    39    37   ar
    38    39    38   ar
    39    88    87    2
    40    37    35   ar
    41    86    87    1
    42    86    89    1
    43    66    65    2
    44    67    64    1
    45    28    29    1
    46    28    27    1
    47    38    36   ar
    48    29    23    1
    49    18    19    2
    50    65    64    1
    51    65    68   am
    52    64    63    1
    53    35    36   ar
    54    35    34    1
    55    23    24    1
    56    89    90    1
    57    27    24    1
    58    71    70    2
    59    68    69    1
    60    69    70    1
    61    69    72    1
    62    24    25    1
    63    34    31    1
    64    74    76   ar
    65    74    73   ar
    66    76    78   ar
    67    72    73    1
    68    73    75   ar
    69    25    26    2
    70    31    32    1
    71    31    30    1
    72    61    60    2
    73    78    79    1
    74    78    77   ar
    75    33    32    2
    76    75    77   ar
    77    60    62   am
    78    60    59    1
    79    58    57    2
    80    57    56    1
    81    59    56    1
    82    56    55    1
    83    44    45    1
    84    47    46    2
    85    46    45    1
    86    45    48    1
    87    48    49    1
    88    49    50    1
    89    50    51    1
    90    51    52    2
    91    52    53    1
    92    52    54    1
