@<TRIPOS>MOLECULE
tmp/6mxvB02.pdb
 108 101 0 0 0
SMALL
GASTEIGER

@<TRIPOS>ATOM
      1  N          8.6390    7.0010   40.1160 N.3    20  GLN20      -0.1231
      2  CA         9.4580    7.5660   41.1780 C.3    20  GLN20       0.1698
      3  C          8.5790    7.8460   42.3890 C.2    20  GLN20       0.2592
      4  O          7.4370    8.3010   42.2420 O.2    20  GLN20      -0.2718
      5  CB        10.1070    8.8670   40.6970 C.3    20  GLN20       0.0381
      6  CG        10.8880    9.5970   41.7530 C.3    20  GLN20       0.0905
      7  CD        12.1670    8.8780   42.0630 C.2    20  GLN20       0.2608
      8  OE1       12.9220    8.5270   41.1440 O.2    20  GLN20      -0.2717
      9  NE2       12.4230    8.6230   43.3510 N.am   20  GLN20      -0.0878
     10  N          9.0960    7.5440   43.5850 N.am   21  GLU21      -0.1966
     11  CA         8.3890    7.8520   44.8240 C.3    21  GLU21       0.1733
     12  C          9.1860    8.8430   45.6580 C.2    21  GLU21       0.2616
     13  O         10.4180    8.9150   45.5640 O.2    21  GLU21      -0.2715
     14  CB         8.1070    6.5860   45.6700 C.3    21  GLU21       0.0429
     15  CG         7.2180    5.5870   44.9530 C.3    21  GLU21       0.1163
     16  CD         6.9960    4.3170   45.7480 C.2    21  GLU21       0.3649
     17  OE1        5.9520    4.2280   46.4290 O.co2  21  GLU21      -0.2457
     18  OE2        7.8620    3.4190   45.6940 O.co2  21  GLU21      -0.2457
     19  N          8.4650    9.6080   46.4810 N.am   22  CYS22      -0.1968
     20  CA         9.0800   10.4360   47.5100 C.3    22  CYS22       0.1712
     21  C          8.4180   10.1230   48.8530 C.2    22  CYS22       0.2296
     22  O          7.4690    9.3380   48.9320 O.2    22  CYS22      -0.2864
     23  CB         8.9770   11.9260   47.1570 C.3    22  CYS22       0.0983
     24  SG         7.3090   12.6020   47.3680 S.3    22  CYS22      -0.0798
     25  N          9.3470   14.6510   52.4900 N.3    26  ASP26      -0.1239
     26  CA         9.7190   15.5570   51.3980 C.3    26  ASP26       0.1674
     27  C          8.6240   16.5670   51.1430 C.2    26  ASP26       0.2266
     28  O          8.9000   17.7550   50.9070 O.2    26  ASP26      -0.2867
     29  CB         9.9820   14.7830   50.1000 C.3    26  ASP26       0.1410
     30  CG        11.1800   13.8820   50.1880 C.2    26  ASP26       0.3668
     31  OD1       12.1310   14.2420   50.9050 O.co2  26  ASP26      -0.2456
     32  OD2       11.1500   12.8110   49.5440 O.co2  26  ASP26      -0.2456
     33  N          8.5920   25.7470   49.2160 N.3    34  THR34      -0.1218
     34  CA         9.4260   25.3520   48.0880 C.3    34  THR34       0.1862
     35  C          8.8210   24.1840   47.3150 C.2    34  THR34       0.2287
     36  O          9.5250   23.5180   46.5480 O.2    34  THR34      -0.2866
     37  CB        10.8510   25.0360   48.5470 C.3    34  THR34       0.1770
     38  OG1       10.8340   23.9800   49.5210 O.3    34  THR34      -0.2211
     39  CG2       11.4700   26.2770   49.1680 C.3    34  THR34       0.0375
     40  N          7.4860   22.2550   44.4170 N.3    36  ASP36      -0.1239
     41  CA         7.9110   22.5340   43.0530 C.3    36  ASP36       0.1674
     42  C          7.0670   21.7860   42.0280 C.2    36  ASP36       0.2266
     43  O          7.5020   21.5910   40.8890 O.2    36  ASP36      -0.2867
     44  CB         9.3930   22.2010   42.8790 C.3    36  ASP36       0.1410
     45  CG         9.6880   20.7140   43.0170 C.2    36  ASP36       0.3668
     46  OD1        8.8650   19.9590   43.5870 O.co2  36  ASP36      -0.2456
     47  OD2       10.7640   20.2910   42.5390 O.co2  36  ASP36      -0.2456
     48  N          5.2460   18.0990   30.5320 N.3    76  ASN76      -0.1240
     49  CA         6.3940   18.2310   31.4220 C.3    76  ASN76       0.1653
     50  C          6.0250   18.7290   32.8290 C.2    76  ASN76       0.2266
     51  O          6.9220   18.8700   33.6710 O.2    76  ASN76      -0.2867
     52  CB         7.4570   19.1510   30.7810 C.3    76  ASN76       0.1155
     53  CG         8.7860   19.0950   31.5160 C.2    76  ASN76       0.2627
     54  OD1        9.3420   18.0090   31.7210 O.2    76  ASN76      -0.2716
     55  ND2        9.3020   20.2610   31.9200 N.am   76  ASN76      -0.0877
     56  N          5.4320   18.9590   36.5740 N.3    78  LYS78      -0.1245
     57  CA         5.7880   18.1080   37.7000 C.3    78  LYS78       0.1561
     58  C          4.5900   17.9550   38.6120 C.2    78  LYS78       0.2260
     59  O          3.9340   18.9450   38.9690 O.2    78  LYS78      -0.2867
     60  CB         6.9530   18.6960   38.4860 C.3    78  LYS78       0.0271
     61  CG         7.5080   17.7320   39.5280 C.3    78  LYS78       0.0035
     62  CD         8.8360   18.2830   40.0600 C.3    78  LYS78       0.0206
     63  CE         9.6300   17.2280   40.8240 C.3    78  LYS78       0.1093
     64  NZ        10.9480   17.8020   41.3060 N.3    78  LYS78      -0.1314
     65  N          2.9920   15.6380   42.0520 N.3    79  TYR79      -0.1241
     66  CA         3.0840   14.6780   43.1480 C.3    79  TYR79       0.1605
     67  C          1.6860   14.1620   43.4240 C.2    79  TYR79       0.2264
     68  O          0.7670   14.9670   43.6060 O.2    79  TYR79      -0.2867
     69  CB         3.6200   15.3310   44.4270 C.3    79  TYR79       0.0534
     70  CG         4.9940   15.9200   44.3170 C.ar   79  TYR79      -0.0201
     71  CD1        5.1900   17.2230   43.8630 C.ar   79  TYR79      -0.0009
     72  CD2        6.1140   15.1650   44.6780 C.ar   79  TYR79      -0.0009
     73  CE1        6.5030   17.7580   43.7760 C.ar   79  TYR79       0.0417
     74  CE2        7.4030   15.6950   44.6240 C.ar   79  TYR79       0.0417
     75  CZ         7.5910   16.9780   44.1560 C.ar   79  TYR79       0.1957
     76  OH         8.8910   17.4710   44.1040 O.3    79  TYR79      -0.2866
     77  N          5.7540   12.1930   32.2560 N.3   100  LYS100     -0.1231
     78  CA         6.8340   11.4510   32.8940 C.3   100  LYS100      0.1693
     79  C          7.3120   12.0960   34.1760 C.2   100  LYS100      0.2592
     80  O          8.0150   11.4370   34.9500 O.2   100  LYS100     -0.2718
     81  CB         8.0300   11.2990   31.9470 C.3   100  LYS100      0.0285
     82  CG         7.6930   10.6930   30.5890 C.3   100  LYS100      0.0035
     83  CD         7.1770    9.2640   30.6870 C.3   100  LYS100      0.0206
     84  CE         7.2240    8.5810   29.3020 C.3   100  LYS100      0.1093
     85  NZ         6.3930    7.3350   29.1820 N.3   100  LYS100     -0.1314
     86  N          6.9790   13.3670   34.3940 N.am  101  ASN101     -0.1960
     87  CA         7.4690   14.1330   35.5440 C.3   101  ASN101      0.1819
     88  C          6.5450   13.9280   36.7330 C.2   101  ASN101      0.2621
     89  O          5.9970   14.8730   37.3060 O.2   101  ASN101     -0.2715
     90  CB         7.5820   15.6130   35.1510 C.3   101  ASN101      0.1195
     91  CG         8.5770   16.4040   36.0000 C.2   101  ASN101      0.2630
     92  OD1        9.1880   15.8740   36.9240 O.2   101  ASN101     -0.2716
     93  ND2        8.7580   17.7020   35.6580 N.am  101  ASN101     -0.0877
     94  N          6.3490   12.6590   37.1000 N.am  102  VAL102     -0.1963
     95  CA         5.3580   12.2850   38.0980 C.3   102  VAL102      0.1727
     96  C          6.0240   11.5460   39.2470 C.2   102  VAL102      0.2616
     97  O          7.0010   10.8090   39.0630 O.2   102  VAL102     -0.2715
     98  CB         4.2280   11.4360   37.4770 C.3   102  VAL102      0.0290
     99  CG1        3.4290   12.2850   36.4990 C.3   102  VAL102      0.0023
    100  CG2        4.7840   10.1590   36.8300 C.3   102  VAL102      0.0023
    101  N          5.4860   11.7640   40.4520 N.am  103  ILE103     -0.1977
    102  CA         6.0160   11.1930   41.6790 C.3   103  ILE103      0.1596
    103  C          4.8450   10.7540   42.5400 C.2   103  ILE103      0.2287
    104  O          3.8740   11.5050   42.7060 O.2   103  ILE103     -0.2864
    105  CB         6.8910   12.2090   42.4470 C.3   103  ILE103      0.0276
    106  CG1        8.0740   12.6630   41.5870 C.3   103  ILE103      0.0022
    107  CG2        7.3870   11.6090   43.7810 C.3   103  ILE103      0.0022
    108  CD1        7.8810   14.0450   41.0200 C.3   103  ILE103      0.0001
@<TRIPOS>BOND
     1    85    84    1
     2    84    83    1
     3    48    49    1
     4    82    83    1
     5    82    81    1
     6    52    49    1
     7    52    53    1
     8    49    50    1
     9    53    54    2
    10    53    55   am
    11    81    78    1
    12    77    78    1
    13    50    51    2
    14    78    79    1
    15    79    86   am
    16    79    80    2
    17    86    87    1
    18    90    87    1
    19    90    91    1
    20    87    88    1
    21    93    91   am
    22    91    92    2
    23    99    98    1
    24    56    57    1
    25    88    94   am
    26    88    89    2
    27   100    98    1
    28    94    95    1
    29    98    95    1
    30    57    60    1
    31    57    58    1
    32    95    96    1
    33    60    61    1
    34    58    59    2
    35    97    96    2
    36    96   101   am
    37    61    62    1
    38    62    63    1
    39     1     2    1
    40   101   102    1
    41     5     2    1
    42     5     6    1
    43    63    64    1
    44    43    42    2
    45   108   106    1
    46     8     7    2
    47     2     3    1
    48   106   105    1
    49   102   105    1
    50   102   103    1
    51     6     7    1
    52    42    41    1
    53    65    66    1
    54     7     9   am
    55     4     3    2
    56     3    10   am
    57   105   107    1
    58    47    45   ar
    59   103   104    2
    60    44    45    1
    61    44    41    1
    62    45    46   ar
    63    41    40    1
    64    66    67    1
    65    66    69    1
    66    67    68    2
    67    10    11    1
    68    73    71   ar
    69    73    75   ar
    70    71    70   ar
    71    76    75    1
    72    75    74   ar
    73    70    69    1
    74    70    72   ar
    75    74    72   ar
    76    11    12    1
    77    11    14    1
    78    15    14    1
    79    15    16    1
    80    13    12    2
    81    12    19   am
    82    18    16   ar
    83    16    17   ar
    84    19    20    1
    85    36    35    2
    86    23    24    1
    87    23    20    1
    88    35    34    1
    89    20    21    1
    90    34    37    1
    91    34    33    1
    92    37    39    1
    93    37    38    1
    94    21    22    2
    95    32    30   ar
    96    29    30    1
    97    29    26    1
    98    30    31   ar
    99    28    27    2
   100    27    26    1
   101    26    25    1
