@<TRIPOS>MOLECULE
tmp/6myaE00.pdb
 97 92 0 0 0
SMALL
GASTEIGER

@<TRIPOS>ATOM
      1  N        -12.2080  -19.1940  -60.3210 N.3    92  TYR92      -0.1241
      2  CA       -11.4740  -17.9910  -59.9210 C.3    92  TYR92       0.1605
      3  C        -10.3110  -18.3960  -59.0260 C.2    92  TYR92       0.2264
      4  O        -10.5350  -18.9950  -57.9670 O.2    92  TYR92      -0.2867
      5  CB       -12.3730  -16.9820  -59.2130 C.3    92  TYR92       0.0534
      6  CG       -11.8240  -15.5510  -59.1890 C.ar   92  TYR92      -0.0201
      7  CD1      -10.7290  -15.2090  -58.3910 C.ar   92  TYR92      -0.0009
      8  CD2      -12.4300  -14.5420  -59.9270 C.ar   92  TYR92      -0.0009
      9  CE1      -10.2510  -13.9080  -58.3610 C.ar   92  TYR92       0.0417
     10  CE2      -11.9570  -13.2360  -59.9030 C.ar   92  TYR92       0.0417
     11  CZ       -10.8630  -12.9310  -59.1240 C.ar   92  TYR92       0.1957
     12  OH       -10.3930  -11.6390  -59.0930 O.3    92  TYR92      -0.2866
     13  N        -23.4370   -6.9700  -60.1650 N.3   131  LYS131     -0.1231
     14  CA       -22.2240   -6.8120  -60.9580 C.3   131  LYS131      0.1693
     15  C        -21.2140   -7.9200  -60.7290 C.2   131  LYS131      0.2593
     16  O        -20.1090   -7.8310  -61.2660 O.2   131  LYS131     -0.2718
     17  CB       -21.5330   -5.4670  -60.6730 C.3   131  LYS131      0.0285
     18  CG       -22.1890   -4.2630  -61.3240 C.3   131  LYS131      0.0035
     19  CD       -21.3700   -3.0050  -61.1080 C.3   131  LYS131      0.0206
     20  CE       -22.2500   -1.8050  -60.8380 C.3   131  LYS131      0.1093
     21  NZ       -21.5340   -0.7100  -60.1170 N.3   131  LYS131     -0.1314
     22  N        -21.5290   -8.9330  -59.9220 N.am  132  GLY132     -0.1942
     23  CA       -20.5090   -9.8890  -59.5320 C.3   132  GLY132      0.2014
     24  C        -20.2740  -11.0350  -60.4980 C.2   132  GLY132      0.2639
     25  O        -20.4090  -12.2140  -60.1490 O.2   132  GLY132     -0.2714
     26  N        -19.8700  -10.7010  -61.7160 N.am  133  VAL133     -0.1963
     27  CA       -19.4930  -11.7010  -62.7040 C.3   133  VAL133      0.1727
     28  C        -18.0630  -11.4270  -63.1500 C.2   133  VAL133      0.2617
     29  O        -17.5110  -10.3410  -62.9430 O.2   133  VAL133     -0.2715
     30  CB       -20.4430  -11.7320  -63.9130 C.3   133  VAL133      0.0290
     31  CG1      -21.8410  -12.1050  -63.4590 C.3   133  VAL133      0.0023
     32  CG2      -20.4550  -10.3730  -64.5950 C.3   133  VAL133      0.0023
     33  N        -17.4510  -12.4440  -63.7430 N.am  134  THR134     -0.1937
     34  CA       -16.0390  -12.3660  -64.0710 C.3   134  THR134      0.2028
     35  C        -15.7770  -13.3150  -65.2250 C.2   134  THR134      0.2642
     36  O        -16.4460  -14.3390  -65.3540 O.2   134  THR134     -0.2714
     37  CB       -15.1620  -12.7440  -62.8730 C.3   134  THR134      0.1808
     38  OG1      -13.7930  -12.7610  -63.2850 O.3   134  THR134     -0.2208
     39  CG2      -15.5230  -14.1510  -62.3650 C.3   134  THR134      0.0379
     40  N        -14.8070  -12.9520  -66.0710 N.am  135  ALA135     -0.1977
     41  CA       -14.3800  -13.8240  -67.1640 C.3   135  ALA135      0.1597
     42  C        -13.6350  -15.0650  -66.6790 C.2   135  ALA135      0.2287
     43  O        -13.5700  -16.0530  -67.4170 O.2   135  ALA135     -0.2864
     44  CB       -13.5180  -13.0410  -68.1550 C.3   135  ALA135      0.0319
     45  N        -19.2970  -13.2770  -69.0460 N.3   143  SER143     -0.1217
     46  CA       -18.7950  -13.2880  -67.6780 C.3   143  SER143      0.1889
     47  C        -19.8950  -13.7740  -66.7320 C.2   143  SER143      0.2288
     48  O        -21.0500  -13.3510  -66.8390 O.2   143  SER143     -0.2866
     49  CB       -18.3060  -11.8880  -67.2890 C.3   143  SER143      0.2089
     50  OG       -17.1880  -11.4900  -68.0790 O.3   143  SER143     -0.2183
     51  N        -21.2460  -12.5460  -55.3570 N.3   151  TRP151     -0.1241
     52  CA       -20.2190  -11.5070  -55.2770 C.3   151  TRP151      0.1605
     53  C        -20.9030  -10.1650  -55.0340 C.2   151  TRP151      0.2264
     54  O        -21.3560   -9.4950  -55.9680 O.2   151  TRP151     -0.2867
     55  CB       -19.3800  -11.4980  -56.5520 C.3   151  TRP151      0.0550
     56  CG       -18.1170  -10.7180  -56.5080 C.ar  151  TRP151      0.0003
     57  CD1      -17.7630   -9.7290  -55.6260 C.ar  151  TRP151      0.0946
     58  CD2      -17.0010  -10.8930  -57.3850 C.ar  151  TRP151      0.0152
     59  NE1      -16.4930   -9.2790  -55.9120 N.ar  151  TRP151     -0.2442
     60  CE2      -16.0040   -9.9760  -56.9870 C.ar  151  TRP151      0.0810
     61  CE3      -16.7500  -11.7380  -58.4750 C.ar  151  TRP151      0.0012
     62  CZ2      -14.7640   -9.8850  -57.6400 C.ar  151  TRP151      0.0191
     63  CZ3      -15.5050  -11.6450  -59.1300 C.ar  151  TRP151      0.0001
     64  CH2      -14.5370  -10.7270  -58.7060 C.ar  151  TRP151      0.0015
     65  N        -21.1570   -6.2340  -54.1470 N.3   153  THR153     -0.1218
     66  CA       -20.3610   -5.0390  -54.4010 C.3   153  THR153      0.1862
     67  C        -21.1080   -3.8000  -53.9000 C.2   153  THR153      0.2287
     68  O        -22.2390   -3.8770  -53.4130 O.2   153  THR153     -0.2866
     69  CB       -20.0210   -4.8870  -55.8860 C.3   153  THR153      0.1770
     70  OG1      -21.2300   -4.8300  -56.6470 O.3   153  THR153     -0.2211
     71  CG2      -19.2000   -6.0670  -56.3580 C.3   153  THR153      0.0375
     72  N         -8.7890   -0.8640  -57.4270 N.3   188  GLU188     -0.1245
     73  CA        -9.7930   -1.8950  -57.6410 C.3   188  GLU188      0.1567
     74  C        -10.5890   -2.1530  -56.3700 C.2   188  GLU188      0.2260
     75  O        -11.8150   -2.3200  -56.4200 O.2   188  GLU188     -0.2867
     76  CB        -9.1360   -3.1840  -58.1200 C.3   188  GLU188      0.0388
     77  CG       -10.1310   -4.2570  -58.5680 C.3   188  GLU188      0.1160
     78  CD        -9.4810   -5.6320  -58.7150 C.2   188  GLU188      0.3649
     79  OE1      -10.2210   -6.6440  -58.7460 O.co2 188  GLU188     -0.2457
     80  OE2       -8.2300   -5.7000  -58.7880 O.co2 188  GLU188     -0.2457
     81  N        -14.6060   -1.6220  -56.2880 N.3   192  LEU192     -0.1245
     82  CA       -15.5170   -2.7070  -55.9560 C.3   192  LEU192      0.1561
     83  C        -16.2870   -2.4690  -54.6660 C.2   192  LEU192      0.2260
     84  O        -17.4870   -2.7460  -54.6070 O.2   192  LEU192     -0.2867
     85  CB       -14.7290   -4.0170  -55.8380 C.3   192  LEU192      0.0270
     86  CG       -14.2000   -4.5800  -57.1510 C.3   192  LEU192      0.0019
     87  CD1      -13.3430   -5.8090  -56.8800 C.3   192  LEU192      0.0001
     88  CD2      -15.3640   -4.9360  -58.0490 C.3   192  LEU192      0.0001
     89  N         -5.8500  -13.9990  -64.6190 N.3   224  GLN224     -0.1245
     90  CA        -6.4520  -13.2780  -63.4910 C.3   224  GLN224      0.1566
     91  C         -5.4110  -13.0180  -62.4130 C.2   224  GLN224      0.2260
     92  O         -4.9250  -13.9810  -61.7890 O.2   224  GLN224     -0.2867
     93  CB        -7.6240  -14.0810  -62.9210 C.3   224  GLN224      0.0367
     94  CG        -8.3100  -13.4870  -61.7000 C.3   224  GLN224      0.0905
     95  CD        -8.8900  -12.1150  -61.9750 C.2   224  GLN224      0.2608
     96  OE1       -8.3460  -11.1100  -61.5220 O.2   224  GLN224     -0.2717
     97  NE2      -10.0030  -12.0650  -62.7120 N.am  224  GLN224     -0.0878
@<TRIPOS>BOND
     1    45    46    1
     2    44    41    1
     3    50    49    1
     4    46    49    1
     5    46    47    1
     6    43    42    2
     7    41    42    1
     8    41    40    1
     9    48    47    2
    10    40    35   am
    11    36    35    2
    12    35    34    1
    13    89    90    1
    14    32    30    1
    15    34    33    1
    16    34    37    1
    17    30    31    1
    18    30    27    1
    19    33    28   am
    20    90    93    1
    21    90    91    1
    22    38    37    1
    23    28    29    2
    24    28    27    1
    25    93    94    1
    26    37    39    1
    27    97    95   am
    28    27    26    1
    29    91    92    2
    30    95    94    1
    31    95    96    2
    32    26    24   am
    33    18    19    1
    34    18    17    1
    35    16    15    2
    36    19    20    1
    37    14    15    1
    38    14    17    1
    39    14    13    1
    40    20    21    1
    41    15    22   am
    42    24    25    2
    43    24    23    1
    44     1     2    1
    45     8    10   ar
    46     8     6   ar
    47    22    23    1
    48     2     5    1
    49     2     3    1
    50    10    11   ar
    51     5     6    1
    52     6     7   ar
    53    63    64   ar
    54    63    61   ar
    55    11    12    1
    56    11     9   ar
    57     3     4    2
    58    80    78   ar
    59    79    78   ar
    60    78    77    1
    61    64    62   ar
    62    77    76    1
    63    61    58   ar
    64     7     9   ar
    65    76    73    1
    66    88    86    1
    67    73    72    1
    68    73    74    1
    69    62    60   ar
    70    58    60   ar
    71    58    56   ar
    72    86    87    1
    73    86    85    1
    74    60    59   ar
    75    70    69    1
    76    55    56    1
    77    55    52    1
    78    56    57   ar
    79    75    74    2
    80    71    69    1
    81    81    82    1
    82    54    53    2
    83    82    85    1
    84    82    83    1
    85    59    57   ar
    86    69    66    1
    87    51    52    1
    88    52    53    1
    89    83    84    2
    90    66    65    1
    91    66    67    1
    92    67    68    2
