@<TRIPOS>MOLECULE
tmp/6myjD00.pdb
 96 96 0 0 0
SMALL
GASTEIGER

@<TRIPOS>ATOM
      1  N        -15.6650   33.5750   21.2440 N.3    27  TRP27      -0.1241
      2  CA       -14.3530   33.2820   20.6860 C.3    27  TRP27       0.1605
      3  C        -14.5620   32.9230   19.2290 C.2    27  TRP27       0.2264
      4  O        -15.5100   32.2270   18.8860 O.2    27  TRP27      -0.2867
      5  CB       -13.6570   32.1140   21.4070 C.3    27  TRP27       0.0550
      6  CG       -13.1820   32.4610   22.7510 C.ar   27  TRP27       0.0003
      7  CD1      -13.8060   32.2110   23.9320 C.ar   27  TRP27       0.0946
      8  CD2      -11.9660   33.1500   23.0740 C.ar   27  TRP27       0.0152
      9  NE1      -13.0550   32.7080   24.9760 N.ar   27  TRP27      -0.2442
     10  CE2      -11.9180   33.2820   24.4730 C.ar   27  TRP27       0.0810
     11  CE3      -10.9150   33.6710   22.3100 C.ar   27  TRP27       0.0012
     12  CZ2      -10.8610   33.9120   25.1290 C.ar   27  TRP27       0.0191
     13  CZ3       -9.8630   34.2920   22.9620 C.ar   27  TRP27       0.0001
     14  CH2       -9.8460   34.4050   24.3580 C.ar   27  TRP27       0.0015
     15  N         -4.1490   29.5040   16.8660 N.3    67  ALA67      -0.1231
     16  CA        -4.4790   28.4160   17.7800 C.3    67  ALA67       0.1694
     17  C         -5.6980   28.7620   18.6210 C.2    67  ALA67       0.2592
     18  O         -5.7230   28.5770   19.8410 O.2    67  ALA67      -0.2718
     19  CB        -3.2790   28.0740   18.6590 C.3    67  ALA67       0.0304
     20  N         -6.7130   29.2850   17.9570 N.am   68  GLU68      -0.1966
     21  CA        -7.8960   29.7570   18.6430 C.3    68  GLU68       0.1733
     22  C         -9.1050   28.9520   18.2080 C.2    68  GLU68       0.2617
     23  O         -9.2900   28.6360   17.0320 O.2    68  GLU68      -0.2715
     24  CB        -8.1220   31.2450   18.3930 C.3    68  GLU68       0.0429
     25  CG        -8.4900   31.9950   19.6740 C.3    68  GLU68       0.1163
     26  CD        -8.3760   33.5040   19.5430 C.2    68  GLU68       0.3649
     27  OE1       -9.2840   34.1030   18.9330 O.co2  68  GLU68      -0.2457
     28  OE2       -7.3820   34.0820   20.0440 O.co2  68  GLU68      -0.2457
     29  N         -9.9460   28.6470   19.1680 N.am   69  GLY69      -0.1940
     30  CA       -11.1730   27.9250   18.9140 C.3    69  GLY69       0.2014
     31  C        -12.3170   28.8820   18.7090 C.2    69  GLY69       0.2640
     32  O        -12.1400   30.0900   18.5580 O.2    69  GLY69      -0.2714
     33  N        -13.5210   28.3270   18.6860 N.am   70  THR70      -0.1936
     34  CA       -14.7290   29.1300   18.6320 C.3    70  THR70       0.2028
     35  C        -15.7020   28.6990   19.7220 C.2    70  THR70       0.2642
     36  O        -15.8200   27.5130   20.0390 O.2    70  THR70      -0.2714
     37  CB       -15.3810   29.1260   17.2510 C.3    70  THR70       0.1808
     38  OG1      -16.5590   29.9500   17.2810 O.3    70  THR70      -0.2208
     39  CG2      -15.7580   27.7240   16.7490 C.3    70  THR70       0.0379
     40  N        -16.3660   29.6840   20.3150 N.am   71  THR71      -0.1950
     41  CA       -17.3000   29.4860   21.4090 C.3    71  THR71       0.1897
     42  C        -18.4000   30.5040   21.2150 C.2    71  THR71       0.2313
     43  O        -18.1250   31.6330   20.7950 O.2    71  THR71      -0.2863
     44  CB       -16.6140   29.8160   22.7270 C.3    71  THR71       0.1794
     45  OG1      -15.3790   29.0910   22.8290 O.3    71  THR71      -0.2208
     46  CG2      -17.5060   29.5230   23.9320 C.3    71  THR71       0.0378
     47  N        -25.3410   26.6970   23.5020 N.3    90  TYR90      -0.1241
     48  CA       -23.9390   26.9980   23.7740 C.3    90  TYR90       0.1605
     49  C        -23.0690   26.0480   22.9780 C.2    90  TYR90       0.2264
     50  O        -23.2630   24.8280   23.0460 O.2    90  TYR90      -0.2867
     51  CB       -23.6400   26.8350   25.2690 C.3    90  TYR90       0.0534
     52  CG       -22.1780   26.9150   25.6340 C.ar   90  TYR90      -0.0201
     53  CD1      -21.5230   28.1180   25.6910 C.ar   90  TYR90      -0.0009
     54  CD2      -21.4620   25.7760   25.9360 C.ar   90  TYR90      -0.0009
     55  CE1      -20.1730   28.1890   26.0390 C.ar   90  TYR90       0.0417
     56  CE2      -20.1150   25.8420   26.2780 C.ar   90  TYR90       0.0417
     57  CZ       -19.5020   27.0510   26.3290 C.ar   90  TYR90       0.1957
     58  OH       -18.1660   27.1310   26.6790 O.3    90  TYR90      -0.2866
     59  N        -18.8380   25.1430   22.0600 N.3    92  ASP92      -0.1239
     60  CA       -17.4270   25.3360   22.3650 C.3    92  ASP92       0.1674
     61  C        -16.6340   24.3120   21.5780 C.2    92  ASP92       0.2266
     62  O        -16.8140   23.1010   21.7530 O.2    92  ASP92      -0.2867
     63  CB       -17.1430   25.2090   23.8660 C.3    92  ASP92       0.1410
     64  CG       -15.7370   25.5600   24.2190 C.2    92  ASP92       0.3668
     65  OD1      -15.1750   26.4870   23.6280 O.co2  92  ASP92      -0.2456
     66  OD2      -15.1630   24.8880   25.1050 O.co2  92  ASP92      -0.2456
     67  N        -12.8100   24.0780   21.2390 N.3    94  PRO94      -0.2102
     68  CA       -11.4810   24.5940   21.5730 C.3    94  PRO94       0.1504
     69  C        -10.4120   24.0030   20.6650 C.2    94  PRO94       0.2575
     70  O        -10.5640   22.9240   20.0940 O.2    94  PRO94      -0.2718
     71  CB       -11.2910   24.1560   23.0260 C.3    94  PRO94       0.0282
     72  CG       -12.2550   23.0270   23.2210 C.3    94  PRO94       0.0208
     73  CD       -13.3680   23.2080   22.2790 C.3    94  PRO94       0.0893
     74  N         -9.3260   24.7540   20.5260 N.am   95  TRP95      -0.1977
     75  CA        -8.2180   24.3550   19.6730 C.3    95  TRP95       0.1640
     76  C         -7.3490   23.3330   20.3870 C.2    95  TRP95       0.2290
     77  O         -7.0800   23.4570   21.5830 O.2    95  TRP95      -0.2864
     78  CB        -7.3940   25.5920   19.3130 C.3    95  TRP95       0.0576
     79  CG        -6.4140   25.3850   18.1770 C.ar   95  TRP95       0.0006
     80  CD1       -6.6600   25.5900   16.8530 C.ar   95  TRP95       0.0946
     81  CD2       -5.0550   24.9360   18.2660 C.ar   95  TRP95       0.0152
     82  NE1       -5.5450   25.3010   16.1150 N.ar   95  TRP95      -0.2442
     83  CE2       -4.5480   24.8970   16.9560 C.ar   95  TRP95       0.0810
     84  CE3       -4.2170   24.5730   19.3210 C.ar   95  TRP95       0.0012
     85  CZ2       -3.2530   24.5030   16.6640 C.ar   95  TRP95       0.0191
     86  CZ3       -2.9050   24.1820   19.0290 C.ar   95  TRP95       0.0001
     87  CH2       -2.4490   24.1510   17.7110 C.ar   95  TRP95       0.0015
     88  N         -8.6040   19.2230   22.8380 N.3    98  LYS98      -0.1245
     89  CA        -9.5740   19.4450   23.8960 C.3    98  LYS98       0.1561
     90  C        -10.9710   19.0330   23.4390 C.2    98  LYS98       0.2260
     91  O        -11.3800   19.3140   22.3080 O.2    98  LYS98      -0.2867
     92  CB        -9.5540   20.9190   24.3030 C.3    98  LYS98       0.0271
     93  CG        -8.2230   21.3620   24.9070 C.3    98  LYS98       0.0035
     94  CD        -7.9860   22.8630   24.7710 C.3    98  LYS98       0.0206
     95  CE        -8.9410   23.6790   25.6310 C.3    98  LYS98       0.1093
     96  NZ        -8.7270   25.1500   25.4650 N.3    98  LYS98      -0.1314
@<TRIPOS>BOND
     1    82    80   ar
     2    82    83   ar
     3    85    83   ar
     4    85    87   ar
     5    39    37    1
     6    80    79   ar
     7    15    16    1
     8    83    81   ar
     9    23    22    2
    10    37    38    1
    11    37    34    1
    12    87    86   ar
    13    16    17    1
    14    16    19    1
    15    20    17   am
    16    20    21    1
    17    79    81   ar
    18    79    78    1
    19    22    21    1
    20    22    29   am
    21    81    84   ar
    22    24    21    1
    23    24    25    1
    24    32    31    2
    25    17    18    2
    26    34    33    1
    27    34    35    1
    28    33    31   am
    29    31    30    1
    30     4     3    2
    31    30    29    1
    32    27    26   ar
    33    86    84   ar
    34     3     2    1
    35    78    75    1
    36    26    25    1
    37    26    28   ar
    38    75    76    1
    39    75    74    1
    40    35    36    2
    41    35    40   am
    42    70    69    2
    43    40    41    1
    44    76    77    2
    45    74    69   am
    46    69    68    1
    47     2     1    1
    48     2     5    1
    49    43    42    2
    50    42    41    1
    51    67    68    1
    52    67    73    1
    53     5     6    1
    54    41    44    1
    55    68    71    1
    56    61    62    2
    57    61    60    1
    58    59    60    1
    59    73    72    1
    60    91    90    2
    61    11    13   ar
    62    11     8   ar
    63    60    63    1
    64    44    45    1
    65    44    46    1
    66     6     8   ar
    67     6     7   ar
    68    88    89    1
    69    13    14   ar
    70    49    50    2
    71    49    48    1
    72    71    72    1
    73     8    10   ar
    74    90    89    1
    75    47    48    1
    76    65    64   ar
    77    48    51    1
    78    63    64    1
    79    89    92    1
    80     7     9   ar
    81    64    66   ar
    82    92    93    1
    83    14    12   ar
    84    10     9   ar
    85    10    12   ar
    86    94    93    1
    87    94    95    1
    88    51    52    1
    89    96    95    1
    90    52    53   ar
    91    52    54   ar
    92    53    55   ar
    93    54    56   ar
    94    55    57   ar
    95    56    57   ar
    96    57    58    1
