@<TRIPOS>MOLECULE
tmp/6mzbA00.pdb
 153 144 0 0 0
SMALL
GASTEIGER

@<TRIPOS>ATOM
      1  N        147.0790  218.8380  171.2260 N.3    81  ARG81      -0.1245
      2  CA       148.4550  218.3680  171.2680 C.3    81  ARG81       0.1563
      3  C        148.5370  217.1280  172.1420 C.2    81  ARG81       0.2260
      4  O        147.8980  217.0560  173.1950 O.2    81  ARG81      -0.2867
      5  CB       149.4060  219.4390  171.8110 C.3    81  ARG81       0.0307
      6  CG       149.5510  220.6620  170.9310 C.3    81  ARG81       0.0489
      7  CD       150.5730  221.6220  171.4970 C.3    81  ARG81       0.2205
      8  NE       150.5080  222.9280  170.8490 N.pl3  81  ARG81      -0.0865
      9  CZ       150.9940  223.2040  169.6430 C.cat  81  ARG81       0.5346
     10  NH1      151.5960  222.2720  168.9140 N.pl3  81  ARG81       0.1354
     11  NH2      150.8750  224.4300  169.1570 N.pl3  81  ARG81       0.1354
     12  N        151.7070  214.5480  173.7470 N.3    83  SER83      -0.1217
     13  CA       153.1280  214.6570  174.0680 C.3    83  SER83       0.1889
     14  C        153.6860  213.3550  174.6260 C.2    83  SER83       0.2288
     15  O        152.9820  212.3410  174.6760 O.2    83  SER83      -0.2866
     16  CB       153.3480  215.7970  175.0600 C.3    83  SER83       0.2089
     17  OG       154.7130  215.9090  175.4140 O.3    83  SER83      -0.2183
     18  N        157.0850  211.7220  177.3710 N.3    85  PHE85      -0.1241
     19  CA       158.1940  211.9300  178.2980 C.3    85  PHE85       0.1605
     20  C        158.8070  210.5770  178.6210 C.2    85  PHE85       0.2264
     21  O        158.1690  209.7530  179.2790 O.2    85  PHE85      -0.2867
     22  CB       157.7250  212.6110  179.5900 C.3    85  PHE85       0.0534
     23  CG       157.1060  213.9660  179.3870 C.ar   85  PHE85      -0.0203
     24  CD1      155.7650  214.0900  179.0770 C.ar   85  PHE85      -0.0042
     25  CD2      157.8570  215.1160  179.5350 C.ar   85  PHE85      -0.0042
     26  CE1      155.1930  215.3290  178.8980 C.ar   85  PHE85      -0.0003
     27  CE2      157.2860  216.3590  179.3610 C.ar   85  PHE85      -0.0003
     28  CZ       155.9540  216.4650  179.0400 C.ar   85  PHE85      -0.0000
     29  N        157.3750  215.8670  171.2670 N.3   101  PHE101     -0.1227
     30  CA       156.6630  216.9990  171.8390 C.3   101  PHE101      0.1736
     31  C        155.8640  217.7130  170.7590 C.2   101  PHE101      0.2596
     32  O        156.3790  217.9800  169.6710 O.2   101  PHE101     -0.2718
     33  CB       157.6520  217.9700  172.4900 C.3   101  PHE101      0.0547
     34  CG       157.0240  218.9440  173.4410 C.ar  101  PHE101     -0.0202
     35  CD1      156.8880  218.6340  174.7820 C.ar  101  PHE101     -0.0042
     36  CD2      156.5870  220.1770  172.9970 C.ar  101  PHE101     -0.0042
     37  CE1      156.3200  219.5330  175.6590 C.ar  101  PHE101     -0.0003
     38  CE2      156.0170  221.0800  173.8710 C.ar  101  PHE101     -0.0003
     39  CZ       155.8860  220.7570  175.2040 C.ar  101  PHE101     -0.0000
     40  N        154.6100  218.0280  171.0790 N.am  102  SER102     -0.1952
     41  CA       153.7370  218.8490  170.2390 C.3   102  SER102      0.1924
     42  C        153.5610  218.2360  168.8470 C.2   102  SER102      0.2314
     43  O        153.9740  218.7920  167.8300 O.2   102  SER102     -0.2863
     44  CB       154.2720  220.2790  170.1400 C.3   102  SER102      0.2116
     45  OG       154.1240  220.9600  171.3730 O.3   102  SER102     -0.2180
     46  N        162.2010  216.7370  183.8570 N.3   122  PHE122     -0.1241
     47  CA       161.3470  216.9140  185.0270 C.3   122  PHE122      0.1605
     48  C        161.6750  215.8640  186.0880 C.2   122  PHE122      0.2264
     49  O        161.6770  214.6660  185.7790 O.2   122  PHE122     -0.2867
     50  CB       159.8710  216.8060  184.6440 C.3   122  PHE122      0.0534
     51  CG       159.3710  217.9370  183.7910 C.ar  122  PHE122     -0.0203
     52  CD1      159.3450  219.2340  184.2720 C.ar  122  PHE122     -0.0042
     53  CD2      158.9050  217.6980  182.5120 C.ar  122  PHE122     -0.0042
     54  CE1      158.8800  220.2670  183.4890 C.ar  122  PHE122     -0.0003
     55  CE2      158.4370  218.7270  181.7280 C.ar  122  PHE122     -0.0003
     56  CZ       158.4250  220.0120  182.2160 C.ar  122  PHE122     -0.0000
     57  N        155.3580  219.0260  188.8720 N.3   127  GLY127     -0.1210
     58  CA       154.4910  218.7520  187.7480 C.3   127  GLY127      0.1956
     59  C        153.6520  217.5040  187.9340 C.2   127  GLY127      0.2612
     60  O        153.8590  216.6880  188.8330 O.2   127  GLY127     -0.2717
     61  N        152.6710  217.3620  187.0410 N.am  128  VAL128     -0.1965
     62  CA       151.8180  216.1800  187.0440 C.3   128  VAL128      0.1727
     63  C        152.5480  214.9690  186.4850 C.2   128  VAL128      0.2616
     64  O        152.1780  213.8320  186.8010 O.2   128  VAL128     -0.2715
     65  CB       150.5290  216.4350  186.2430 C.3   128  VAL128      0.0290
     66  CG1      149.5640  215.2590  186.3790 C.3   128  VAL128      0.0023
     67  CG2      149.8660  217.7300  186.6990 C.3   128  VAL128      0.0023
     68  N        153.5790  215.1810  185.6690 N.am  129  VAL129     -0.1977
     69  CA       154.3510  214.0660  185.1350 C.3   129  VAL129      0.1596
     70  C        155.0460  213.3200  186.2660 C.2   129  VAL129      0.2287
     71  O        155.0270  212.0830  186.3250 O.2   129  VAL129     -0.2864
     72  CB       155.3560  214.5780  184.0890 C.3   129  VAL129      0.0276
     73  CG1      156.3550  213.5020  183.7230 C.3   129  VAL129      0.0022
     74  CG2      154.6230  215.0620  182.8570 C.3   129  VAL129      0.0022
     75  N        151.6370  221.3440  189.1240 N.3   150  PHE150     -0.1227
     76  CA       151.6570  221.7740  187.7340 C.3   150  PHE150      0.1736
     77  C        152.9580  222.5040  187.4520 C.2   150  PHE150      0.2596
     78  O        153.5920  223.0460  188.3620 O.2   150  PHE150     -0.2718
     79  CB       150.4660  222.6820  187.4010 C.3   150  PHE150      0.0547
     80  CG       150.1840  222.7860  185.9330 C.ar  150  PHE150     -0.0202
     81  CD1      149.6680  221.7060  185.2390 C.ar  150  PHE150     -0.0042
     82  CD2      150.4450  223.9550  185.2450 C.ar  150  PHE150     -0.0042
     83  CE1      149.4160  221.7920  183.8900 C.ar  150  PHE150     -0.0003
     84  CE2      150.1920  224.0480  183.8940 C.ar  150  PHE150     -0.0003
     85  CZ       149.6770  222.9640  183.2160 C.ar  150  PHE150     -0.0000
     86  N        153.3410  222.5090  186.1780 N.am  151  SER151     -0.1952
     87  CA       154.5240  223.2080  185.7000 C.3   151  SER151      0.1924
     88  C        154.1010  224.4470  184.9260 C.2   151  SER151      0.2314
     89  O        153.3840  224.3440  183.9260 O.2   151  SER151     -0.2863
     90  CB       155.3680  222.3020  184.8060 C.3   151  SER151      0.2116
     91  OG       156.2230  223.0700  183.9800 O.3   151  SER151     -0.2180
     92  N        157.2980  225.3860  181.8640 N.3   154  ALA154     -0.1231
     93  CA       157.2340  224.6280  180.6190 C.3   154  ALA154      0.1694
     94  C        156.2510  225.2520  179.6420 C.2   154  ALA154      0.2592
     95  O        156.4370  225.1530  178.4240 O.2   154  ALA154     -0.2718
     96  CB       156.8420  223.1800  180.9020 C.3   154  ALA154      0.0304
     97  N        155.2040  225.8930  180.1550 N.am  155  ASP155     -0.1974
     98  CA       154.2350  226.5890  179.3220 C.3   155  ASP155      0.1709
     99  C        154.6880  228.0030  178.9780 C.2   155  ASP155      0.2293
    100  O        154.4970  228.4550  177.8430 O.2   155  ASP155     -0.2864
    101  CB       152.8810  226.6340  180.0320 C.3   155  ASP155      0.1436
    102  CG       151.7420  226.9230  179.0860 C.2   155  ASP155      0.3671
    103  OD1      152.0240  227.3410  177.9480 O.co2 155  ASP155     -0.2456
    104  OD2      150.5710  226.7340  179.4760 O.co2 155  ASP155     -0.2456
    105  N        156.9430  228.4740  175.9430 N.3   158  THR158     -0.1218
    106  CA       156.3820  228.3190  174.6060 C.3   158  THR158      0.1862
    107  C        155.2000  229.2350  174.3250 C.2   158  THR158      0.2287
    108  O        154.7590  229.2930  173.1720 O.2   158  THR158     -0.2866
    109  CB       155.9310  226.8700  174.3770 C.3   158  THR158      0.1770
    110  OG1      154.6750  226.6520  175.0310 O.3   158  THR158     -0.2211
    111  CG2      156.9600  225.9000  174.9260 C.3   158  THR158      0.0375
    112  N        151.9560  229.1020  175.4140 N.3   160  TYR160     -0.1241
    113  CA       150.7250  228.3470  175.2380 C.3   160  TYR160      0.1605
    114  C        149.8520  228.5400  176.4750 C.2   160  TYR160      0.2264
    115  O        150.1880  229.3040  177.3850 O.2   160  TYR160     -0.2867
    116  CB       151.0470  226.8670  174.9910 C.3   160  TYR160      0.0534
    117  CG       150.0110  226.0910  174.2040 C.ar  160  TYR160     -0.0201
    118  CD1      149.6820  226.4390  172.9000 C.ar  160  TYR160     -0.0009
    119  CD2      149.3710  224.9970  174.7680 C.ar  160  TYR160     -0.0009
    120  CE1      148.7380  225.7240  172.1890 C.ar  160  TYR160      0.0417
    121  CE2      148.4290  224.2780  174.0640 C.ar  160  TYR160      0.0417
    122  CZ       148.1160  224.6450  172.7760 C.ar  160  TYR160      0.1957
    123  OH       147.1760  223.9290  172.0740 O.3   160  TYR160     -0.2866
    124  N        147.2990  225.9250  179.1170 N.3   162  THR162     -0.1218
    125  CA       147.0100  224.5340  179.4640 C.3   162  THR162      0.1862
    126  C        145.8630  224.5220  180.4700 C.2   162  THR162      0.2287
    127  O        146.0850  224.6870  181.6740 O.2   162  THR162     -0.2866
    128  CB       148.2510  223.8520  180.0280 C.3   162  THR162      0.1770
    129  OG1      149.3610  224.0700  179.1490 O.3   162  THR162     -0.2211
    130  CG2      148.0250  222.3630  180.1820 C.3   162  THR162      0.0375
    131  N        144.2330  218.6260  180.7520 N.3   165  ILE165     -0.1245
    132  CA       145.3280  217.6940  180.5150 C.3   165  ILE165      0.1561
    133  C        144.8870  216.2960  180.9230 C.2   165  ILE165      0.2260
    134  O        144.1200  216.1160  181.8740 O.2   165  ILE165     -0.2867
    135  CB       146.6110  218.1110  181.2770 C.3   165  ILE165      0.0252
    136  CG1      147.7430  217.1140  181.0270 C.3   165  ILE165      0.0019
    137  CG2      146.3550  218.2210  182.7750 C.3   165  ILE165      0.0019
    138  CD1      149.1050  217.6400  181.4010 C.3   165  ILE165      0.0001
    139  N        150.7090  211.8200  177.2790 N.3   181  MET181     -0.1245
    140  CA       149.6640  212.7160  177.7430 C.3   181  MET181      0.1570
    141  C        149.0680  213.4620  176.5610 C.2   181  MET181      0.2261
    142  O        149.6260  213.4830  175.4620 O.2   181  MET181     -0.2867
    143  CB       150.2080  213.7080  178.7720 C.3   181  MET181      0.0387
    144  CG       151.4750  214.4100  178.3250 C.3   181  MET181      0.0595
    145  SD       151.6700  216.0330  179.0730 S.3   181  MET181     -0.1393
    146  CE       152.1740  215.5510  180.7150 C.3   181  MET181      0.0692
    147  N        147.0210  217.3570  175.9540 N.3   183  VAL183     -0.1245
    148  CA       146.7450  218.6510  176.5650 C.3   183  VAL183      0.1561
    149  C        145.7940  219.4370  175.6760 C.2   183  VAL183      0.2260
    150  O        145.8100  219.3140  174.4470 O.2   183  VAL183     -0.2867
    151  CB       148.0400  219.4580  176.8150 C.3   183  VAL183      0.0252
    152  CG1      149.0090  218.6610  177.6650 C.3   183  VAL183      0.0019
    153  CG2      148.6910  219.8670  175.5070 C.3   183  VAL183      0.0019
@<TRIPOS>BOND
     1    43    42    2
     2    42    41    1
     3    10     9    1
     4    11     9    1
     5     9     8    2
     6    32    31    2
     7    44    41    1
     8    44    45    1
     9    41    40    1
    10    31    40   am
    11    31    30    1
    12     8     7    1
    13     6     7    1
    14     6     5    1
    15     1     2    1
    16    29    30    1
    17     2     5    1
    18     2     3    1
    19    30    33    1
    20   123   122    1
    21     3     4    2
    22   120   122   ar
    23   120   118   ar
    24    33    34    1
    25   122   121   ar
    26   118   117   ar
    27    36    34   ar
    28    36    38   ar
    29   108   107    2
    30    34    35   ar
    31    12    13    1
    32    38    39   ar
    33   121   119   ar
    34    13    14    1
    35    13    16    1
    36   117   119   ar
    37   117   116    1
    38   107   106    1
    39   109   106    1
    40   109   111    1
    41   109   110    1
    42   150   149    2
    43   106   105    1
    44    14    15    2
    45    35    37   ar
    46   116   113    1
    47    16    17    1
    48    39    37   ar
    49   113   112    1
    50   113   114    1
    51   142   141    2
    52   153   151    1
    53   149   148    1
    54   147   148    1
    55   114   115    2
    56   141   140    1
    57   148   151    1
    58   151   152    1
    59   139   140    1
    60    18    19    1
    61   140   143    1
    62   100    99    2
    63   103   102   ar
    64    19    20    1
    65    19    22    1
    66   144   143    1
    67   144   145    1
    68    95    94    2
    69    20    21    2
    70    26    28   ar
    71    26    24   ar
    72    99    98    1
    73    28    27   ar
    74   145   146    1
    75    24    23   ar
    76   102   104   ar
    77   102   101    1
    78   124   125    1
    79   129   128    1
    80    98   101    1
    81    98    97    1
    82    27    25   ar
    83    23    25   ar
    84    23    22    1
    85   125   128    1
    86   125   126    1
    87    94    97   am
    88    94    93    1
    89   128   130    1
    90   126   127    2
    91   132   131    1
    92   132   133    1
    93   132   135    1
    94    93    96    1
    95    93    92    1
    96   133   134    2
    97   136   135    1
    98   136   138    1
    99   135   137    1
   100    55    56   ar
   101    55    53   ar
   102    56    54   ar
   103    53    51   ar
   104    74    72    1
   105    85    83   ar
   106    85    84   ar
   107    54    52   ar
   108    73    72    1
   109    51    52   ar
   110    51    50    1
   111    46    47    1
   112    83    81   ar
   113    84    82   ar
   114    89    88    2
   115    91    90    1
   116    72    69    1
   117    50    47    1
   118    90    87    1
   119    88    87    1
   120    47    48    1
   121    69    68    1
   122    69    70    1
   123    81    80   ar
   124    82    80   ar
   125    68    63   am
   126    87    86    1
   127    49    48    2
   128    80    79    1
   129    86    77   am
   130    65    66    1
   131    65    67    1
   132    65    62    1
   133    70    71    2
   134    63    64    2
   135    63    62    1
   136    61    62    1
   137    61    59   am
   138    79    76    1
   139    77    76    1
   140    77    78    2
   141    76    75    1
   142    58    59    1
   143    58    57    1
   144    59    60    2
