@<TRIPOS>MOLECULE
tmp/6mzbB00.pdb
 175 168 0 0 0
SMALL
GASTEIGER

@<TRIPOS>ATOM
      1  N        145.8370  170.2800  159.4060 N.3    84  ARG84      -0.1231
      2  CA       146.6040  170.3230  160.6440 C.3    84  ARG84       0.1694
      3  C        147.6830  171.3900  160.5090 C.2    84  ARG84       0.2592
      4  O        147.8640  171.9900  159.4460 O.2    84  ARG84      -0.2718
      5  CB       147.2150  168.9540  160.9760 C.3    84  ARG84       0.0321
      6  CG       146.2220  167.8510  161.3570 C.3    84  ARG84       0.0489
      7  CD       145.5840  168.0830  162.7190 C.3    84  ARG84       0.2205
      8  NE       144.4780  167.1610  162.9720 N.pl3  84  ARG84      -0.0865
      9  CZ       144.6100  165.8910  163.3460 C.cat  84  ARG84       0.5346
     10  NH1      145.8080  165.3450  163.5200 N.pl3  84  ARG84       0.1354
     11  NH2      143.5270  165.1550  163.5470 N.pl3  84  ARG84       0.1354
     12  N        148.4060  171.6210  161.6030 N.am   85  MET85      -0.1965
     13  CA       149.4130  172.6710  161.6670 C.3    85  MET85       0.1736
     14  C        150.3480  172.3620  162.8280 C.2    85  MET85       0.2617
     15  O        149.9920  171.6200  163.7470 O.2    85  MET85      -0.2715
     16  CB       148.7610  174.0450  161.8360 C.3    85  MET85       0.0427
     17  CG       149.6230  175.2130  161.4340 C.3    85  MET85       0.0599
     18  SD       148.6430  176.7010  161.1760 S.3    85  MET85      -0.1393
     19  CE       149.8830  177.8010  160.5090 C.3    85  MET85       0.0692
     20  N        151.5490  172.9390  162.7790 N.am   86  SER86      -0.1950
     21  CA       152.5730  172.5940  163.7580 C.3    86  SER86       0.1924
     22  C        153.5760  173.7290  163.9160 C.2    86  SER86       0.2314
     23  O        153.8160  174.5020  162.9830 O.2    86  SER86      -0.2863
     24  CB       153.3040  171.3120  163.3570 C.3    86  SER86       0.2116
     25  OG       153.7330  171.3860  162.0120 O.3    86  SER86      -0.2180
     26  N        157.5370  174.3280  165.4990 N.3    88  PHE88      -0.1241
     27  CA       158.8110  173.8670  166.0240 C.3    88  PHE88       0.1605
     28  C        159.5720  175.0720  166.5580 C.2    88  PHE88       0.2264
     29  O        159.3800  176.1920  166.0880 O.2    88  PHE88      -0.2867
     30  CB       159.6560  173.1770  164.9400 C.3    88  PHE88       0.0534
     31  CG       159.1150  171.8420  164.4440 C.ar   88  PHE88      -0.0203
     32  CD1      157.8490  171.3750  164.7690 C.ar   88  PHE88      -0.0042
     33  CD2      159.9030  171.0540  163.6280 C.ar   88  PHE88      -0.0042
     34  CE1      157.3930  170.1660  164.2880 C.ar   88  PHE88      -0.0003
     35  CE2      159.4480  169.8440  163.1560 C.ar   88  PHE88      -0.0003
     36  CZ       158.1960  169.4010  163.4880 C.ar   88  PHE88      -0.0000
     37  N        151.6530  170.9870  168.3490 N.3   104  PHE104     -0.1227
     38  CA       151.4490  170.0190  167.2820 C.3   104  PHE104      0.1736
     39  C        149.9970  169.5680  167.2390 C.2   104  PHE104      0.2595
     40  O        149.3010  169.5520  168.2580 O.2   104  PHE104     -0.2718
     41  CB       152.3480  168.8000  167.4700 C.3   104  PHE104      0.0547
     42  CG       152.7480  168.1420  166.1850 C.ar  104  PHE104     -0.0202
     43  CD1      151.9700  167.1410  165.6360 C.ar  104  PHE104     -0.0042
     44  CD2      153.8980  168.5240  165.5230 C.ar  104  PHE104     -0.0042
     45  CE1      152.3330  166.5340  164.4550 C.ar  104  PHE104     -0.0003
     46  CE2      154.2650  167.9190  164.3400 C.ar  104  PHE104     -0.0003
     47  CZ       153.4820  166.9220  163.8080 C.ar  104  PHE104     -0.0000
     48  N        149.5630  169.1760  166.0410 N.am  105  ASN105     -0.1974
     49  CA       148.2120  168.6820  165.7800 C.3   105  ASN105      0.1688
     50  C        147.1530  169.6590  166.2900 C.2   105  ASN105      0.2292
     51  O        146.3330  169.3450  167.1520 O.2   105  ASN105     -0.2864
     52  CB       148.0130  167.2900  166.3880 C.3   105  ASN105      0.1181
     53  CG       148.6900  166.1970  165.5840 C.2   105  ASN105      0.2629
     54  OD1      149.1180  166.4120  164.4490 O.2   105  ASN105     -0.2716
     55  ND2      148.7800  165.0090  166.1670 N.am  105  ASN105     -0.0877
     56  N        164.5570  167.6730  165.7980 N.3   125  PHE125     -0.1241
     57  CA       164.9780  167.4450  164.4220 C.3   125  PHE125      0.1605
     58  C        166.3380  168.0920  164.2000 C.2   125  PHE125      0.2264
     59  O        166.5580  169.2050  164.6960 O.2   125  PHE125     -0.2867
     60  CB       163.9810  168.0130  163.4160 C.3   125  PHE125      0.0534
     61  CG       162.7740  167.1620  163.2340 C.ar  125  PHE125     -0.0203
     62  CD1      162.7930  166.0980  162.3550 C.ar  125  PHE125     -0.0042
     63  CD2      161.6260  167.4100  163.9570 C.ar  125  PHE125     -0.0042
     64  CE1      161.6860  165.3110  162.1910 C.ar  125  PHE125     -0.0003
     65  CE2      160.5140  166.6240  163.7940 C.ar  125  PHE125     -0.0003
     66  CZ       160.5480  165.5670  162.9200 C.ar  125  PHE125     -0.0000
     67  N        165.9440  166.5070  156.9960 N.3   130  GLY130     -0.1210
     68  CA       164.5730  166.9350  157.1530 C.3   130  GLY130      0.1956
     69  C        164.2490  168.1660  156.3220 C.2   130  GLY130      0.2612
     70  O        165.1020  169.0120  156.0300 O.2   130  GLY130     -0.2717
     71  N        162.9710  168.2550  155.9450 N.am  131  VAL131     -0.1965
     72  CA       162.4650  169.4480  155.2720 C.3   131  VAL131      0.1727
     73  C        162.6360  170.6580  156.1730 C.2   131  VAL131      0.2616
     74  O        162.9310  171.7610  155.7000 O.2   131  VAL131     -0.2715
     75  CB       160.9900  169.2610  154.8550 C.3   131  VAL131      0.0290
     76  CG1      160.5410  170.4040  153.9520 C.3   131  VAL131      0.0023
     77  CG2      160.7830  167.9200  154.1490 C.3   131  VAL131      0.0023
     78  N        162.4680  170.4740  157.4810 N.am  132  VAL132     -0.1977
     79  CA       162.6710  171.5710  158.4170 C.3   132  VAL132      0.1596
     80  C        164.1400  171.9700  158.4560 C.2   132  VAL132      0.2287
     81  O        164.4720  173.1520  158.6010 O.2   132  VAL132     -0.2864
     82  CB       162.1410  171.1740  159.8050 C.3   132  VAL132      0.0276
     83  CG1      162.5740  172.1740  160.8530 C.3   132  VAL132      0.0022
     84  CG2      160.6310  171.0600  159.7640 C.3   132  VAL132      0.0022
     85  N        164.6000  165.4540  150.8470 N.3   152  HIS152     -0.1226
     86  CA       164.7510  165.9240  152.2230 C.3   152  HIS152      0.1752
     87  C        163.5630  165.5720  153.1140 C.2   152  HIS152      0.2596
     88  O        163.4190  166.1480  154.2000 O.2   152  HIS152     -0.2718
     89  CB       165.0020  167.4390  152.2660 C.3   152  HIS152      0.0759
     90  CG       166.3350  167.8440  151.7200 C.ar  152  HIS152      0.0818
     91  ND1      167.4300  168.0740  152.5250 N.ar  152  HIS152     -0.2268
     92  CD2      166.7500  168.0610  150.4500 C.ar  152  HIS152      0.1154
     93  CE1      168.4620  168.4140  151.7750 C.ar  152  HIS152      0.1986
     94  NE2      168.0760  168.4140  150.5110 N.ar  152  HIS152     -0.2212
     95  N        162.7190  164.6300  152.7030 N.am  153  PHE153     -0.1962
     96  CA       161.5450  164.2550  153.4750 C.3   153  PHE153      0.1771
     97  C        161.8580  163.1020  154.4220 C.2   153  PHE153      0.2619
     98  O        162.7070  162.2520  154.1390 O.2   153  PHE153     -0.2715
     99  CB       160.3970  163.8650  152.5430 C.3   153  PHE153      0.0574
    100  CG       159.1190  163.5630  153.2610 C.ar  153  PHE153     -0.0200
    101  CD1      158.3930  164.5780  153.8520 C.ar  153  PHE153     -0.0042
    102  CD2      158.6510  162.2650  153.3600 C.ar  153  PHE153     -0.0042
    103  CE1      157.2260  164.3090  154.5240 C.ar  153  PHE153     -0.0003
    104  CE2      157.4770  161.9880  154.0290 C.ar  153  PHE153     -0.0003
    105  CZ       156.7630  163.0120  154.6130 C.ar  153  PHE153     -0.0000
    106  N        161.1620  163.0890  155.5590 N.am  154  CYS154     -0.1968
    107  CA       161.2240  162.0060  156.5290 C.3   154  CYS154      0.1712
    108  C        159.8240  161.4580  156.7720 C.2   154  CYS154      0.2296
    109  O        158.8390  162.2020  156.7650 O.2   154  CYS154     -0.2864
    110  CB       161.8310  162.4740  157.8510 C.3   154  CYS154      0.0983
    111  SG       163.2570  163.5600  157.6680 S.3   154  CYS154     -0.0798
    112  N        157.7430  160.2140  161.8690 N.3   157  VAL157     -0.1231
    113  CA       156.7290  160.7850  162.7460 C.3   157  VAL157      0.1692
    114  C        155.3410  160.4350  162.2390 C.2   157  VAL157      0.2592
    115  O        154.4010  160.3150  163.0310 O.2   157  VAL157     -0.2718
    116  CB       156.8870  162.3120  162.8810 C.3   157  VAL157      0.0266
    117  CG1      158.3010  162.6670  163.2830 C.3   157  VAL157      0.0020
    118  CG2      156.5060  163.0130  161.5930 C.3   157  VAL157      0.0020
    119  N        155.1940  160.2440  160.9290 N.am  158  ASP158     -0.1974
    120  CA       153.9310  159.7640  160.3920 C.3   158  ASP158      0.1709
    121  C        153.6560  158.3320  160.8330 C.2   158  ASP158      0.2293
    122  O        152.5030  157.9700  161.0900 O.2   158  ASP158     -0.2864
    123  CB       153.9440  159.8710  158.8720 C.3   158  ASP158      0.1436
    124  CG       152.5610  159.8670  158.2880 C.2   158  ASP158      0.3671
    125  OD1      151.6660  159.3300  158.9620 O.co2 158  ASP158     -0.2456
    126  OD2      152.3660  160.3970  157.1740 O.co2 158  ASP158     -0.2456
    127  N        152.4350  158.6700  164.3570 N.3   161  THR161     -0.1218
    128  CA       151.1640  159.3660  164.5360 C.3   161  THR161      0.1862
    129  C        150.0060  158.8220  163.7090 C.2   161  THR161      0.2287
    130  O        148.8850  159.3140  163.8760 O.2   161  THR161     -0.2866
    131  CB       151.3290  160.8550  164.2050 C.3   161  THR161      0.1770
    132  OG1      151.8600  160.9990  162.8810 O.3   161  THR161     -0.2211
    133  CG2      152.2670  161.5080  165.1940 C.3   161  THR161      0.0375
    134  N        149.1710  158.8450  160.2580 N.3   163  TYR163     -0.1241
    135  CA       148.6740  159.9290  159.4130 C.3   163  TYR163      0.1605
    136  C        149.0250  159.6000  157.9560 C.2   163  TYR163      0.2264
    137  O        149.4630  158.4760  157.6870 O.2   163  TYR163     -0.2867
    138  CB       149.2720  161.2540  159.9150 C.3   163  TYR163      0.0534
    139  CG       148.5940  162.4980  159.4240 C.ar  163  TYR163     -0.0201
    140  CD1      147.3270  162.8420  159.8680 C.ar  163  TYR163     -0.0009
    141  CD2      149.2350  163.3470  158.5450 C.ar  163  TYR163     -0.0009
    142  CE1      146.7050  163.9870  159.4220 C.ar  163  TYR163      0.0417
    143  CE2      148.6250  164.4930  158.0910 C.ar  163  TYR163      0.0417
    144  CZ       147.3590  164.8100  158.5370 C.ar  163  TYR163      0.1957
    145  OH       146.7420  165.9560  158.0930 O.3   163  TYR163     -0.2866
    146  N        150.0750  162.6710  155.4730 N.3   165  THR165     -0.1218
    147  CA       151.0500  163.7210  155.1620 C.3   165  THR165      0.1862
    148  C        151.2560  163.8680  153.6500 C.2   165  THR165      0.2287
    149  O        152.3050  163.5280  153.0950 O.2   165  THR165     -0.2866
    150  CB       152.3880  163.4450  155.8520 C.3   165  THR165      0.1770
    151  OG1      152.1680  163.0690  157.2150 O.3   165  THR165     -0.2211
    152  CG2      153.2590  164.6730  155.8140 C.3   165  THR165      0.0375
    153  N        153.0090  169.7370  152.0530 N.3   168  ILE168     -0.1245
    154  CA       153.6740  170.4970  153.1090 C.3   168  ILE168      0.1561
    155  C        153.9010  171.9350  152.6570 C.2   168  ILE168      0.2260
    156  O        154.2240  172.2040  151.4940 O.2   168  ILE168     -0.2867
    157  CB       155.0270  169.8630  153.5240 C.3   168  ILE168      0.0252
    158  CG1      154.8560  168.4180  154.0170 C.3   168  ILE168      0.0019
    159  CG2      155.7220  170.7180  154.5780 C.3   168  ILE168      0.0019
    160  CD1      154.0750  168.2610  155.3100 C.3   168  ILE168      0.0001
    161  N        154.6040  175.0640  160.2040 N.3   184  MET184     -0.1245
    162  CA       154.3220  174.1440  159.1100 C.3   184  MET184      0.1570
    163  C        152.8310  173.8650  159.0200 C.2   184  MET184      0.2261
    164  O        152.1530  173.7030  160.0390 O.2   184  MET184     -0.2867
    165  CB       155.0850  172.8280  159.2850 C.3   184  MET184      0.0387
    166  CG       156.5280  172.8810  158.8130 C.3   184  MET184      0.0595
    167  SD       157.2470  171.2460  158.5940 S.3   184  MET184     -0.1393
    168  CE       157.4150  170.7380  160.3010 C.3   184  MET184      0.0692
    169  N        149.9440  171.4370  156.7020 N.3   186  VAL186     -0.1245
    170  CA       149.8970  170.1660  155.9890 C.3   186  VAL186      0.1561
    171  C        148.4720  169.8620  155.5460 C.2   186  VAL186      0.2260
    172  O        147.4990  170.2450  156.2020 O.2   186  VAL186     -0.2867
    173  CB       150.4360  169.0050  156.8590 C.3   186  VAL186      0.0252
    174  CG1      151.7920  169.3530  157.4500 C.3   186  VAL186      0.0019
    175  CG2      149.4530  168.6630  157.9640 C.3   186  VAL186      0.0019
@<TRIPOS>BOND
     1    92    94   ar
     2    92    90   ar
     3    94    93   ar
     4    85    86    1
     5   156   155    2
     6    90    89    1
     7    90    91   ar
     8    93    91   ar
     9   153   154    1
    10    86    89    1
    11    86    87    1
    12    99   100    1
    13    99    96    1
    14   155   154    1
    15    95    87   am
    16    95    96    1
    17   149   148    2
    18   154   157    1
    19    87    88    2
    20   100   102   ar
    21   100   101   ar
    22   102   104   ar
    23    96    97    1
    24   157   158    1
    25   157   159    1
    26   148   147    1
    27   101   103   ar
    28    76    75    1
    29   158   160    1
    30   104   105   ar
    31    98    97    2
    32    77    75    1
    33    97   106   am
    34   103   105   ar
    35    75    72    1
    36   147   146    1
    37   147   150    1
    38    72    71    1
    39    72    73    1
    40   171   170    1
    41   171   172    2
    42   106   107    1
    43    74    73    2
    44   152   150    1
    45   150   151    1
    46    71    69   am
    47   170   169    1
    48   170   173    1
    49    70    69    2
    50    73    78   am
    51    69    68    1
    52   107   108    1
    53   107   110    1
    54   109   108    2
    55   173   174    1
    56   173   175    1
    57    67    68    1
    58   126   124   ar
    59    78    79    1
    60   111   110    1
    61   137   136    2
    62   136   135    1
    63   143   144   ar
    64   143   141   ar
    65   145   144    1
    66   124   123    1
    67   124   125   ar
    68    79    80    1
    69    79    82    1
    70    80    81    2
    71   144   142   ar
    72   141   139   ar
    73   167   166    1
    74   167   168    1
    75   166   165    1
    76   123   120    1
    77   163   162    1
    78   163   164    2
    79   162   165    1
    80   162   161    1
    81     1     2    1
    82   135   138    1
    83   135   134    1
    84   142   140   ar
    85   139   140   ar
    86   139   138    1
    87     4     3    2
    88    84    82    1
    89    82    83    1
    90   120   121    1
    91   120   119    1
    92     3     2    1
    93     3    12   am
    94    19    18    1
    95     2     5    1
    96   121   122    2
    97   119   114   am
    98     5     6    1
    99    18    17    1
   100     6     7    1
   101    17    16    1
   102   118   116    1
   103    12    13    1
   104    13    16    1
   105    13    14    1
   106   112   113    1
   107    25    24    1
   108    64    62   ar
   109    64    66   ar
   110   114   113    1
   111   114   115    2
   112    62    61   ar
   113     7     8    1
   114   113   116    1
   115    20    14   am
   116    20    21    1
   117    14    15    2
   118   132   131    1
   119   116   117    1
   120    66    65   ar
   121     8     9    2
   122    23    22    2
   123    35    36   ar
   124    35    33   ar
   125    61    60    1
   126    61    63   ar
   127     9    10    1
   128     9    11    1
   129    24    21    1
   130    60    57    1
   131    36    34   ar
   132    33    31   ar
   133   129   130    2
   134   129   128    1
   135    21    22    1
   136    65    63   ar
   137    47    46   ar
   138    47    45   ar
   139    58    57    1
   140    58    59    2
   141   131   128    1
   142   131   133    1
   143    34    32   ar
   144    46    44   ar
   145   127   128    1
   146    57    56    1
   147    31    32   ar
   148    31    30    1
   149    54    53    2
   150    45    43   ar
   151    30    27    1
   152    26    27    1
   153    44    42   ar
   154    53    55   am
   155    53    52    1
   156    43    42   ar
   157    49    48    1
   158    49    50    1
   159    49    52    1
   160    27    28    1
   161    48    39   am
   162    29    28    2
   163    42    41    1
   164    50    51    2
   165    39    38    1
   166    39    40    2
   167    38    41    1
   168    38    37    1
