@<TRIPOS>MOLECULE
tmp/6mzjD08.pdb
 79 78 0 0 0
SMALL
GASTEIGER

@<TRIPOS>ATOM
      1  N        207.2280  254.6350  246.6130 N.3   171  ASN171     -0.1225
      2  CA       207.1690  256.0780  246.4550 C.3   171  ASN171      0.1785
      3  C        206.5750  256.4290  245.0930 C.2   171  ASN171      0.2597
      4  O        207.2000  256.2140  244.0570 O.2   171  ASN171     -0.2718
      5  CB       208.5460  256.6830  246.6350 C.3   171  ASN171      0.1169
      6  CG       208.6120  258.1310  246.2580 C.2   171  ASN171      0.2627
      7  OD1      207.6300  258.7100  245.7730 O.2   171  ASN171     -0.2716
      8  ND2      209.7570  258.7350  246.4780 N.am  171  ASN171     -0.0877
      9  N        205.3340  256.9030  245.1100 N.am  172  LYS172     -0.1966
     10  CA       204.5470  257.0940  243.8930 C.3   172  LYS172      0.1728
     11  C        205.1770  258.0770  242.9190 C.2   172  LYS172      0.2617
     12  O        204.8110  258.1160  241.7460 O.2   172  LYS172     -0.2715
     13  CB       203.1480  257.5700  244.2430 C.3   172  LYS172      0.0311
     14  CG       202.3300  256.5240  245.0140 C.3   172  LYS172      0.0038
     15  CD       200.9490  257.0970  245.4010 C.3   172  LYS172      0.0206
     16  CE       200.5500  256.2500  246.5820 C.3   172  LYS172      0.1093
     17  NZ       199.2180  256.5520  247.1280 N.3   172  LYS172     -0.1314
     18  N        206.0950  258.8910  243.4080 N.am  173  THR173     -0.1937
     19  CA       206.7180  259.9030  242.5750 C.3   173  THR173      0.2028
     20  C        208.1950  259.6170  242.3530 C.2   173  THR173      0.2642
     21  O        208.9530  260.4990  241.9490 O.2   173  THR173     -0.2714
     22  CB       206.5490  261.2930  243.1930 C.3   173  THR173      0.1808
     23  OG1      207.1650  261.2910  244.4720 O.3   173  THR173     -0.2208
     24  CG2      205.0900  261.6930  243.3030 C.3   173  THR173      0.0379
     25  N        208.6020  258.3800  242.6160 N.am  174  PHE174     -0.1959
     26  CA       209.9870  257.9660  242.4190 C.3   174  PHE174      0.1771
     27  C        210.3890  258.0240  240.9490 C.2   174  PHE174      0.2619
     28  O        209.6630  257.5510  240.0740 O.2   174  PHE174     -0.2715
     29  CB       210.1980  256.5550  242.9570 C.3   174  PHE174      0.0574
     30  CG       211.5960  255.9990  242.7980 C.ar  174  PHE174     -0.0200
     31  CD1      212.6940  256.6310  243.3120 C.ar  174  PHE174     -0.0042
     32  CD2      211.8000  254.7980  242.1670 C.ar  174  PHE174     -0.0042
     33  CE1      213.9710  256.1150  243.2540 C.ar  174  PHE174     -0.0003
     34  CE2      213.0960  254.2260  242.0960 C.ar  174  PHE174     -0.0003
     35  CZ       214.1400  254.9160  242.6070 C.ar  174  PHE174     -0.0000
     36  N        211.5470  258.6190  240.6850 N.am  175  ASN175     -0.1972
     37  CA       212.0330  258.8210  239.3270 C.3   175  ASN175      0.1688
     38  C        212.6540  257.5630  238.7350 C.2   175  ASN175      0.2292
     39  O        213.1020  257.5690  237.5900 O.2   175  ASN175     -0.2864
     40  CB       213.0510  259.9310  239.3100 C.3   175  ASN175      0.1181
     41  CG       212.4190  261.2980  239.3940 C.2   175  ASN175      0.2629
     42  OD1      211.2140  261.4710  239.2960 O.2   175  ASN175     -0.2716
     43  ND2      213.1980  262.3180  239.6020 N.am  175  ASN175     -0.0877
     44  N        215.3270  256.2420  239.9380 N.3   177  LYS177     -0.1231
     45  CA       216.7500  256.2940  240.2480 C.3   177  LYS177      0.1693
     46  C        217.0270  257.0960  241.5140 C.2   177  LYS177      0.2593
     47  O        216.8750  258.3190  241.5350 O.2   177  LYS177     -0.2718
     48  CB       217.5260  256.8930  239.0780 C.3   177  LYS177      0.0285
     49  CG       218.9330  257.3860  239.3730 C.3   177  LYS177      0.0035
     50  CD       219.6670  257.8700  238.1120 C.3   177  LYS177      0.0206
     51  CE       219.4420  256.8610  236.9700 C.3   177  LYS177      0.1093
     52  NZ       220.3060  257.3000  235.7990 N.3   177  LYS177     -0.1314
     53  N        217.4620  256.4040  242.5620 N.am  178  GLY178     -0.1943
     54  CA       217.7740  257.0520  243.8300 C.3   178  GLY178      0.1998
     55  C        217.1120  256.3390  245.0100 C.2   178  GLY178      0.2480
     56  O        216.5330  255.2640  244.8470 O.2   178  GLY178     -0.2729
     57  N        217.2200  256.9250  246.2050 N.am  179  PRO179     -0.2726
     58  CA       216.6920  256.4610  247.4760 C.3   179  PRO179      0.1402
     59  C        215.1730  256.3350  247.4550 C.2   179  PRO179      0.2269
     60  O        214.4840  257.1610  246.8600 O.2   179  PRO179     -0.2865
     61  CB       217.1400  257.5670  248.4420 C.3   179  PRO179      0.0296
     62  CG       218.3090  258.2420  247.7400 C.3   179  PRO179      0.0237
     63  CD       217.9660  258.1650  246.2770 C.3   179  PRO179      0.0939
     64  N        212.5220  256.1040  250.3760 N.3   181  ASN181     -0.1225
     65  CA       212.2000  256.1280  251.7950 C.3   181  ASN181      0.1785
     66  C        210.9980  255.2370  252.0960 C.2   181  ASN181      0.2597
     67  O        210.8470  254.7340  253.2050 O.2   181  ASN181     -0.2718
     68  CB       211.9330  257.5460  252.2470 C.3   181  ASN181      0.1169
     69  CG       211.7800  257.7210  253.7430 C.2   181  ASN181      0.2627
     70  OD1      212.5080  257.1290  254.5350 O.2   181  ASN181     -0.2716
     71  ND2      210.8330  258.5520  254.1340 N.am  181  ASN181     -0.0877
     72  N        210.1590  255.0560  251.0920 N.am  182  ASN182     -0.1974
     73  CA       208.9650  254.2110  251.2210 C.3   182  ASN182      0.1688
     74  C        209.2080  252.8420  250.5660 C.2   182  ASN182      0.2292
     75  O        208.9670  252.6760  249.3800 O.2   182  ASN182     -0.2864
     76  CB       207.7750  254.8990  250.6070 C.3   182  ASN182      0.1181
     77  CG       206.4710  254.2840  251.0230 C.2   182  ASN182      0.2629
     78  OD1      205.5340  254.2090  250.2200 O.2   182  ASN182     -0.2716
     79  ND2      206.3890  253.8480  252.2550 N.am  182  ASN182     -0.0877
@<TRIPOS>BOND
     1    52    51    1
     2    51    50    1
     3    39    38    2
     4    50    49    1
     5    38    37    1
     6    48    49    1
     7    48    45    1
     8    42    41    2
     9    40    37    1
    10    40    41    1
    11    37    36    1
    12    41    43   am
    13    44    45    1
    14    28    27    2
    15    45    46    1
    16    36    27   am
    17    27    26    1
    18    46    47    2
    19    46    53   am
    20    12    11    2
    21    21    20    2
    22    34    32   ar
    23    34    35   ar
    24    32    30   ar
    25    20    19    1
    26    20    25   am
    27    26    25    1
    28    26    29    1
    29    53    54    1
    30    19    22    1
    31    19    18    1
    32    35    33   ar
    33    30    29    1
    34    30    31   ar
    35    11    18   am
    36    11    10    1
    37    22    24    1
    38    22    23    1
    39    33    31   ar
    40    54    55    1
    41    10    13    1
    42    10     9    1
    43     4     3    2
    44    13    14    1
    45    56    55    2
    46    55    57   am
    47    14    15    1
    48     3     9   am
    49     3     2    1
    50    15    16    1
    51     7     6    2
    52    57    63    1
    53    57    58    1
    54     6     8   am
    55     6     5    1
    56    63    62    1
    57     2     1    1
    58     2     5    1
    59    16    17    1
    60    60    59    2
    61    59    58    1
    62    58    61    1
    63    62    61    1
    64    75    74    2
    65    78    77    2
    66    64    65    1
    67    74    73    1
    68    76    77    1
    69    76    73    1
    70    77    79   am
    71    72    73    1
    72    72    66   am
    73    65    66    1
    74    65    68    1
    75    66    67    2
    76    68    69    1
    77    69    71   am
    78    69    70    2
