@<TRIPOS>MOLECULE
tmp/6mzjD15.pdb
 96 93 0 0 0
SMALL
GASTEIGER

@<TRIPOS>ATOM
      1  N        198.3310  238.8170  226.0480 N.3   153  PRO153     -0.2116
      2  CA       199.3700  239.1830  226.9840 C.3   153  PRO153      0.1372
      3  C        198.9560  238.9220  228.4250 C.2   153  PRO153      0.2244
      4  O        198.7690  239.8510  229.2070 O.2   153  PRO153     -0.2868
      5  CB       199.5610  240.6760  226.6940 C.3   153  PRO153      0.0268
      6  CG       198.2160  241.1310  226.1770 C.3   153  PRO153      0.0207
      7  CD       197.7020  239.9490  225.3700 C.3   153  PRO153      0.0892
      8  N        202.0120  242.3100  232.2600 N.3   193  LYS193     -0.1245
      9  CA       201.6370  241.8450  230.9380 C.3   193  LYS193      0.1561
     10  C        202.7910  242.0190  229.9520 C.2   193  LYS193      0.2260
     11  O        203.3640  243.1030  229.8540 O.2   193  LYS193     -0.2867
     12  CB       200.4070  242.5980  230.4510 C.3   193  LYS193      0.0271
     13  CG       199.2440  242.4210  231.3830 C.3   193  LYS193      0.0035
     14  CD       198.0070  242.8660  230.6660 C.3   193  LYS193      0.0206
     15  CE       196.8830  243.0900  231.6510 C.3   193  LYS193      0.1093
     16  NZ       195.5860  243.3000  230.9540 N.3   193  LYS193     -0.1314
     17  N        203.4430  242.8840  227.0030 N.3   195  VAL195     -0.1245
     18  CA       202.9230  243.6240  225.8700 C.3   195  VAL195      0.1561
     19  C        204.0360  244.0730  224.9450 C.2   195  VAL195      0.2260
     20  O        204.9010  244.8570  225.3330 O.2   195  VAL195     -0.2867
     21  CB       202.1350  244.8500  226.3480 C.3   195  VAL195      0.0252
     22  CG1      201.5810  245.6590  225.1800 C.3   195  VAL195      0.0019
     23  CG2      200.9570  244.3710  227.2010 C.3   195  VAL195      0.0019
     24  N        200.6940  250.3140  225.5670 N.3   202  LEU202     -0.1231
     25  CA       199.3080  249.9480  225.8200 C.3   202  LEU202      0.1693
     26  C        199.1790  248.9380  226.9410 C.2   202  LEU202      0.2592
     27  O        200.0610  248.1080  227.1520 O.2   202  LEU202     -0.2718
     28  CB       198.6810  249.3600  224.5570 C.3   202  LEU202      0.0284
     29  CG       198.6670  250.2660  223.3320 C.3   202  LEU202      0.0019
     30  CD1      198.2130  249.5210  222.0940 C.3   202  LEU202      0.0001
     31  CD2      197.7890  251.4860  223.5420 C.3   202  LEU202      0.0001
     32  N        198.0450  248.9800  227.6300 N.am  203  ASN203     -0.1974
     33  CA       197.7070  247.9850  228.6370 C.3   203  ASN203      0.1688
     34  C        198.8010  247.8480  229.6820 C.2   203  ASN203      0.2292
     35  O        199.0830  246.7460  230.1560 O.2   203  ASN203     -0.2864
     36  CB       197.4300  246.6450  227.9860 C.3   203  ASN203      0.1181
     37  CG       196.0720  246.5780  227.3620 C.2   203  ASN203      0.2629
     38  OD1      195.2210  247.4410  227.6050 O.2   203  ASN203     -0.2716
     39  ND2      195.8480  245.5660  226.5620 N.am  203  ASN203     -0.0877
     40  N        201.6660  247.0980  217.1810 N.3   314  PHE314     -0.1227
     41  CA       201.1010  246.3120  218.2640 C.3   314  PHE314      0.1736
     42  C        200.3410  245.1010  217.7560 C.2   314  PHE314      0.2595
     43  O        199.8700  245.0710  216.6180 O.2   314  PHE314     -0.2718
     44  CB       200.1830  247.1680  219.1310 C.3   314  PHE314      0.0547
     45  CG       198.8420  247.4640  218.5160 C.ar  314  PHE314     -0.0202
     46  CD1      198.7030  248.4340  217.5270 C.ar  314  PHE314     -0.0042
     47  CD2      197.7020  246.7460  218.8680 C.ar  314  PHE314     -0.0042
     48  CE1      197.5070  248.6430  216.8920 C.ar  314  PHE314     -0.0003
     49  CE2      196.4780  246.9840  218.2720 C.ar  314  PHE314     -0.0003
     50  CZ       196.3670  247.9410  217.2810 C.ar  314  PHE314     -0.0000
     51  N        200.1990  244.1170  218.6280 N.am  315  ASN315     -0.1960
     52  CA       199.4000  242.9390  218.3600 C.3   315  ASN315      0.1819
     53  C        197.9750  243.1630  218.8070 C.2   315  ASN315      0.2624
     54  O        197.7210  243.3890  219.9850 O.2   315  ASN315     -0.2715
     55  CB       199.9770  241.7260  219.0570 C.3   315  ASN315      0.1195
     56  CG       199.3640  240.4320  218.5470 C.2   315  ASN315      0.2630
     57  OD1      198.6830  240.4140  217.5520 O.2   315  ASN315     -0.2716
     58  ND2      199.6970  239.3720  219.2490 N.am  315  ASN315     -0.0877
     59  N        197.0430  243.1030  217.8750 N.am  316  CYS316     -0.1912
     60  CA       195.6370  243.3060  218.1980 C.3   316  CYS316      0.2015
     61  C        194.9760  241.9830  218.5620 C.2   316  CYS316      0.2664
     62  O        193.8010  241.7610  218.2790 O.2   316  CYS316     -0.2711
     63  CB       194.9080  243.9360  217.0130 C.2   316  CYS316      0.0462
     64  SG       193.2220  244.5320  217.3710 S.3   316  CYS316     -0.0570
     65  N        195.7510  241.0970  219.1740 N.am  317  GLY317     -0.1952
     66  CA       195.2490  239.8050  219.6100 C.3   317  GLY317      0.1869
     67  C        195.0750  238.8760  218.4230 C.2   317  GLY317      0.2309
     68  O        194.6460  237.7310  218.5710 O.2   317  GLY317     -0.2863
     69  N        188.2090  244.0060  216.5070 N.3   368  THR368     -0.1203
     70  CA       188.2330  245.3000  217.1740 C.3   368  THR368      0.1994
     71  C        188.8740  245.1870  218.5480 C.2   368  THR368      0.2618
     72  O        188.4890  244.3440  219.3560 O.2   368  THR368     -0.2717
     73  CB       186.8200  245.8790  217.2970 C.3   368  THR368      0.1784
     74  OG1      186.8530  247.2380  217.7620 O.3   368  THR368     -0.2211
     75  CG2      185.9150  245.1050  218.2040 C.3   368  THR368      0.0376
     76  N        189.8550  246.0430  218.8080 N.am  369  CYS369     -0.1955
     77  CA       190.5520  246.0430  220.0870 C.3   369  CYS369      0.1843
     78  C        190.3740  247.3550  220.8260 C.2   369  CYS369      0.2625
     79  O        190.7170  248.4210  220.3140 O.2   369  CYS369     -0.2714
     80  CB       192.0520  245.7990  219.8940 C.3   369  CYS369      0.1000
     81  SG       192.4690  244.1770  219.2390 S.3   369  CYS369     -0.0756
     82  N        189.8780  247.2700  222.0490 N.am  370  LYS370     -0.1963
     83  CA       189.7700  248.4330  222.9120 C.3   370  LYS370      0.1728
     84  C        190.8700  248.4000  223.9530 C.2   370  LYS370      0.2616
     85  O        190.9410  247.4750  224.7590 O.2   370  LYS370     -0.2715
     86  CB       188.3990  248.4780  223.5830 C.3   370  LYS370      0.0311
     87  CG       187.2380  248.7110  222.6460 C.3   370  LYS370      0.0038
     88  CD       185.9700  248.8740  223.4680 C.3   370  LYS370      0.0206
     89  CE       184.7540  249.1460  222.6030 C.3   370  LYS370      0.1093
     90  NZ       184.5320  248.0880  221.5890 N.3   370  LYS370     -0.1314
     91  N        191.7430  249.3960  223.9260 N.am  371  SER371     -0.1950
     92  CA       192.8880  249.4060  224.8210 C.3   371  SER371      0.1924
     93  C        193.1570  250.7910  225.3690 C.2   371  SER371      0.2314
     94  O        192.6740  251.7890  224.8370 O.2   371  SER371     -0.2863
     95  CB       194.1160  248.9120  224.0930 C.3   371  SER371      0.2116
     96  OG       194.5570  249.7820  223.1070 O.3   371  SER371     -0.2180
@<TRIPOS>BOND
     1    69    70    1
     2    43    42    2
     3    48    50   ar
     4    48    46   ar
     5    63    64    2
     6    63    60    1
     7    70    73    1
     8    70    71    1
     9    40    41    1
    10    50    49   ar
    11    73    74    1
    12    73    75    1
    13    64    81    1
    14    46    45   ar
    15    57    56    2
    16    42    41    1
    17    42    51   am
    18    59    60    1
    19    59    53   am
    20    60    61    1
    21    41    44    1
    22    49    47   ar
    23    62    61    2
    24    52    51    1
    25    52    53    1
    26    52    55    1
    27    67    68    2
    28    67    66    1
    29    45    47   ar
    30    45    44    1
    31    56    55    1
    32    56    58   am
    33    71    76   am
    34    71    72    2
    35    61    65   am
    36    53    54    2
    37    76    77    1
    38    65    66    1
    39    81    80    1
    40    80    77    1
    41    77    78    1
    42    79    78    2
    43    78    82   am
    44    90    89    1
    45    82    83    1
    46    30    29    1
    47    89    88    1
    48    87    88    1
    49    87    86    1
    50    83    86    1
    51    83    84    1
    52    96    95    1
    53    29    31    1
    54    29    28    1
    55    91    84   am
    56    91    92    1
    57    84    85    2
    58    95    92    1
    59    28    25    1
    60    92    93    1
    61    94    93    2
    62    19    20    2
    63    19    18    1
    64    22    21    1
    65     7     1    1
    66     7     6    1
    67    24    25    1
    68    25    26    1
    69    18    21    1
    70    18    17    1
    71     1     2    1
    72     6     5    1
    73    21    23    1
    74    39    37   am
    75     5     2    1
    76    26    27    2
    77    26    32   am
    78     2     3    1
    79    37    38    2
    80    37    36    1
    81    32    33    1
    82    36    33    1
    83     3     4    2
    84    33    34    1
    85    34    35    2
    86    11    10    2
    87    10     9    1
    88    12     9    1
    89    12    13    1
    90    14    13    1
    91    14    15    1
    92     9     8    1
    93    16    15    1
