@<TRIPOS>MOLECULE
tmp/6mzqA00.pdb
 189 177 0 0 0
SMALL
GASTEIGER

@<TRIPOS>ATOM
      1  N        -19.9620  -17.4660   17.7610 N.3    21  LEU21      -0.1231
      2  CA       -20.6240  -16.4340   16.9310 C.3    21  LEU21       0.1693
      3  C        -21.1910  -17.0650   15.6590 C.2    21  LEU21       0.2592
      4  O        -22.2010  -16.5700   15.1450 O.2    21  LEU21      -0.2718
      5  CB       -19.6370  -15.3210   16.5830 C.3    21  LEU21       0.0284
      6  CG       -19.2440  -14.4280   17.7510 C.3    21  LEU21       0.0019
      7  CD1      -18.0480  -13.5650   17.3860 C.3    21  LEU21       0.0001
      8  CD2      -20.4320  -13.5850   18.2080 C.3    21  LEU21       0.0001
      9  N        -20.5140  -18.1150   15.1680 N.am   22  GLY22      -0.1957
     10  CA       -20.9570  -18.9710   14.0660 C.3    22  GLY22       0.1869
     11  C        -19.8910  -19.9970   13.6860 C.2    22  GLY22       0.2309
     12  O        -18.7260  -19.8320   14.0460 O.2    22  GLY22      -0.2863
     13  N        -16.0310  -19.3120   14.6920 N.3    26  VAL26      -0.1245
     14  CA       -15.7150  -18.0160   15.2100 C.3    26  VAL26       0.1561
     15  C        -16.3580  -17.9050   16.6030 C.2    26  VAL26       0.2260
     16  O        -17.5350  -18.2610   16.7590 O.2    26  VAL26      -0.2867
     17  CB       -16.2010  -16.9320   14.2330 C.3    26  VAL26       0.0252
     18  CG1      -16.0050  -15.5370   14.7960 C.3    26  VAL26       0.0019
     19  CG2      -15.5220  -17.0610   12.8770 C.3    26  VAL26       0.0019
     20  N        -13.3050  -11.1060   17.8650 N.3    46  ALA46      -0.1231
     21  CA       -13.7100  -12.3840   17.3200 C.3    46  ALA46       0.1694
     22  C        -12.4540  -13.2040   17.0300 C.2    46  ALA46       0.2592
     23  O        -11.4000  -12.6570   16.6450 O.2    46  ALA46      -0.2718
     24  CB       -14.5540  -12.1750   16.0830 C.3    46  ALA46       0.0304
     25  N        -12.5580  -14.5120   17.2590 N.am   47  VAL47      -0.1966
     26  CA       -11.4630  -15.4030   17.1360 C.3    47  VAL47       0.1727
     27  C        -11.8680  -16.5430   16.2020 C.2    47  VAL47       0.2616
     28  O        -12.8310  -17.2470   16.4600 O.2    47  VAL47      -0.2715
     29  CB       -11.0210  -15.9590   18.4980 C.3    47  VAL47       0.0290
     30  CG1       -9.8550  -16.9020   18.3140 C.3    47  VAL47       0.0023
     31  CG2      -10.6790  -14.8610   19.4870 C.3    47  VAL47       0.0023
     32  N        -11.1010  -16.7200   15.1250 N.am   48  LYS48      -0.1977
     33  CA       -11.3800  -17.7560   14.1760 C.3    48  LYS48       0.1596
     34  C        -10.3690  -18.8680   14.4470 C.2    48  LYS48       0.2287
     35  O         -9.1910  -18.5910   14.6640 O.2    48  LYS48      -0.2864
     36  CB       -11.3410  -17.2120   12.7440 C.3    48  LYS48       0.0298
     37  CG       -11.7510  -18.2070   11.6610 C.3    48  LYS48       0.0038
     38  CD       -11.9100  -17.5920   10.2590 C.3    48  LYS48       0.0206
     39  CE       -12.4320  -18.5820    9.2320 C.3    48  LYS48       0.1093
     40  NZ       -12.2420  -18.0750    7.8470 N.3    48  LYS48      -0.1314
     41  N         -6.4150  -21.4670    6.6810 N.3    62  LEU62      -0.1245
     42  CA        -6.5710  -20.5190    7.8110 C.3    62  LEU62       0.1561
     43  C         -5.3130  -19.6560    7.9170 C.2    62  LEU62       0.2260
     44  O         -5.3910  -18.4440    8.1060 O.2    62  LEU62      -0.2867
     45  CB        -6.8470  -21.2670    9.1180 C.3    62  LEU62       0.0270
     46  CG        -7.0930  -20.3850   10.3410 C.3    62  LEU62       0.0019
     47  CD1       -8.1220  -19.3050   10.0500 C.3    62  LEU62       0.0001
     48  CD2       -7.5240  -21.2230   11.5310 C.3    62  LEU62       0.0001
     49  N         -5.1330  -17.2040    4.9870 N.3    65  GLU65      -0.1245
     50  CA        -6.0480  -16.0700    5.2720 C.3    65  GLU65       0.1567
     51  C         -5.3390  -15.0620    6.1840 C.2    65  GLU65       0.2260
     52  O         -5.2480  -13.8930    5.8700 O.2    65  GLU65      -0.2867
     53  CB        -7.3670  -16.5300    5.8940 C.3    65  GLU65       0.0388
     54  CG        -8.3330  -15.3840    6.1810 C.3    65  GLU65       0.1160
     55  CD        -9.7600  -15.7930    6.5400 C.2    65  GLU65       0.3649
     56  OE1       -9.9580  -16.9190    7.0620 O.co2  65  GLU65      -0.2457
     57  OE2      -10.6910  -14.9790    6.2890 O.co2  65  GLU65      -0.2457
     58  N         -4.1780  -11.2030    5.3680 N.3    69  MET69      -0.1245
     59  CA        -4.6450  -10.0560    6.1890 C.3    69  MET69       0.1570
     60  C         -3.4640   -9.2200    6.7170 C.2    69  MET69       0.2261
     61  O         -3.5310   -7.9880    6.7240 O.2    69  MET69      -0.2867
     62  CB        -5.5650  -10.5020    7.3290 C.3    69  MET69       0.0387
     63  CG        -6.8570  -11.0520    6.8110 C.3    69  MET69       0.0595
     64  SD        -7.9330  -11.7500    8.0640 S.3    69  MET69      -0.1393
     65  CE        -8.4210  -10.2390    8.8890 C.3    69  MET69       0.0692
     66  N        -12.9850   -5.9500    7.9900 N.3    79  ILE79      -0.1245
     67  CA       -12.6640   -6.6040    9.2240 C.3    79  ILE79       0.1561
     68  C        -11.1370   -6.7300    9.3410 C.2    79  ILE79       0.2260
     69  O        -10.5000   -7.4630    8.5970 O.2    79  ILE79      -0.2867
     70  CB       -13.3330   -7.9880    9.2780 C.3    79  ILE79       0.0252
     71  CG1      -14.8580   -7.8840    9.3940 C.3    79  ILE79       0.0019
     72  CG2      -12.7280   -8.8040   10.3990 C.3    79  ILE79       0.0019
     73  CD1      -15.3640   -7.3940   10.7500 C.3    79  ILE79       0.0001
     74  N         -6.8900  -16.8910   15.1860 N.3    93  VAL93      -0.1245
     75  CA        -6.7120  -15.6610   14.4260 C.3    93  VAL93       0.1561
     76  C         -7.7190  -14.6710   14.9910 C.2    93  VAL93       0.2260
     77  O         -8.8770  -14.9670   14.9850 O.2    93  VAL93      -0.2867
     78  CB        -6.9050  -15.9160   12.9180 C.3    93  VAL93       0.0252
     79  CG1       -6.6630  -14.6600   12.0650 C.3    93  VAL93       0.0019
     80  CG2       -6.0050  -17.0640   12.4740 C.3    93  VAL93       0.0019
     81  N         -9.6440  -11.0840   15.1620 N.3    95  VAL95      -0.1231
     82  CA       -10.1160  -10.0450   14.2810 C.3    95  VAL95       0.1692
     83  C        -11.1280   -9.1860   15.0100 C.2    95  VAL95       0.2592
     84  O        -11.5840   -9.5260   16.1200 O.2    95  VAL95      -0.2718
     85  CB       -10.7300  -10.6460   13.0060 C.3    95  VAL95       0.0266
     86  CG1       -9.7510  -11.6000   12.3380 C.3    95  VAL95       0.0020
     87  CG2      -12.0660  -11.3280   13.2770 C.3    95  VAL95       0.0020
     88  N        -11.4850   -8.0730   14.3630 N.am   96  GLU96      -0.1966
     89  CA       -12.4560   -7.1510   14.9120 C.3    96  GLU96       0.1733
     90  C        -13.8240   -7.8350   15.0600 C.2    96  GLU96       0.2616
     91  O        -14.2700   -8.6180   14.2100 O.2    96  GLU96      -0.2715
     92  CB       -12.5280   -5.9020   14.0460 C.3    96  GLU96       0.0429
     93  CG       -11.3080   -5.0290   14.1970 C.3    96  GLU96       0.1163
     94  CD       -11.3000   -3.8800   13.2120 C.2    96  GLU96       0.3649
     95  OE1      -11.9410   -4.0090   12.1320 O.co2  96  GLU96      -0.2457
     96  OE2      -10.6010   -2.8910   13.4920 O.co2  96  GLU96      -0.2457
     97  N        -14.4770   -7.5280   16.1870 N.am   97  TYR97      -0.1960
     98  CA       -15.8010   -7.9680   16.5070 C.3    97  TYR97       0.1771
     99  C        -16.8360   -6.9770   15.9510 C.2    97  TYR97       0.2619
    100  O        -16.7670   -5.7870   16.1940 O.2    97  TYR97      -0.2715
    101  CB       -15.9300   -8.0340   18.0340 C.3    97  TYR97       0.0574
    102  CG       -17.3050   -8.3490   18.5590 C.ar   97  TYR97      -0.0198
    103  CD1      -17.9720   -9.4880   18.1540 C.ar   97  TYR97      -0.0009
    104  CD2      -17.9180   -7.5240   19.4920 C.ar   97  TYR97      -0.0009
    105  CE1      -19.2300   -9.7960   18.6450 C.ar   97  TYR97       0.0417
    106  CE2      -19.1750   -7.8180   19.9930 C.ar   97  TYR97       0.0417
    107  CZ       -19.8270   -8.9560   19.5670 C.ar   97  TYR97       0.1957
    108  OH       -21.0670   -9.2310   20.0320 O.3    97  TYR97      -0.2866
    109  N        -17.8270   -7.4920   15.2500 N.am   98  ALA98      -0.1977
    110  CA       -18.9700   -6.6980   14.7410 C.3    98  ALA98       0.1597
    111  C        -20.2530   -7.2220   15.3940 C.2    98  ALA98       0.2287
    112  O        -20.7250   -8.2860   15.0540 O.2    98  ALA98      -0.2864
    113  CB       -19.0330   -6.8170   13.2330 C.3    98  ALA98       0.0319
    114  N        -23.8010   -8.3130   13.6400 N.3   101  GLY101     -0.1210
    115  CA       -23.8230   -9.3710   12.6490 C.3   101  GLY101      0.1956
    116  C        -23.6530   -9.0410   11.1870 C.2   101  GLY101      0.2611
    117  O        -23.1780   -8.0170   10.8610 O.2   101  GLY101     -0.2717
    118  N        -24.0440   -9.9470   10.3150 N.am  102  ASN102     -0.1974
    119  CA       -23.9090   -9.7230    8.8980 C.3   102  ASN102      0.1688
    120  C        -24.9390   -8.7230    8.4010 C.2   102  ASN102      0.2292
    121  O        -25.8910   -8.4450    9.0630 O.2   102  ASN102     -0.2864
    122  CB       -23.7780  -11.0270    8.1100 C.3   102  ASN102      0.1181
    123  CG       -25.0870  -11.7490    7.8990 C.2   102  ASN102      0.2629
    124  OD1      -26.0280  -11.2290    7.3740 O.2   102  ASN102     -0.2716
    125  ND2      -25.1110  -12.9610    8.2770 N.am  102  ASN102     -0.0877
    126  N        -28.7750  -10.0730    7.6990 N.3   105  GLU105     -0.1245
    127  CA       -29.4990  -10.1670    8.9450 C.3   105  GLU105      0.1567
    128  C        -29.8470   -8.8030    9.5020 C.2   105  GLU105      0.2260
    129  O        -30.9300   -8.5770    9.9360 O.2   105  GLU105     -0.2867
    130  CB       -28.6570  -10.9080    9.9530 C.3   105  GLU105      0.0388
    131  CG       -28.5440  -12.3750    9.6530 C.3   105  GLU105      0.1160
    132  CD       -27.4580  -13.0760   10.4270 C.2   105  GLU105      0.3649
    133  OE1      -26.5020  -12.4430   10.9110 O.co2 105  GLU105     -0.2457
    134  OE2      -27.5690  -14.2940   10.5250 O.co2 105  GLU105     -0.2457
    135  N        -24.0320  -11.1410    3.0920 N.3   158  ARG158     -0.1231
    136  CA       -23.6560  -12.1160    4.1450 C.3   158  ARG158      0.1694
    137  C        -22.1620  -11.9840    4.5020 C.2   158  ARG158      0.2592
    138  O        -21.7610  -12.3940    5.5720 O.2   158  ARG158     -0.2718
    139  CB       -24.0290  -13.5510    3.7250 C.3   158  ARG158      0.0321
    140  CG       -23.1980  -14.0820    2.5610 C.3   158  ARG158      0.0489
    141  CD       -23.4210  -15.5290    2.1240 C.3   158  ARG158      0.2205
    142  NE       -22.7090  -15.8410    0.8720 N.pl3 158  ARG158     -0.0865
    143  CZ       -23.2330  -15.7130   -0.3390 C.cat 158  ARG158      0.5346
    144  NH1      -24.5400  -15.5660   -0.4750 N.pl3 158  ARG158      0.1354
    145  NH2      -22.4570  -15.7030   -1.4050 N.pl3 158  ARG158      0.1354
    146  N        -21.3290  -11.4390    3.5940 N.am  159  ASN159     -0.1974
    147  CA       -19.8970  -11.2760    3.8220 C.3   159  ASN159      0.1688
    148  C        -19.5580   -9.8280    4.1940 C.2   159  ASN159      0.2292
    149  O        -18.4220   -9.3890    4.0790 O.2   159  ASN159     -0.2864
    150  CB       -19.1070  -11.7670    2.6070 C.3   159  ASN159      0.1181
    151  CG       -19.0070  -13.2700    2.6110 C.2   159  ASN159      0.2629
    152  OD1      -18.9530  -13.8650    3.6870 O.2   159  ASN159     -0.2716
    153  ND2      -19.0150  -13.8760    1.4370 N.am  159  ASN159     -0.0877
    154  N        -19.9980   -7.4110    7.6610 N.3   161  LEU161     -0.1245
    155  CA       -20.4120   -7.3830    9.0620 C.3   161  LEU161      0.1561
    156  C        -20.6210   -5.9280    9.5150 C.2   161  LEU161      0.2260
    157  O        -20.0670   -4.9810    8.9480 O.2   161  LEU161     -0.2867
    158  CB       -19.3610   -8.1120    9.8970 C.3   161  LEU161      0.0270
    159  CG       -19.0910   -9.5400    9.4620 C.3   161  LEU161      0.0019
    160  CD1      -18.0770  -10.2110   10.3670 C.3   161  LEU161      0.0001
    161  CD2      -20.3810  -10.3210    9.4460 C.3   161  LEU161      0.0001
    162  N        -15.8610   -8.6970    5.0970 N.3   171  ALA171     -0.1231
    163  CA       -15.2980   -9.8380    5.7120 C.3   171  ALA171      0.1694
    164  C        -14.9550  -10.8720    4.6490 C.2   171  ALA171      0.2592
    165  O        -15.4930  -10.8610    3.5560 O.2   171  ALA171     -0.2718
    166  CB       -16.2700  -10.3950    6.7150 C.3   171  ALA171      0.0304
    167  N        -14.1240  -11.8210    5.0590 N.am  172  ASP172     -0.1960
    168  CA       -13.7850  -12.9910    4.2830 C.3   172  ASP172      0.1840
    169  C        -13.0800  -12.5820    2.9780 C.2   172  ASP172      0.2622
    170  O        -13.2550  -13.2120    1.9780 O.2   172  ASP172     -0.2715
    171  CB       -15.0390  -13.8220    4.0140 C.3   172  ASP172      0.1450
    172  CG       -15.4560  -14.7570    5.1460 C.2   172  ASP172      0.3671
    173  OD1      -14.9910  -14.5590    6.2980 O.co2 172  ASP172     -0.2456
    174  OD2      -16.2670  -15.6700    4.8620 O.co2 172  ASP172     -0.2456
    175  N        -12.2950  -11.5080    3.0000 N.am  173  PHE173     -0.1960
    176  CA       -11.6940  -10.9660    1.7760 C.3   173  PHE173      0.1771
    177  C        -10.3090  -11.5630    1.4920 C.2   173  PHE173      0.2620
    178  O         -9.6710  -11.1960    0.5060 O.2   173  PHE173     -0.2715
    179  CB       -11.5180   -9.4540    1.8820 C.3   173  PHE173      0.0574
    180  CG       -10.7280   -9.0010    3.0790 C.ar  173  PHE173     -0.0200
    181  CD1       -9.3320   -8.9700    3.0580 C.ar  173  PHE173     -0.0042
    182  CD2      -11.3860   -8.5900    4.2230 C.ar  173  PHE173     -0.0042
    183  CE1       -8.6170   -8.5430    4.1690 C.ar  173  PHE173     -0.0003
    184  CE2      -10.6680   -8.1770    5.3340 C.ar  173  PHE173     -0.0003
    185  CZ        -9.2830   -8.1320    5.3010 C.ar  173  PHE173     -0.0000
    186  N         -9.8270  -12.4600    2.3530 N.am  174  GLY174     -0.1954
    187  CA        -8.4540  -12.9860    2.2030 C.3   174  GLY174      0.1869
    188  C         -8.4250  -14.4910    2.0330 C.2   174  GLY174      0.2309
    189  O         -7.3720  -15.0740    2.1330 O.2   174  GLY174     -0.2863
@<TRIPOS>BOND
     1   145   143    1
     2   144   143    1
     3   143   142    2
     4   178   177    2
     5   142   141    1
     6   153   151   am
     7   177   176    1
     8   177   186   am
     9   176   179    1
    10   176   175    1
    11   179   180    1
    12   170   169    2
    13   188   189    2
    14   188   187    1
    15   141   140    1
    16   187   186    1
    17   140   139    1
    18   150   151    1
    19   150   147    1
    20   151   152    2
    21   169   175   am
    22   169   168    1
    23   181   180   ar
    24   181   183   ar
    25   180   182   ar
    26   135   136    1
    27   165   164    2
    28   146   147    1
    29   146   137   am
    30   139   136    1
    31   147   148    1
    32   171   168    1
    33   171   172    1
    34   149   148    2
    35   136   137    1
    36   183   185   ar
    37   182   184   ar
    38   168   167    1
    39   137   138    2
    40   164   167   am
    41   164   163    1
    42   174   172   ar
    43    49    50    1
    44   162   163    1
    45   172   173   ar
    46    50    53    1
    47    50    51    1
    48   185   184   ar
    49    58    59    1
    50   163   166    1
    51    52    51    2
    52    53    54    1
    53    54    55    1
    54    59    60    1
    55    59    62    1
    56    57    55   ar
    57    55    56   ar
    58    41    42    1
    59    60    61    2
    60    63    62    1
    61    63    64    1
    62   124   123    2
    63   154   155    1
    64   126   127    1
    65    42    43    1
    66    42    45    1
    67    40    39    1
    68   123   122    1
    69   123   125   am
    70    43    44    2
    71    66    67    1
    72    64    65    1
    73   122   119    1
    74   120   119    1
    75   120   121    2
    76    69    68    2
    77   119   118    1
    78   127   128    1
    79   127   130    1
    80   157   156    2
    81   155   156    1
    82   155   158    1
    83    45    46    1
    84    67    70    1
    85    67    68    1
    86    39    38    1
    87    70    71    1
    88    70    72    1
    89    71    73    1
    90   161   159    1
    91   159   158    1
    92   159   160    1
    93   128   129    2
    94   131   130    1
    95   131   132    1
    96    47    46    1
    97    38    37    1
    98   118   116   am
    99    46    48    1
   100   132   134   ar
   101   132   133   ar
   102   117   116    2
   103   116   115    1
   104    37    36    1
   105    79    78    1
   106    95    94   ar
   107    86    85    1
   108    80    78    1
   109   115   114    1
   110    36    33    1
   111    19    17    1
   112    78    75    1
   113    85    87    1
   114    85    82    1
   115    94    96   ar
   116    94    93    1
   117   113   110    1
   118    11    12    2
   119    11    10    1
   120    92    93    1
   121    92    89    1
   122    10     9    1
   123    33    34    1
   124    33    32    1
   125    91    90    2
   126    17    18    1
   127    17    14    1
   128    82    83    1
   129    82    81    1
   130    88    89    1
   131    88    83   am
   132    75    76    1
   133    75    74    1
   134    34    35    2
   135    13    14    1
   136   110   109    1
   137   110   111    1
   138    89    90    1
   139    77    76    2
   140    83    84    2
   141   112   111    2
   142    90    97   am
   143    32    27   am
   144     4     3    2
   145     9     3   am
   146    14    15    1
   147   109    99   am
   148     3     2    1
   149    99   100    2
   150    99    98    1
   151    24    21    1
   152    97    98    1
   153    27    28    2
   154    27    26    1
   155    98   101    1
   156     5     2    1
   157     5     6    1
   158    15    16    2
   159    23    22    2
   160     2     1    1
   161    22    25   am
   162    22    21    1
   163    26    25    1
   164    26    29    1
   165    21    20    1
   166     7     6    1
   167     6     8    1
   168   101   102    1
   169   103   102   ar
   170   103   105   ar
   171    30    29    1
   172    29    31    1
   173   102   104   ar
   174   105   107   ar
   175   104   106   ar
   176   107   106   ar
   177   107   108    1
