@<TRIPOS>MOLECULE
tmp/6mzwB00.pdb
 114 106 0 0 0
SMALL
GASTEIGER

@<TRIPOS>ATOM
      1  N        -48.1580   36.6620   39.4710 N.3    22  LEU22      -0.1231
      2  CA       -48.6440   37.5100   38.3770 C.3    22  LEU22       0.1693
      3  C        -49.5690   36.6950   37.4540 C.2    22  LEU22       0.2592
      4  O        -50.3030   37.2770   36.6470 O.2    22  LEU22      -0.2718
      5  CB       -47.4430   38.0930   37.6210 C.3    22  LEU22       0.0284
      6  CG       -46.6270   39.1550   38.3570 C.3    22  LEU22       0.0019
      7  CD1      -45.4160   39.4980   37.5220 C.3    22  LEU22       0.0001
      8  CD2      -47.4250   40.4080   38.6100 C.3    22  LEU22       0.0001
      9  N        -49.5380   35.3590   37.5910 N.am   23  GLY23      -0.1957
     10  CA       -50.4290   34.4400   36.8750 C.3    23  GLY23       0.1869
     11  C        -51.8980   34.7220   37.1590 C.2    23  GLY23       0.2309
     12  O        -52.6530   35.1540   36.2770 O.2    23  GLY23      -0.2863
     13  N        -44.6180   29.0770   36.5470 N.3    24  GLN24      -0.1231
     14  CA       -45.3140   30.1890   37.1940 C.3    24  GLN24       0.1698
     15  C        -44.4090   31.4260   37.2940 C.2    24  GLN24       0.2592
     16  O        -43.1790   31.3370   37.3260 O.2    24  GLN24      -0.2718
     17  CB       -45.7880   29.7900   38.5940 C.3    24  GLN24       0.0381
     18  CG       -44.7070   29.1360   39.4430 C.3    24  GLN24       0.0905
     19  CD       -45.0100   29.1480   40.9240 C.2    24  GLN24       0.2608
     20  OE1      -44.2640   28.5850   41.7330 O.2    24  GLN24      -0.2717
     21  NE2      -46.1030   29.8000   41.2950 N.am   24  GLN24      -0.0878
     22  N        -45.0590   32.5850   37.3860 N.am   25  VAL25      -0.1980
     23  CA       -44.4100   33.8880   37.3140 C.3    25  VAL25       0.1595
     24  C        -44.8640   34.7200   38.5140 C.2    25  VAL25       0.2287
     25  O        -46.0620   34.8390   38.7430 O.2    25  VAL25      -0.2864
     26  CB       -44.7450   34.6180   36.0020 C.3    25  VAL25       0.0276
     27  CG1      -43.9850   35.9260   35.8800 C.3    25  VAL25       0.0022
     28  CG2      -44.4920   33.7410   34.7860 C.3    25  VAL25       0.0022
     29  N        -40.1430   40.6160   37.5000 N.3    43  ALA43      -0.1245
     30  CA       -40.9400   39.4250   37.3290 C.3    43  ALA43       0.1562
     31  C        -39.9980   38.2290   37.3720 C.2    43  ALA43       0.2260
     32  O        -38.9370   38.2880   36.7710 O.2    43  ALA43      -0.2867
     33  CB       -41.6690   39.4810   36.0150 C.3    43  ALA43       0.0290
     34  N        -39.1440   41.7790   26.3920 N.3    76  ILE76      -0.1245
     35  CA       -38.9360   41.5390   27.8130 C.3    76  ILE76       0.1561
     36  C        -37.5010   41.0210   27.9790 C.2    76  ILE76       0.2260
     37  O        -37.2090   39.9480   27.5110 O.2    76  ILE76      -0.2867
     38  CB       -39.9680   40.5410   28.3880 C.3    76  ILE76       0.0252
     39  CG1      -41.4090   41.0550   28.3160 C.3    76  ILE76       0.0019
     40  CG2      -39.6030   40.1520   29.8150 C.3    76  ILE76       0.0019
     41  CD1      -41.7310   42.1610   29.3030 C.3    76  ILE76       0.0001
     42  N        -36.8610   38.7820   34.9480 N.3    92  VAL92      -0.1231
     43  CA       -37.0840   39.5610   33.7300 C.3    92  VAL92       0.1692
     44  C        -37.7960   40.8730   34.0730 C.2    92  VAL92       0.2592
     45  O        -38.2720   41.0740   35.1920 O.2    92  VAL92      -0.2718
     46  CB       -37.8910   38.7310   32.7210 C.3    92  VAL92       0.0266
     47  CG1      -37.1850   37.4170   32.4040 C.3    92  VAL92       0.0020
     48  CG2      -39.3180   38.4910   33.2040 C.3    92  VAL92       0.0020
     49  N        -37.8630   41.7660   33.0870 N.am   93  GLU93      -0.1966
     50  CA       -38.4440   43.0890   33.2700 C.3    93  GLU93       0.1733
     51  C        -39.9420   42.9540   33.5640 C.2    93  GLU93       0.2616
     52  O        -40.6300   42.1520   32.9280 O.2    93  GLU93      -0.2715
     53  CB       -38.2140   43.9350   32.0200 C.3    93  GLU93       0.0429
     54  CG       -36.7570   44.2680   31.7650 C.3    93  GLU93       0.1163
     55  CD       -36.5390   45.1000   30.5110 C.2    93  GLU93       0.3649
     56  OE1      -37.0680   44.7240   29.4640 O.co2  93  GLU93      -0.2457
     57  OE2      -35.8590   46.1350   30.5890 O.co2  93  GLU93      -0.2457
     58  N        -40.4220   43.7500   34.5300 N.am   94  TYR94      -0.1960
     59  CA       -41.8370   43.7890   34.9750 C.3    94  TYR94       0.1771
     60  C        -42.6390   44.7280   34.0700 C.2    94  TYR94       0.2619
     61  O        -42.2050   45.8500   33.8250 O.2    94  TYR94      -0.2715
     62  CB       -41.9150   44.3110   36.4110 C.3    94  TYR94       0.0574
     63  CG       -43.3000   44.5150   36.9730 C.ar   94  TYR94      -0.0198
     64  CD1      -44.2380   43.4930   36.9590 C.ar   94  TYR94      -0.0009
     65  CD2      -43.6590   45.7170   37.5640 C.ar   94  TYR94      -0.0009
     66  CE1      -45.5040   43.6630   37.5020 C.ar   94  TYR94       0.0417
     67  CE2      -44.9180   45.9040   38.1130 C.ar   94  TYR94       0.0417
     68  CZ       -45.8410   44.8720   38.0870 C.ar   94  TYR94       0.1957
     69  OH       -47.0840   45.0460   38.6220 O.3    94  TYR94      -0.2866
     70  N        -43.7960   44.2590   33.5890 N.am   95  ALA95      -0.1977
     71  CA       -44.7050   45.0540   32.7610 C.3    95  ALA95       0.1597
     72  C        -45.9810   45.3480   33.5540 C.2    95  ALA95       0.2287
     73  O        -46.8520   44.4860   33.6700 O.2    95  ALA95      -0.2864
     74  CB       -45.0090   44.3080   31.4940 C.3    95  ALA95       0.0319
     75  N        -49.9390   45.0730   32.2660 N.3    98  GLY98      -0.1210
     76  CA       -50.4100   43.7910   31.7470 C.3    98  GLY98       0.1956
     77  C        -50.1570   43.6430   30.2540 C.2    98  GLY98       0.2611
     78  O        -49.3460   44.3830   29.6600 O.2    98  GLY98      -0.2717
     79  N        -50.8710   42.6830   29.6460 N.am   99  ASN99      -0.1974
     80  CA       -50.6970   42.3400   28.2440 C.3    99  ASN99       0.1688
     81  C        -51.4820   43.3470   27.3930 C.2    99  ASN99       0.2292
     82  O        -52.3830   44.0130   27.8920 O.2    99  ASN99      -0.2864
     83  CB       -51.0270   40.8680   27.9870 C.3    99  ASN99       0.1181
     84  CG       -52.4670   40.4950   28.2460 C.2    99  ASN99       0.2629
     85  OD1      -53.3770   41.2910   28.0240 O.2    99  ASN99      -0.2716
     86  ND2      -52.6830   39.2690   28.6780 N.am   99  ASN99      -0.0877
     87  N        -55.4960   43.2740   27.0810 N.3   102  GLU102     -0.1245
     88  CA       -56.1680   43.8260   28.2750 C.3   102  GLU102      0.1567
     89  C        -55.9390   45.3410   28.3770 C.2   102  GLU102      0.2260
     90  O        -56.8330   46.0700   28.7590 O.2   102  GLU102     -0.2867
     91  CB       -55.6670   43.1400   29.5430 C.3   102  GLU102      0.0388
     92  CG       -55.9830   41.6560   29.6080 C.3   102  GLU102      0.1160
     93  CD       -55.0850   40.8770   30.5590 C.2   102  GLU102      0.3649
     94  OE1      -54.0330   41.4300   30.9690 O.co2 102  GLU102     -0.2457
     95  OE2      -55.4310   39.7150   30.8900 O.co2 102  GLU102     -0.2457
     96  N        -51.9120   39.1340   23.2850 N.3   143  ARG143     -0.1245
     97  CA       -51.7110   38.2910   24.4940 C.3   143  ARG143      0.1563
     98  C        -50.2230   38.2470   24.8910 C.2   143  ARG143      0.2260
     99  O        -49.9030   38.2420   26.0630 O.2   143  ARG143     -0.2867
    100  CB       -52.2350   36.8670   24.2490 C.3   143  ARG143      0.0307
    101  CG       -53.7090   36.6900   24.6200 C.3   143  ARG143      0.0489
    102  CD       -54.0650   35.2340   24.3300 C.3   143  ARG143      0.2205
    103  NE       -53.4290   35.0220   23.0290 N.pl3 143  ARG143     -0.0865
    104  CZ       -53.4360   33.9540   22.2380 C.cat 143  ARG143      0.5346
    105  NH1      -54.0670   32.8380   22.5780 N.pl3 143  ARG143      0.1354
    106  NH2      -52.7790   34.0000   21.0680 N.pl3 143  ARG143      0.1354
    107  N        -46.5150   42.8050   26.2440 N.3   146  LEU146     -0.1245
    108  CA       -46.7630   43.3570   27.5670 C.3   146  LEU146      0.1561
    109  C        -46.4060   44.8480   27.5780 C.2   146  LEU146      0.2260
    110  O        -45.5910   45.3080   26.7620 O.2   146  LEU146     -0.2867
    111  CB       -45.9360   42.5900   28.6040 C.3   146  LEU146      0.0270
    112  CG       -46.0800   41.0690   28.5910 C.3   146  LEU146      0.0019
    113  CD1      -45.4010   40.4500   29.8030 C.3   146  LEU146      0.0001
    114  CD2      -47.5430   40.6560   28.5520 C.3   146  LEU146      0.0001
@<TRIPOS>BOND
     1   106   104    1
     2   104   105    1
     3   104   103    2
     4   103   102    1
     5    96    97    1
     6   100    97    1
     7   100   101    1
     8   102   101    1
     9    97    98    1
    10    98    99    2
    11   107   108    1
    12    34    35    1
    13   110   109    2
    14    87    88    1
    15    81    82    2
    16    81    80    1
    17    37    36    2
    18   108   109    1
    19   108   111    1
    20    35    36    1
    21    35    38    1
    22    83    80    1
    23    83    84    1
    24    85    84    2
    25    80    79    1
    26    84    86   am
    27    88    89    1
    28    88    91    1
    29    39    38    1
    30    39    41    1
    31    89    90    2
    32    38    40    1
    33   114   112    1
    34   112   111    1
    35   112   113    1
    36    56    55   ar
    37    91    92    1
    38    92    93    1
    39    79    77   am
    40    78    77    2
    41    77    76    1
    42    55    57   ar
    43    55    54    1
    44    93    95   ar
    45    93    94   ar
    46    74    71    1
    47    76    75    1
    48    54    53    1
    49    53    50    1
    50    47    46    1
    51    46    48    1
    52    46    43    1
    53    71    72    1
    54    71    70    1
    55    52    51    2
    56    49    50    1
    57    49    44   am
    58    50    51    1
    59    72    73    2
    60    51    58   am
    61    70    60   am
    62    43    44    1
    63    43    42    1
    64    61    60    2
    65    60    59    1
    66    44    45    2
    67    58    59    1
    68    28    26    1
    69    59    62    1
    70    27    26    1
    71    26    23    1
    72    33    30    1
    73    12    11    2
    74    62    63    1
    75    13    14    1
    76     4     3    2
    77    32    31    2
    78    10    11    1
    79    10     9    1
    80    64    63   ar
    81    64    66   ar
    82    63    65   ar
    83    14    15    1
    84    14    17    1
    85    15    16    2
    86    15    22   am
    87    23    22    1
    88    23    24    1
    89    30    31    1
    90    30    29    1
    91     3     9   am
    92     3     2    1
    93    66    68   ar
    94     7     6    1
    95    65    67   ar
    96     5     6    1
    97     5     2    1
    98    68    67   ar
    99    68    69    1
   100     6     8    1
   101     2     1    1
   102    24    25    2
   103    17    18    1
   104    18    19    1
   105    19    21   am
   106    19    20    2
