@<TRIPOS>MOLECULE
tmp/6n0tA00.pdb
 182 170 0 0 0
SMALL
GASTEIGER

@<TRIPOS>ATOM
      1  N          2.1750   50.6510   17.3510 N.3    68  ASP68      -0.1239
      2  CA         3.6020   50.3720   17.5050 C.3    68  ASP68       0.1674
      3  C          4.0440   49.1280   16.7360 C.2    68  ASP68       0.2266
      4  O          5.2310   48.9890   16.4250 O.2    68  ASP68      -0.2867
      5  CB         3.9370   50.2230   18.9870 C.3    68  ASP68       0.1410
      6  CG         3.3580   51.3490   19.8220 C.2    68  ASP68       0.3668
      7  OD1        2.1780   51.7010   19.5910 O.co2  68  ASP68      -0.2456
      8  OD2        4.0670   51.8660   20.7070 O.co2  68  ASP68      -0.2456
      9  N          6.8170   58.9240   13.6060 N.3    81  ARG81      -0.1245
     10  CA         5.9560   58.7860   14.7760 C.3    81  ARG81       0.1563
     11  C          5.4700   60.1940   15.0910 C.2    81  ARG81       0.2260
     12  O          6.1940   60.9980   15.6870 O.2    81  ARG81      -0.2867
     13  CB         6.7030   58.1450   15.9480 C.3    81  ARG81       0.0307
     14  CG         5.8830   57.9500   17.2340 C.3    81  ARG81       0.0489
     15  CD         4.9760   56.7330   17.1570 C.3    81  ARG81       0.2205
     16  NE         4.1140   56.5780   18.3340 N.pl3  81  ARG81      -0.0865
     17  CZ         3.2710   55.5650   18.5170 C.cat  81  ARG81       0.5346
     18  NH1        3.1750   54.6090   17.5990 N.pl3  81  ARG81       0.1354
     19  NH2        2.5190   55.5090   19.6140 N.pl3  81  ARG81       0.1354
     20  N          9.8840   62.2570   14.9330 N.3   100  TYR100     -0.1241
     21  CA        10.9680   61.3230   14.7040 C.3   100  TYR100      0.1605
     22  C         10.4140   60.0270   14.1350 C.2   100  TYR100      0.2264
     23  O          9.2230   59.7200   14.2670 O.2   100  TYR100     -0.2867
     24  CB        11.7060   60.9910   15.9890 C.3   100  TYR100      0.0534
     25  CG        12.1870   62.1530   16.8110 C.ar  100  TYR100     -0.0201
     26  CD1       13.0100   63.1290   16.2650 C.ar  100  TYR100     -0.0009
     27  CD2       11.8690   62.2320   18.1730 C.ar  100  TYR100     -0.0009
     28  CE1       13.4780   64.1830   17.0430 C.ar  100  TYR100      0.0417
     29  CE2       12.3360   63.2670   18.9550 C.ar  100  TYR100      0.0417
     30  CZ        13.1320   64.2490   18.3900 C.ar  100  TYR100      0.1957
     31  OH        13.5790   65.2800   19.1870 O.3   100  TYR100     -0.2866
     32  N          9.7440   56.2710   14.5880 N.3   102  LYS102     -0.1231
     33  CA         9.6120   55.4350   15.7740 C.3   102  LYS102      0.1693
     34  C         10.9560   54.7870   16.0830 C.2   102  LYS102      0.2592
     35  O         11.5300   54.0840   15.2430 O.2   102  LYS102     -0.2718
     36  CB         8.5270   54.3710   15.5710 C.3   102  LYS102      0.0285
     37  CG         8.2750   53.4830   16.7880 C.3   102  LYS102      0.0035
     38  CD         7.1460   54.0440   17.6640 C.3   102  LYS102      0.0206
     39  CE         7.0100   53.3000   18.9870 C.3   102  LYS102      0.1093
     40  NZ         8.3350   53.1900   19.6570 N.3   102  LYS102     -0.1314
     41  N         11.4930   55.0730   17.2620 N.am  103  PHE103     -0.1976
     42  CA        12.7350   54.4460   17.6770 C.3   103  PHE103      0.1639
     43  C         12.4670   53.5830   18.9000 C.2   103  PHE103      0.2290
     44  O         11.3980   53.6450   19.5140 O.2   103  PHE103     -0.2864
     45  CB        13.8480   55.4840   17.9200 C.3   103  PHE103      0.0560
     46  CG        13.5310   56.5340   18.9670 C.ar  103  PHE103     -0.0200
     47  CD1       12.9390   57.7370   18.6040 C.ar  103  PHE103     -0.0042
     48  CD2       13.8890   56.3460   20.3020 C.ar  103  PHE103     -0.0042
     49  CE1       12.6650   58.7160   19.5500 C.ar  103  PHE103     -0.0003
     50  CE2       13.6180   57.3330   21.2550 C.ar  103  PHE103     -0.0003
     51  CZ        12.9980   58.5160   20.8750 C.ar  103  PHE103     -0.0000
     52  N         21.6550   62.2900   23.9860 N.3   128  THR128     -0.1203
     53  CA        20.7650   63.3730   24.3850 C.3   128  THR128      0.1994
     54  C         19.9340   62.9020   25.5670 C.2   128  THR128      0.2618
     55  O         19.2530   61.8730   25.4780 O.2   128  THR128     -0.2717
     56  CB        19.8720   63.8410   23.2270 C.3   128  THR128      0.1784
     57  OG1       18.9150   62.8280   22.8840 O.3   128  THR128     -0.2211
     58  CG2       20.7210   64.1570   22.0260 C.3   128  THR128      0.0376
     59  N         20.0380   63.6390   26.6800 N.am  129  LEU129     -0.1965
     60  CA        19.2210   63.4230   27.8620 C.3   129  LEU129      0.1728
     61  C         17.7640   63.2070   27.4800 C.2   129  LEU129      0.2619
     62  O         17.2320   63.9080   26.6220 O.2   129  LEU129     -0.2715
     63  CB        19.3400   64.6380   28.7870 C.3   129  LEU129      0.0311
     64  CG        20.6150   64.8070   29.6240 C.3   129  LEU129      0.0022
     65  CD1       20.6840   66.1940   30.2710 C.3   129  LEU129      0.0001
     66  CD2       20.7300   63.7040   30.6800 C.3   129  LEU129      0.0001
     67  N         17.1070   62.2340   28.1220 N.am  130  MET130     -0.1917
     68  CA        15.6990   61.9400   27.8490 C.3   130  MET130      0.1952
     69  C         14.8670   62.6280   28.9340 C.2   130  MET130      0.2658
     70  O         14.7490   62.1320   30.0580 O.2   130  MET130     -0.2711
     71  CB        15.4670   60.4260   27.7670 C.2   130  MET130      0.0110
     72  CG        14.0140   59.9640   27.9320 C.2   130  MET130      0.0285
     73  SD        13.6410   58.2850   27.3600 S.3   130  MET130     -0.1125
     74  CE        14.6130   57.3370   28.5430 C.3   130  MET130      0.0742
     75  N         14.3000   63.7880   28.6060 N.am  131  GLU131     -0.1974
     76  CA        13.4270   64.4750   29.5550 C.3   131  GLU131      0.1602
     77  C         12.0810   63.7620   29.6390 C.2   131  GLU131      0.2287
     78  O         11.5850   63.2050   28.6550 O.2   131  GLU131     -0.2864
     79  CB        13.2130   65.9480   29.1740 C.3   131  GLU131      0.0415
     80  CG        14.4840   66.7270   28.8550 C.3   131  GLU131      0.1163
     81  CD        15.3990   66.9020   30.0580 C.2   131  GLU131      0.3649
     82  OE1       14.9000   66.9970   31.2050 O.co2 131  GLU131     -0.2457
     83  OE2       16.6330   66.9330   29.8480 O.co2 131  GLU131     -0.2457
     84  N          5.5840   64.7520   24.4320 N.3   135  ILE135     -0.1245
     85  CA         6.1750   65.3360   23.2320 C.3   135  ILE135      0.1561
     86  C          5.2920   66.4720   22.7310 C.2   135  ILE135      0.2260
     87  O          4.0630   66.4670   22.9080 O.2   135  ILE135     -0.2867
     88  CB         6.4060   64.2650   22.1430 C.3   135  ILE135      0.0252
     89  CG1        7.5770   64.6560   21.2420 C.3   135  ILE135      0.0019
     90  CG2        5.1470   64.0060   21.3280 C.3   135  ILE135      0.0019
     91  CD1        8.1430   63.4920   20.4310 C.3   135  ILE135      0.0001
     92  N          1.3660   64.4730   20.3310 N.3   151  LYS151     -0.1245
     93  CA         1.8450   63.3990   19.4680 C.3   151  LYS151      0.1561
     94  C          0.8460   63.0580   18.3760 C.2   151  LYS151      0.2260
     95  O          1.2460   62.6160   17.2910 O.2   151  LYS151     -0.2867
     96  CB         2.1550   62.1470   20.2880 C.3   151  LYS151      0.0271
     97  CG         3.0280   61.1310   19.5620 C.3   151  LYS151      0.0035
     98  CD         3.0120   59.7750   20.2620 C.3   151  LYS151      0.0206
     99  CE         4.0990   59.6680   21.3280 C.3   151  LYS151      0.1093
    100  NZ         3.6590   58.7860   22.4690 N.3   151  LYS151     -0.1314
    101  N          9.9430   68.5450   24.5760 N.3   195  GLU195     -0.1245
    102  CA         9.3020   67.8560   25.6910 C.3   195  GLU195      0.1567
    103  C          8.7180   68.9070   26.6150 C.2   195  GLU195      0.2260
    104  O          9.4380   69.7920   27.0950 O.2   195  GLU195     -0.2867
    105  CB        10.2760   66.9540   26.4460 C.3   195  GLU195      0.0388
    106  CG         9.5870   65.8390   27.2020 C.3   195  GLU195      0.1160
    107  CD         9.3100   64.6210   26.3460 C.2   195  GLU195      0.3649
    108  OE1        8.9000   63.5830   26.9170 O.co2 195  GLU195     -0.2457
    109  OE2        9.4980   64.7040   25.1100 O.co2 195  GLU195     -0.2457
    110  N         14.3940   69.1010   21.9840 N.3   218  HIS218     -0.1241
    111  CA        15.3850   68.0690   21.7170 C.3   218  HIS218      0.1621
    112  C         15.4620   67.6380   20.2520 C.2   218  HIS218      0.2264
    113  O         16.2420   66.7310   19.9330 O.2   218  HIS218     -0.2867
    114  CB        15.1680   66.8420   22.6280 C.3   218  HIS218      0.0745
    115  CG        13.7530   66.3520   22.6970 C.ar  218  HIS218      0.0817
    116  ND1       13.1410   65.6960   21.6510 N.ar  218  HIS218     -0.2268
    117  CD2       12.8520   66.3630   23.7120 C.ar  218  HIS218      0.1154
    118  CE1       11.9180   65.3460   22.0090 C.ar  218  HIS218      0.1986
    119  NE2       11.7150   65.7420   23.2530 N.ar  218  HIS218     -0.2212
    120  N         18.2620   70.5730   25.7100 N.3   247  THR247     -0.1218
    121  CA        18.3960   69.1820   26.1140 C.3   247  THR247      0.1862
    122  C         19.8790   68.8450   26.1600 C.2   247  THR247      0.2287
    123  O         20.6140   69.1070   25.1950 O.2   247  THR247     -0.2866
    124  CB        17.6330   68.2740   25.1450 C.3   247  THR247      0.1770
    125  OG1       16.2380   68.6130   25.1980 O.3   247  THR247     -0.2211
    126  CG2       17.8050   66.7990   25.4900 C.3   247  THR247      0.0375
    127  N         15.9260   60.0490   33.3800 N.3   277  GLU277     -0.1245
    128  CA        15.0640   58.9550   32.9360 C.3   277  GLU277      0.1567
    129  C         15.7980   58.0330   31.9680 C.2   277  GLU277      0.2260
    130  O         15.6190   56.8090   32.0060 O.2   277  GLU277     -0.2867
    131  CB        13.7940   59.5070   32.2880 C.3   277  GLU277      0.0388
    132  CG        12.8790   58.4330   31.6750 C.3   277  GLU277      0.1160
    133  CD        11.7290   58.9930   30.8320 C.2   277  GLU277      0.3649
    134  OE1       11.8220   60.1670   30.3920 O.co2 277  GLU277     -0.2457
    135  OE2       10.7410   58.2580   30.6040 O.co2 277  GLU277     -0.2457
    136  N         18.5380   59.1690   24.7360 N.3   280  VAL280     -0.1245
    137  CA        18.2090   58.8340   23.3600 C.3   280  VAL280      0.1561
    138  C         19.4790   59.0290   22.5390 C.2   280  VAL280      0.2260
    139  O         20.0750   60.1140   22.5520 O.2   280  VAL280     -0.2867
    140  CB        17.0460   59.6980   22.8450 C.3   280  VAL280      0.0252
    141  CG1       16.7860   59.4450   21.3720 C.3   280  VAL280      0.0019
    142  CG2       15.7910   59.4540   23.6580 C.3   280  VAL280      0.0019
    143  N         21.7610   59.0330   19.0600 N.3   282  ARG282     -0.1245
    144  CA        21.5340   59.4930   17.6940 C.3   282  ARG282      0.1563
    145  C         22.7830   59.2440   16.8540 C.2   282  ARG282      0.2260
    146  O         23.8880   59.6510   17.2370 O.2   282  ARG282     -0.2867
    147  CB        21.1880   60.9750   17.6850 C.3   282  ARG282      0.0307
    148  CG        20.2420   61.3870   18.7930 C.3   282  ARG282      0.0489
    149  CD        19.6740   62.7560   18.5430 C.3   282  ARG282      0.2205
    150  NE        18.5890   63.0290   19.4610 N.pl3 282  ARG282     -0.0865
    151  CZ        17.6670   63.9560   19.2520 C.cat 282  ARG282      0.5346
    152  NH1       17.6880   64.6970   18.1310 N.pl3 282  ARG282      0.1354
    153  NH2       16.7080   64.1200   20.1540 N.pl3 282  ARG282      0.1354
    154  N         17.9150   56.5160   15.5780 N.3   298  PHE298     -0.1241
    155  CA        17.9010   56.6800   17.0220 C.3   298  PHE298      0.1605
    156  C         17.8070   55.3150   17.6820 C.2   298  PHE298      0.2264
    157  O         17.2820   54.3580   17.1050 O.2   298  PHE298     -0.2867
    158  CB        16.7010   57.5180   17.5070 C.3   298  PHE298      0.0534
    159  CG        16.7770   58.9950   17.1990 C.ar  298  PHE298     -0.0203
    160  CD1       15.8850   59.8720   17.8070 C.ar  298  PHE298     -0.0042
    161  CD2       17.6900   59.5120   16.2910 C.ar  298  PHE298     -0.0042
    162  CE1       15.9140   61.2430   17.5310 C.ar  298  PHE298     -0.0003
    163  CE2       17.7210   60.8740   16.0170 C.ar  298  PHE298     -0.0003
    164  CZ        16.8330   61.7420   16.6560 C.ar  298  PHE298     -0.0000
    165  N         16.9150   54.1430   22.0350 N.3   300  LYS300     -0.1245
    166  CA        16.5640   54.5470   23.3860 C.3   300  LYS300      0.1561
    167  C         17.4020   53.7540   24.3770 C.2   300  LYS300      0.2260
    168  O         17.7730   52.6060   24.1150 O.2   300  LYS300     -0.2867
    169  CB        15.0710   54.2890   23.6100 C.3   300  LYS300      0.0271
    170  CG        14.4430   54.8570   24.8490 C.3   300  LYS300      0.0035
    171  CD        13.0380   55.3650   24.5250 C.3   300  LYS300      0.0206
    172  CE        12.1180   54.2690   24.0260 C.3   300  LYS300      0.1093
    173  NZ        11.4240   53.5820   25.1300 N.3   300  LYS300     -0.1314
    174  N         16.5160   53.4880   28.2030 N.3   302  LYS302     -0.1245
    175  CA        15.6030   53.9010   29.2660 C.3   302  LYS302      0.1561
    176  C         15.9910   53.1640   30.5510 C.2   302  LYS302      0.2260
    177  O         15.8520   51.9400   30.6330 O.2   302  LYS302     -0.2867
    178  CB        14.1600   53.6160   28.8380 C.3   302  LYS302      0.0271
    179  CG        13.0830   54.4440   29.5400 C.3   302  LYS302      0.0035
    180  CD        11.6860   54.1880   28.9800 C.3   302  LYS302      0.0206
    181  CE        10.6510   55.0310   29.7250 C.3   302  LYS302      0.1093
    182  NZ         9.2330   54.8370   29.2670 N.3   302  LYS302     -0.1314
@<TRIPOS>BOND
     1     9    10    1
     2    22    23    2
     3    22    21    1
     4    32    33    1
     5    21    20    1
     6    21    24    1
     7    10    11    1
     8    10    13    1
     9    11    12    2
    10    35    34    2
    11    36    33    1
    12    36    37    1
    13   154   155    1
    14    33    34    1
    15    13    14    1
    16    24    25    1
    17   163   161   ar
    18   163   164   ar
    19    34    41   am
    20    26    25   ar
    21    26    28   ar
    22   161   159   ar
    23     4     3    2
    24   164   162   ar
    25     3     2    1
    26    37    38    1
    27    25    27   ar
    28   145   146    2
    29   145   144    1
    30   155   158    1
    31   155   156    1
    32    28    30   ar
    33   157   156    2
    34    15    14    1
    35    15    16    1
    36   159   158    1
    37   159   160   ar
    38    41    42    1
    39    95    94    2
    40     1     2    1
    41     2     5    1
    42   162   160   ar
    43    18    17    1
    44    38    39    1
    45    42    45    1
    46    42    43    1
    47   147   144    1
    48   147   148    1
    49   144   143    1
    50    45    46    1
    51   152   151    1
    52    27    29   ar
    53    16    17    2
    54    94    93    1
    55    30    29   ar
    56    30    31    1
    57    17    19    1
    58   149   148    1
    59   149   150    1
    60    47    46   ar
    61    47    49   ar
    62    43    44    2
    63    46    48   ar
    64    39    40    1
    65     5     6    1
    66   151   150    2
    67   151   153    1
    68    93    96    1
    69    93    92    1
    70    49    51   ar
    71    97    98    1
    72    97    96    1
    73     7     6   ar
    74     6     8   ar
    75   113   112    2
    76   112   111    1
    77    98    99    1
    78    48    50   ar
    79    91    89    1
    80    51    50   ar
    81    89    88    1
    82    99   100    1
    83    90    88    1
    84   141   140    1
    85   116   118   ar
    86   116   115   ar
    87   111   110    1
    88   111   114    1
    89   118   119   ar
    90    58    56    1
    91   165   166    1
    92    88    85    1
    93   138   139    2
    94   138   137    1
    95   114   115    1
    96   115   117   ar
    97    86    87    2
    98    86    85    1
    99   140   137    1
   100   140   142    1
   101    57    56    1
   102    56    53    1
   103    85    84    1
   104   119   117   ar
   105   137   136    1
   106   166   169    1
   107   166   167    1
   108   169   170    1
   109    52    53    1
   110   172   171    1
   111   172   173    1
   112   168   167    2
   113    53    54    1
   114   171   170    1
   115   101   102    1
   116   109   107   ar
   117   124   125    1
   118   124   126    1
   119   124   121    1
   120   123   122    2
   121    55    54    2
   122    54    59   am
   123   102   105    1
   124   102   103    1
   125   120   121    1
   126   121   122    1
   127   107   108   ar
   128   107   106    1
   129   105   106    1
   130   103   104    2
   131    62    61    2
   132    59    60    1
   133    73    72    1
   134    73    74    1
   135    61    60    1
   136    61    67   am
   137    71    68    1
   138    71    72    2
   139    68    67    1
   140    68    69    1
   141    60    63    1
   142   174   175    1
   143    75    69   am
   144    75    76    1
   145    78    77    2
   146    63    64    1
   147   178   175    1
   148   178   179    1
   149    80    79    1
   150    80    81    1
   151    69    70    2
   152   180   179    1
   153   180   181    1
   154    79    76    1
   155   175   176    1
   156   182   181    1
   157    76    77    1
   158    64    65    1
   159    64    66    1
   160    83    81   ar
   161    81    82   ar
   162   134   133   ar
   163   176   177    2
   164   135   133   ar
   165   133   132    1
   166   132   131    1
   167   129   130    2
   168   129   128    1
   169   131   128    1
   170   128   127    1
