@<TRIPOS>MOLECULE
tmp/6n1sA03.pdb
 185 181 0 0 0
SMALL
GASTEIGER

@<TRIPOS>ATOM
      1  N         23.7600   96.4490  -75.0830 N.3     6  VAL6       -0.1231
      2  CA        24.8480   95.8770  -74.2580 C.3     6  VAL6        0.1692
      3  C         25.5460   97.0120  -73.5140 C.2     6  VAL6        0.2592
      4  O         25.9940   97.9760  -74.1420 O.2     6  VAL6       -0.2718
      5  CB        25.8630   95.1180  -75.1340 C.3     6  VAL6        0.0266
      6  CG1       26.9860   94.5140  -74.3000 C.3     6  VAL6        0.0020
      7  CG2       25.1910   94.0540  -75.9860 C.3     6  VAL6        0.0020
      8  N         25.6580   96.8740  -72.2030 N.am    7  VAL7       -0.1966
      9  CA        26.0950   98.0060  -71.3470 C.3     7  VAL7        0.1727
     10  C         26.6460   97.5370  -70.0220 C.2     7  VAL7        0.2616
     11  O         26.2150   96.5220  -69.4820 O.2     7  VAL7       -0.2715
     12  CB        24.9480   99.0170  -71.1650 C.3     7  VAL7        0.0290
     13  CG1       23.8080   98.4380  -70.3500 C.3     7  VAL7        0.0023
     14  CG2       25.4350  100.3310  -70.5760 C.3     7  VAL7        0.0023
     15  N         27.5870   98.3000  -69.5020 N.am    8  ALA8       -0.1977
     16  CA        28.0620   98.1370  -68.1290 C.3     8  ALA8        0.1597
     17  C         27.7910   99.4320  -67.3800 C.2     8  ALA8        0.2287
     18  O         27.9160  100.5250  -67.9620 O.2     8  ALA8       -0.2864
     19  CB        29.5290   97.7920  -68.1250 C.3     8  ALA8        0.0319
     20  N         35.8290  105.3360  -69.6260 N.3    21  LEU21      -0.1245
     21  CA        35.1070  104.4680  -68.6780 C.3    21  LEU21       0.1561
     22  C         35.4210  104.9190  -67.2710 C.2    21  LEU21       0.2260
     23  O         36.4970  105.4350  -66.9930 O.2    21  LEU21      -0.2867
     24  CB        35.5210  103.0120  -68.9030 C.3    21  LEU21       0.0270
     25  CG        35.1310  102.4300  -70.2610 C.3    21  LEU21       0.0019
     26  CD1       35.7390  101.0510  -70.4650 C.3    21  LEU21       0.0001
     27  CD2       33.6190  102.3750  -70.4190 C.3    21  LEU21       0.0001
     28  N         35.7760  103.1160  -64.4640 N.3    23  TRP23      -0.1241
     29  CA        36.4380  102.0910  -63.6180 C.3    23  TRP23       0.1605
     30  C         37.7410  101.6420  -64.2630 C.2    23  TRP23       0.2264
     31  O         37.9400  101.8340  -65.4620 O.2    23  TRP23      -0.2867
     32  CB        35.5120  100.8860  -63.4020 C.3    23  TRP23       0.0550
     33  CG        34.7930  100.4620  -64.6460 C.ar   23  TRP23       0.0003
     34  CD1       35.3020   99.7840  -65.7140 C.ar   23  TRP23       0.0946
     35  CD2       33.4150  100.7210  -64.9570 C.ar   23  TRP23       0.0152
     36  NE1       34.3330   99.5990  -66.6640 N.ar   23  TRP23      -0.2442
     37  CE2       33.1670  100.1620  -66.2260 C.ar   23  TRP23       0.0810
     38  CE3       32.3750  101.3780  -64.2910 C.ar   23  TRP23       0.0012
     39  CZ2       31.9150  100.2320  -66.8350 C.ar   23  TRP23       0.0191
     40  CZ3       31.1400  101.4550  -64.8970 C.ar   23  TRP23       0.0001
     41  CH2       30.9160  100.8840  -66.1520 C.ar   23  TRP23       0.0015
     42  N         40.2260   98.5170  -65.7120 N.3    25  HIS25      -0.1241
     43  CA        39.8770   97.4900  -66.7250 C.3    25  HIS25       0.1621
     44  C         39.2390   96.2770  -66.0330 C.2    25  HIS25       0.2264
     45  O         39.8630   95.7480  -65.0880 O.2    25  HIS25      -0.2867
     46  CB        41.0920   97.1250  -67.5760 C.3    25  HIS25       0.0745
     47  CG        40.7510   96.2080  -68.6970 C.ar   25  HIS25       0.0817
     48  ND1       40.0390   96.6310  -69.8030 N.ar   25  HIS25      -0.2268
     49  CD2       40.9820   94.8880  -68.8660 C.ar   25  HIS25       0.1154
     50  CE1       39.8650   95.6130  -70.6200 C.ar   25  HIS25       0.1986
     51  NE2       40.4400   94.5300  -70.0700 N.ar   25  HIS25      -0.2212
     52  N         34.4280   91.4020  -68.1570 N.3    29  ASP29      -0.1225
     53  CA        33.3740   92.1810  -68.8440 C.3    29  ASP29       0.1805
     54  C         33.7150   92.3550  -70.3170 C.2    29  ASP29       0.2597
     55  O         32.8030   92.2990  -71.1580 O.2    29  ASP29      -0.2718
     56  CB        33.1530   93.5480  -68.1920 C.3    29  ASP29       0.1424
     57  CG        32.1380   94.4110  -68.9310 C.2    29  ASP29       0.3668
     58  OD1       30.9980   93.9280  -69.1460 O.co2  29  ASP29      -0.2456
     59  OD2       32.5090   95.5500  -69.3130 O.co2  29  ASP29      -0.2456
     60  N         34.9810   92.5970  -70.6210 N.am   30  PHE30      -0.1976
     61  CA        35.4080   92.7930  -72.0210 C.3    30  PHE30       0.1639
     62  C         35.2840   91.4950  -72.8020 C.2    30  PHE30       0.2290
     63  O         34.9600   91.5340  -74.0020 O.2    30  PHE30      -0.2864
     64  CB        36.8230   93.3750  -72.0440 C.3    30  PHE30       0.0560
     65  CG        37.2940   93.8630  -73.3920 C.ar   30  PHE30      -0.0200
     66  CD1       36.6060   94.8600  -74.0670 C.ar   30  PHE30      -0.0042
     67  CD2       38.4440   93.3430  -73.9740 C.ar   30  PHE30      -0.0042
     68  CE1       37.0490   95.3100  -75.3030 C.ar   30  PHE30      -0.0003
     69  CE2       38.8940   93.8020  -75.2050 C.ar   30  PHE30      -0.0003
     70  CZ        38.1900   94.7790  -75.8720 C.ar   30  PHE30      -0.0000
     71  N         33.1450   89.0580  -72.2120 N.3    32  HIS32      -0.1226
     72  CA        31.6820   88.9800  -72.3620 C.3    32  HIS32       0.1752
     73  C         31.1980   89.8490  -73.5160 C.2    32  HIS32       0.2596
     74  O         30.4720   89.3530  -74.3860 O.2    32  HIS32      -0.2718
     75  CB        31.0300   89.3570  -71.0160 C.3    32  HIS32       0.0759
     76  CG        29.5810   89.7070  -71.0800 C.ar   32  HIS32       0.0818
     77  ND1       28.5860   88.7560  -71.0190 N.ar   32  HIS32      -0.2268
     78  CD2       28.9550   90.9000  -71.1660 C.ar   32  HIS32       0.1154
     79  CE1       27.4100   89.3460  -71.0850 C.ar   32  HIS32       0.1986
     80  NE2       27.6100   90.6640  -71.1800 N.ar   32  HIS32      -0.2212
     81  N         31.5850   91.1190  -73.5150 N.am   33  PHE33      -0.1976
     82  CA        31.1780   92.0700  -74.5730 C.3    33  PHE33       0.1639
     83  C         31.5550   91.5310  -75.9450 C.2    33  PHE33       0.2290
     84  O         30.7330   91.5570  -76.8760 O.2    33  PHE33      -0.2864
     85  CB        31.8000   93.4560  -74.3610 C.3    33  PHE33       0.0560
     86  CG        31.5730   94.4050  -75.5130 C.ar   33  PHE33      -0.0200
     87  CD1       30.3740   95.0850  -75.6430 C.ar   33  PHE33      -0.0042
     88  CD2       32.5400   94.5940  -76.4860 C.ar   33  PHE33      -0.0042
     89  CE1       30.1520   95.9390  -76.7130 C.ar   33  PHE33      -0.0003
     90  CE2       32.3190   95.4480  -77.5570 C.ar   33  PHE33      -0.0003
     91  CZ        31.1230   96.1150  -77.6710 C.ar   33  PHE33      -0.0000
     92  N         31.3130  107.6010  -78.2290 N.3    54  THR54      -0.1218
     93  CA        31.6520  106.2050  -77.8930 C.3    54  THR54       0.1862
     94  C         32.7290  105.7250  -78.8550 C.2    54  THR54       0.2287
     95  O         33.6940  105.0800  -78.4260 O.2    54  THR54      -0.2866
     96  CB        30.4100  105.3000  -77.9130 C.3    54  THR54       0.1770
     97  OG1       29.5370  105.6880  -76.8520 O.3    54  THR54      -0.2211
     98  CG2       30.7590  103.8370  -77.7640 C.3    54  THR54       0.0375
     99  N         35.8630  107.3330  -77.8450 N.3    57  SER57      -0.1202
    100  CA        36.3530  106.8730  -76.5270 C.3    57  SER57       0.2020
    101  C         37.1760  105.6080  -76.6480 C.2    57  SER57       0.2619
    102  O         38.0330  105.3570  -75.7830 O.2    57  SER57      -0.2717
    103  CB        35.2200  106.6930  -75.5280 C.3    57  SER57       0.2103
    104  OG        34.4960  105.4850  -75.7580 O.3    57  SER57      -0.2182
    105  N         36.9300  104.8580  -77.7110 N.am   58  MET58      -0.1965
    106  CA        37.5680  103.5470  -77.9610 C.3    58  MET58       0.1721
    107  C         39.0000  103.7670  -78.4200 C.2    58  MET58       0.2458
    108  O         39.2480  104.5920  -79.3180 O.2    58  MET58      -0.2730
    109  CB        36.8260  102.8410  -79.1010 C.3    58  MET58       0.0427
    110  CG        36.4440  101.4030  -78.8570 C.3    58  MET58       0.0599
    111  SD        35.3740  100.8310  -80.2140 S.3    58  MET58      -0.1393
    112  CE        33.8280  101.6160  -79.7650 C.3    58  MET58       0.0692
    113  N         39.9600  103.0050  -77.8470 N.am   59  PRO59      -0.2727
    114  CA        41.3390  103.0750  -78.3180 C.3    59  PRO59       0.1402
    115  C         41.4660  102.6910  -79.7930 C.2    59  PRO59       0.2269
    116  O         40.7820  101.7640  -80.2610 O.2    59  PRO59      -0.2865
    117  CB        42.0890  102.0800  -77.4210 C.3    59  PRO59       0.0296
    118  CG        41.2070  101.9430  -76.1990 C.3    59  PRO59       0.0237
    119  CD        39.7920  102.0760  -76.7210 C.3    59  PRO59       0.0939
    120  N         43.5640  100.9860  -81.4570 N.3    61  LYS61      -0.1231
    121  CA        43.9900   99.5860  -81.7540 C.3    61  LYS61       0.1693
    122  C         42.7580   98.6770  -81.8390 C.2    61  LYS61       0.2592
    123  O         42.8100   97.6550  -82.5510 O.2    61  LYS61      -0.2718
    124  CB        44.9930   99.0560  -80.7210 C.3    61  LYS61       0.0285
    125  CG        44.6750   99.3690  -79.2650 C.3    61  LYS61       0.0035
    126  CD        45.5170   98.6080  -78.2590 C.3    61  LYS61       0.0206
    127  CE        45.2400   99.0490  -76.8340 C.3    61  LYS61       0.1093
    128  NZ        45.6300   98.0140  -75.8470 N.3    61  LYS61      -0.1314
    129  N         41.6880   99.0160  -81.1360 N.am   62  PHE62      -0.1976
    130  CA        40.4740   98.1820  -81.0820 C.3    62  PHE62       0.1639
    131  C         39.4210   98.6570  -82.0860 C.2    62  PHE62       0.2290
    132  O         38.3990   97.9650  -82.2270 O.2    62  PHE62      -0.2864
    133  CB        39.8750   98.2010  -79.6680 C.3    62  PHE62       0.0560
    134  CG        40.5770   97.3470  -78.6430 C.ar   62  PHE62      -0.0200
    135  CD1       40.5640   95.9640  -78.7410 C.ar   62  PHE62      -0.0042
    136  CD2       41.2220   97.9220  -77.5570 C.ar   62  PHE62      -0.0042
    137  CE1       41.2090   95.1760  -77.7970 C.ar   62  PHE62      -0.0003
    138  CE2       41.8640   97.1330  -76.6110 C.ar   62  PHE62      -0.0003
    139  CZ        41.8550   95.7610  -76.7300 C.ar   62  PHE62      -0.0000
    140  N         35.6300   97.7810  -84.3430 N.3    65  LEU65      -0.1245
    141  CA        35.4600   96.4980  -83.6360 C.3    65  LEU65       0.1561
    142  C         35.5100   95.3720  -84.6520 C.2    65  LEU65       0.2260
    143  O         34.6840   95.3490  -85.5690 O.2    65  LEU65      -0.2867
    144  CB        34.1340   96.5140  -82.8680 C.3    65  LEU65       0.0270
    145  CG        34.1370   97.3300  -81.5770 C.3    65  LEU65       0.0019
    146  CD1       32.7250   97.5180  -81.0520 C.3    65  LEU65       0.0001
    147  CD2       35.0050   96.6720  -80.5170 C.3    65  LEU65       0.0001
    148  N         25.4440   99.8350  -78.5600 N.3   122  VAL122     -0.1245
    149  CA        26.6520   99.6540  -77.7210 C.3   122  VAL122      0.1561
    150  C         27.0440  100.9800  -77.0720 C.2   122  VAL122      0.2260
    151  O         28.1740  101.0930  -76.5470 O.2   122  VAL122     -0.2867
    152  CB        27.8210   98.9690  -78.4570 C.3   122  VAL122      0.0252
    153  CG1       27.4930   97.5170  -78.7660 C.3   122  VAL122      0.0019
    154  CG2       28.2370   99.7010  -79.7190 C.3   122  VAL122      0.0019
    155  N         21.3180  104.7120  -76.2690 N.3   128  TYR128     -0.1241
    156  CA        20.5420  103.8770  -75.3360 C.3   128  TYR128      0.1605
    157  C         19.1580  104.4850  -75.1700 C.2   128  TYR128      0.2264
    158  O         18.1500  103.7790  -75.2110 O.2   128  TYR128     -0.2867
    159  CB        21.2600  103.7390  -73.9960 C.3   128  TYR128      0.0534
    160  CG        22.5330  102.9280  -73.9970 C.ar  128  TYR128     -0.0201
    161  CD1       22.6480  101.7500  -74.7140 C.ar  128  TYR128     -0.0009
    162  CD2       23.6150  103.3170  -73.2200 C.ar  128  TYR128     -0.0009
    163  CE1       23.8100  100.9950  -74.6730 C.ar  128  TYR128      0.0417
    164  CE2       24.7820  102.5740  -73.1640 C.ar  128  TYR128      0.0417
    165  CZ        24.8770  101.4050  -73.8920 C.ar  128  TYR128      0.1957
    166  OH        26.0250  100.6760  -73.8390 O.3   128  TYR128     -0.2866
    167  N         21.5590   93.4230  -72.2240 N.3   141  TYR141     -0.1241
    168  CA        22.7120   92.7610  -71.5930 C.3   141  TYR141      0.1605
    169  C         23.3810   93.7710  -70.6910 C.2   141  TYR141      0.2264
    170  O         24.0900   94.6590  -71.1870 O.2   141  TYR141     -0.2867
    171  CB        23.6780   92.2110  -72.6450 C.3   141  TYR141      0.0534
    172  CG        23.1340   91.0930  -73.4980 C.ar  141  TYR141     -0.0201
    173  CD1       22.3220   91.3580  -74.5920 C.ar  141  TYR141     -0.0009
    174  CD2       23.4460   89.7680  -73.2320 C.ar  141  TYR141     -0.0009
    175  CE1       21.8310   90.3400  -75.3940 C.ar  141  TYR141      0.0417
    176  CE2       22.9580   88.7370  -74.0200 C.ar  141  TYR141      0.0417
    177  CZ        22.1510   89.0250  -75.1060 C.ar  141  TYR141      0.1957
    178  OH        21.6820   88.0160  -75.8910 O.3   141  TYR141     -0.2866
    179  N         25.9260   94.5850  -67.5450 N.3   143  THR143     -0.1218
    180  CA        26.9550   94.2520  -66.5660 C.3   143  THR143      0.1862
    181  C         26.7400   95.1930  -65.4010 C.2   143  THR143      0.2287
    182  O         26.9160   96.3960  -65.5690 O.2   143  THR143     -0.2866
    183  CB        28.3550   94.3740  -67.1740 C.3   143  THR143      0.1770
    184  OG1       28.3810   93.6320  -68.3910 O.3   143  THR143     -0.2211
    185  CG2       29.4330   93.8770  -66.2420 C.3   143  THR143      0.0375
@<TRIPOS>BOND
     1   143   142    2
     2   142   141    1
     3   140   141    1
     4   141   144    1
     5   144   145    1
     6   123   122    2
     7   132   131    2
     8   131   130    1
     9   122   121    1
    10   122   129   am
    11   121   120    1
    12   121   124    1
    13   145   146    1
    14   145   147    1
    15   129   130    1
    16   130   133    1
    17   124   125    1
    18   116   115    2
    19   111   112    1
    20   111   110    1
    21   115   114    1
    22   154   152    1
    23   133   134    1
    24   108   107    2
    25   125   126    1
    26   109   110    1
    27   109   106    1
    28    94    95    2
    29    94    93    1
    30   153   152    1
    31   135   134   ar
    32   135   137   ar
    33   134   136   ar
    34   148   149    1
    35   152   149    1
    36   107   106    1
    37   107   113   am
    38   114   113    1
    39   114   117    1
    40   126   127    1
    41    92    93    1
    42   106   105    1
    43    96    93    1
    44    96    98    1
    45    96    97    1
    46   113   119    1
    47    99   100    1
    48   137   139   ar
    49   149   150    1
    50   105   101   am
    51    91    90   ar
    52    91    89   ar
    53   136   138   ar
    54    90    88   ar
    55   117   118    1
    56   150   151    2
    57    84    83    2
    58   127   128    1
    59   139   138   ar
    60   119   118    1
    61    89    87   ar
    62   101   100    1
    63   101   102    2
    64   100   103    1
    65    88    86   ar
    66   155   156    1
    67     7     5    1
    68    83    82    1
    69   178   177    1
    70    70    68   ar
    71    70    69   ar
    72   104   103    1
    73    87    86   ar
    74    86    85    1
    75   175   177   ar
    76   175   173   ar
    77   156   157    1
    78   156   159    1
    79    68    66   ar
    80   158   157    2
    81    69    67   ar
    82     5     6    1
    83     5     2    1
    84   177   176   ar
    85     1     2    1
    86   161   163   ar
    87   161   160   ar
    88   163   165   ar
    89   173   172   ar
    90    82    85    1
    91    82    81    1
    92    74    73    2
    93     2     3    1
    94     4     3    2
    95    66    65   ar
    96   176   174   ar
    97    63    62    2
    98   160   159    1
    99   160   162   ar
   100    67    65   ar
   101   165   166    1
   102   165   164   ar
   103    73    81   am
   104    73    72    1
   105     3     8   am
   106   172   174   ar
   107   172   171    1
   108    65    64    1
   109   162   164   ar
   110    62    61    1
   111   171   168    1
   112    72    71    1
   113    72    75    1
   114   167   168    1
   115     8     9    1
   116    64    61    1
   117    61    60    1
   118   168   169    1
   119     9    12    1
   120     9    10    1
   121   170   169    2
   122    80    78   ar
   123    80    79   ar
   124    78    76   ar
   125    12    14    1
   126    12    13    1
   127    55    54    2
   128    79    77   ar
   129    76    77   ar
   130    76    75    1
   131    60    54   am
   132    50    51   ar
   133    50    48   ar
   134    26    25    1
   135    27    25    1
   136    54    53    1
   137    25    24    1
   138    51    49   ar
   139    10    15   am
   140    10    11    2
   141    48    47   ar
   142    20    21    1
   143    15    16    1
   144    59    57   ar
   145    58    57   ar
   146    57    56    1
   147    24    21    1
   148    49    47   ar
   149    53    56    1
   150    53    52    1
   151    47    46    1
   152    21    22    1
   153   184   183    1
   154    16    19    1
   155    16    17    1
   156    18    17    2
   157    46    43    1
   158   179   180    1
   159    22    23    2
   160   183   180    1
   161   183   185    1
   162    39    37   ar
   163    39    41   ar
   164    43    44    1
   165    43    42    1
   166    36    37   ar
   167    36    34   ar
   168   180   181    1
   169    37    35   ar
   170    41    40   ar
   171    44    45    2
   172    34    33   ar
   173   182   181    2
   174    31    30    2
   175    35    33   ar
   176    35    38   ar
   177    40    38   ar
   178    33    32    1
   179    28    29    1
   180    30    29    1
   181    29    32    1
