@<TRIPOS>MOLECULE
tmp/6n1tA03.pdb
 176 172 0 0 0
SMALL
GASTEIGER

@<TRIPOS>ATOM
      1  N         23.5490   95.4520  -74.3220 N.3     6  VAL6       -0.1231
      2  CA        24.6060   94.8830  -73.5030 C.3     6  VAL6        0.1692
      3  C         25.4340   95.9660  -72.8100 C.2     6  VAL6        0.2592
      4  O         26.1850   96.7130  -73.4420 O.2     6  VAL6       -0.2718
      5  CB        25.4460   93.8390  -74.2850 C.3     6  VAL6        0.0266
      6  CG1       25.8450   94.3640  -75.6600 C.3     6  VAL6        0.0020
      7  CG2       26.6540   93.3820  -73.4740 C.3     6  VAL6        0.0020
      8  N         25.2540   96.0450  -71.4950 N.am    7  VAL7       -0.1966
      9  CA        25.7960   97.1260  -70.6880 C.3     7  VAL7        0.1727
     10  C         26.4300   96.5870  -69.4210 C.2     7  VAL7        0.2616
     11  O         26.0610   95.5200  -68.9290 O.2     7  VAL7       -0.2715
     12  CB        24.6890   98.0870  -70.2200 C.3     7  VAL7        0.0290
     13  CG1       25.2340   99.4990  -70.0820 C.3     7  VAL7        0.0023
     14  CG2       23.4970   98.0590  -71.1640 C.3     7  VAL7        0.0023
     15  N         27.3920   97.3410  -68.9020 N.am    8  ALA8       -0.1977
     16  CA        27.8720   97.1690  -67.5420 C.3     8  ALA8        0.1597
     17  C         27.3730   98.3680  -66.7430 C.2     8  ALA8        0.2287
     18  O         27.2020   99.4540  -67.3010 O.2     8  ALA8       -0.2864
     19  CB        29.3860   97.0860  -67.5170 C.3     8  ALA8        0.0319
     20  N         35.5620  104.2250  -69.0190 N.3    21  LEU21      -0.1245
     21  CA        34.9330  103.3720  -68.0150 C.3    21  LEU21       0.1561
     22  C         35.2630  103.8480  -66.6030 C.2    21  LEU21       0.2260
     23  O         36.3870  104.2840  -66.3510 O.2    21  LEU21      -0.2867
     24  CB        35.3630  101.9160  -68.2040 C.3    21  LEU21       0.0270
     25  CG        34.8080  101.2120  -69.4430 C.3    21  LEU21       0.0019
     26  CD1       35.2590   99.7590  -69.4610 C.3    21  LEU21       0.0001
     27  CD2       33.2870  101.3070  -69.4600 C.3    21  LEU21       0.0001
     28  N         35.3070  102.1180  -63.6670 N.3    23  TRP23      -0.1241
     29  CA        35.9940  101.1350  -62.8300 C.3    23  TRP23       0.1605
     30  C         37.3350  100.7060  -63.4250 C.2    23  TRP23       0.2264
     31  O         37.5680  100.9000  -64.6230 O.2    23  TRP23      -0.2867
     32  CB        35.1030   99.9060  -62.6610 C.3    23  TRP23       0.0550
     33  CG        34.3810   99.5630  -63.9110 C.ar   23  TRP23       0.0003
     34  CD1       34.8760   98.8870  -64.9870 C.ar   23  TRP23       0.0946
     35  CD2       33.0320   99.9040  -64.2350 C.ar   23  TRP23       0.0152
     36  NE1       33.9130   98.7740  -65.9600 N.ar   23  TRP23      -0.2442
     37  CE2       32.7700   99.3900  -65.5230 C.ar   23  TRP23       0.0810
     38  CE3       32.0120  100.5880  -63.5560 C.ar   23  TRP23       0.0012
     39  CZ2       31.5300   99.5400  -66.1520 C.ar   23  TRP23       0.0191
     40  CZ3       30.7750  100.7360  -64.1810 C.ar   23  TRP23       0.0001
     41  CH2       30.5470  100.2120  -65.4670 C.ar   23  TRP23       0.0015
     42  N         40.1070   97.8340  -64.7700 N.3    25  HIS25      -0.1241
     43  CA        39.8930   96.8330  -65.8110 C.3    25  HIS25       0.1621
     44  C         39.2400   95.5480  -65.2820 C.2    25  HIS25       0.2264
     45  O         39.7900   94.8730  -64.4100 O.2    25  HIS25      -0.2867
     46  CB        41.2120   96.5280  -66.5280 C.3    25  HIS25       0.0745
     47  CG        41.0440   95.7510  -67.7940 C.ar   25  HIS25       0.0817
     48  ND1       41.4020   94.4250  -67.9060 N.ar   25  HIS25      -0.2268
     49  CD2       40.5480   96.1100  -69.0020 C.ar   25  HIS25       0.1154
     50  CE1       41.1400   94.0020  -69.1290 C.ar   25  HIS25       0.1986
     51  NE2       40.6190   95.0050  -69.8140 N.ar   25  HIS25      -0.2212
     52  N         34.4300   90.6020  -67.4380 N.3    29  ASP29      -0.1225
     53  CA        33.3900   91.3760  -68.1000 C.3    29  ASP29       0.1805
     54  C         33.6900   91.5320  -69.5870 C.2    29  ASP29       0.2597
     55  O         32.8340   91.2580  -70.4320 O.2    29  ASP29      -0.2718
     56  CB        33.2460   92.7520  -67.4450 C.3    29  ASP29       0.1424
     57  CG        32.3420   93.6850  -68.2330 C.2    29  ASP29       0.3668
     58  OD1       31.1840   93.3080  -68.5200 O.co2  29  ASP29      -0.2456
     59  OD2       32.7930   94.8010  -68.5630 O.co2  29  ASP29      -0.2456
     60  N         34.9100   91.9670  -69.8960 N.am   30  PHE30      -0.1976
     61  CA        35.3320   92.1780  -71.2740 C.3    30  PHE30       0.1639
     62  C         35.3340   90.8590  -72.0360 C.2    30  PHE30       0.2290
     63  O         35.1630   90.8390  -73.2550 O.2    30  PHE30      -0.2864
     64  CB        36.7140   92.8370  -71.3190 C.3    30  PHE30       0.0560
     65  CG        36.9600   93.6470  -72.5600 C.ar   30  PHE30      -0.0200
     66  CD1       36.2680   94.8340  -72.7770 C.ar   30  PHE30      -0.0042
     67  CD2       37.8930   93.2290  -73.5100 C.ar   30  PHE30      -0.0042
     68  CE1       36.4900   95.5750  -73.9200 C.ar   30  PHE30      -0.0003
     69  CE2       38.1240   93.9760  -74.6560 C.ar   30  PHE30      -0.0003
     70  CZ        37.4200   95.1480  -74.8610 C.ar   30  PHE30      -0.0000
     71  N         33.0820   88.2850  -71.2660 N.3    32  HIS32      -0.1226
     72  CA        31.6420   88.1330  -71.4670 C.3    32  HIS32       0.1752
     73  C         31.2020   88.9160  -72.6950 C.2    32  HIS32       0.2596
     74  O         30.6400   88.3490  -73.6330 O.2    32  HIS32      -0.2718
     75  CB        30.8850   88.6190  -70.2270 C.3    32  HIS32       0.0759
     76  CG        29.4060   88.7600  -70.4250 C.ar   32  HIS32       0.0818
     77  ND1       28.5010   87.8340  -69.9520 N.ar   32  HIS32      -0.2268
     78  CD2       28.6730   89.7240  -71.0330 C.ar   32  HIS32       0.1154
     79  CE1       27.2760   88.2190  -70.2640 C.ar   32  HIS32       0.1986
     80  NE2       27.3530   89.3610  -70.9230 N.ar   32  HIS32      -0.2212
     81  N         31.4850   90.2160  -72.6780 N.am   33  PHE33      -0.1976
     82  CA        31.1010   91.1280  -73.7470 C.3    33  PHE33       0.1639
     83  C         31.5760   90.6550  -75.1150 C.2    33  PHE33       0.2290
     84  O         30.8240   90.7030  -76.0870 O.2    33  PHE33      -0.2864
     85  CB        31.6480   92.5280  -73.4690 C.3    33  PHE33       0.0560
     86  CG        31.4280   93.4960  -74.5940 C.ar   33  PHE33      -0.0200
     87  CD1       30.2620   94.2510  -74.6580 C.ar   33  PHE33      -0.0042
     88  CD2       32.3810   93.6500  -75.5950 C.ar   33  PHE33      -0.0042
     89  CE1       30.0510   95.1440  -75.6970 C.ar   33  PHE33      -0.0003
     90  CE2       32.1760   94.5390  -76.6360 C.ar   33  PHE33      -0.0003
     91  CZ        31.0100   95.2880  -76.6870 C.ar   33  PHE33      -0.0000
     92  N         31.1530  106.4850  -77.4140 N.3    54  THR54      -0.1218
     93  CA        31.4980  105.0910  -77.1250 C.3    54  THR54       0.1862
     94  C         32.6330  104.6440  -78.0470 C.2    54  THR54       0.2287
     95  O         33.6040  104.0290  -77.5990 O.2    54  THR54      -0.2866
     96  CB        30.2740  104.1610  -77.2870 C.3    54  THR54       0.1770
     97  OG1       29.2910  104.4920  -76.3000 O.3    54  THR54      -0.2211
     98  CG2       30.6640  102.6970  -77.1160 C.3    54  THR54       0.0375
     99  N         35.8020  106.5530  -76.7690 N.3    57  SER57      -0.1202
    100  CA        36.2960  106.0590  -75.4780 C.3    57  SER57       0.2020
    101  C         37.1230  104.7830  -75.6270 C.2    57  SER57       0.2619
    102  O         37.9700  104.4720  -74.7880 O.2    57  SER57      -0.2717
    103  CB        35.1220  105.7850  -74.5370 C.3    57  SER57       0.2103
    104  OG        34.3240  104.7160  -75.0170 O.3    57  SER57      -0.2182
    105  N         36.8600  104.0630  -76.7120 N.am   58  MET58      -0.1965
    106  CA        37.4320  102.7540  -76.9760 C.3    58  MET58       0.1721
    107  C         38.8680  102.8610  -77.4840 C.2    58  MET58       0.2458
    108  O         39.1410  103.6620  -78.3790 O.2    58  MET58      -0.2730
    109  CB        36.5720  102.0540  -78.0230 C.3    58  MET58       0.0427
    110  CG        36.1570  100.6490  -77.6470 C.3    58  MET58       0.0599
    111  SD        34.7000  100.0870  -78.5450 S.3    58  MET58      -0.1393
    112  CE        35.4390   99.5560  -80.0860 C.3    58  MET58       0.0692
    113  N         39.7900  102.0530  -76.9170 N.am   59  PRO59      -0.2727
    114  CA        41.1910  102.0130  -77.3610 C.3    59  PRO59       0.1402
    115  C         41.3350  101.6880  -78.8480 C.2    59  PRO59       0.2269
    116  O         40.5220  100.9440  -79.4030 O.2    59  PRO59      -0.2865
    117  CB        41.7950  100.8960  -76.5100 C.3    59  PRO59       0.0296
    118  CG        40.9800  100.9150  -75.2660 C.3    59  PRO59       0.0237
    119  CD        39.5800  101.2090  -75.7250 C.3    59  PRO59       0.0939
    120  N         41.3260   98.0950  -80.4880 N.3    62  PHE62      -0.1241
    121  CA        40.0690   97.3550  -80.3850 C.3    62  PHE62       0.1605
    122  C         38.9650   97.8570  -81.3190 C.2    62  PHE62       0.2264
    123  O         37.9900   97.1420  -81.5560 O.2    62  PHE62      -0.2867
    124  CB        39.5700   97.3380  -78.9360 C.3    62  PHE62       0.0534
    125  CG        40.3650   96.4390  -78.0300 C.ar   62  PHE62      -0.0203
    126  CD1       40.0700   95.0830  -77.9400 C.ar   62  PHE62      -0.0042
    127  CD2       41.4050   96.9500  -77.2610 C.ar   62  PHE62      -0.0042
    128  CE1       40.8010   94.2530  -77.1030 C.ar   62  PHE62      -0.0003
    129  CE2       42.1410   96.1250  -76.4230 C.ar   62  PHE62      -0.0003
    130  CZ        41.8380   94.7750  -76.3440 C.ar   62  PHE62      -0.0000
    131  N         35.4850   96.7830  -83.6340 N.3    65  LEU65      -0.1245
    132  CA        35.3850   95.4810  -82.9820 C.3    65  LEU65       0.1561
    133  C         35.4010   94.3720  -84.0230 C.2    65  LEU65       0.2260
    134  O         34.5820   94.3580  -84.9460 O.2    65  LEU65      -0.2867
    135  CB        34.1280   95.3980  -82.1090 C.3    65  LEU65       0.0270
    136  CG        34.1560   96.1520  -80.7740 C.3    65  LEU65       0.0019
    137  CD1       32.7460   96.3990  -80.2630 C.3    65  LEU65       0.0001
    138  CD2       34.9920   95.4320  -79.7220 C.3    65  LEU65       0.0001
    139  N         25.3240   98.8750  -77.9690 N.3   122  VAL122     -0.1245
    140  CA        26.5140   98.7120  -77.1410 C.3   122  VAL122      0.1561
    141  C         26.8290   99.9500  -76.2910 C.2   122  VAL122      0.2260
    142  O         27.6340   99.8800  -75.3600 O.2   122  VAL122     -0.2867
    143  CB        27.7210   98.2940  -78.0140 C.3   122  VAL122      0.0252
    144  CG1       29.0150   98.2980  -77.2180 C.3   122  VAL122      0.0019
    145  CG2       27.4850   96.9160  -78.6130 C.3   122  VAL122      0.0019
    146  N         20.9930  103.9210  -75.5570 N.3   128  TYR128     -0.1241
    147  CA        20.2320  103.1210  -74.5920 C.3   128  TYR128      0.1605
    148  C         18.8860  103.7740  -74.2780 C.2   128  TYR128      0.2264
    149  O         17.8840  103.0830  -74.0720 O.2   128  TYR128     -0.2867
    150  CB        21.0080  102.9290  -73.2880 C.3   128  TYR128      0.0534
    151  CG        22.2650  102.0870  -73.3770 C.ar  128  TYR128     -0.0201
    152  CD1       22.2900  100.8860  -74.0900 C.ar  128  TYR128     -0.0009
    153  CD2       23.4220  102.4760  -72.7050 C.ar  128  TYR128     -0.0009
    154  CE1       23.4430  100.1180  -74.1560 C.ar  128  TYR128      0.0417
    155  CE2       24.5770  101.7150  -72.7620 C.ar  128  TYR128      0.0417
    156  CZ        24.5830  100.5380  -73.4860 C.ar  128  TYR128      0.1957
    157  OH        25.7320   99.7830  -73.5320 O.3   128  TYR128     -0.2866
    158  N         21.4570   92.5500  -71.4630 N.3   141  TYR141     -0.1241
    159  CA        22.6260   91.9180  -70.8760 C.3   141  TYR141      0.1605
    160  C         23.3320   92.9220  -69.9720 C.2   141  TYR141      0.2264
    161  O         24.1790   93.6970  -70.4220 O.2   141  TYR141     -0.2867
    162  CB        23.5700   91.4200  -71.9720 C.3   141  TYR141      0.0534
    163  CG        23.0000   90.3160  -72.8330 C.ar  141  TYR141     -0.0201
    164  CD1       22.1700   90.6070  -73.9160 C.ar  141  TYR141     -0.0009
    165  CD2       23.2980   88.9770  -72.5720 C.ar  141  TYR141     -0.0009
    166  CE1       21.6460   89.5960  -74.7100 C.ar  141  TYR141      0.0417
    167  CE2       22.7810   87.9590  -73.3620 C.ar  141  TYR141      0.0417
    168  CZ        21.9580   88.2750  -74.4280 C.ar  141  TYR141      0.1957
    169  OH        21.4420   87.2760  -75.2180 O.3   141  TYR141     -0.2866
    170  N         25.7900   93.7610  -66.8720 N.3   143  THR143     -0.1218
    171  CA        26.8450   93.3810  -65.9550 C.3   143  THR143      0.1862
    172  C         26.7380   94.3240  -64.7670 C.2   143  THR143      0.2287
    173  O         27.1870   95.4700  -64.8310 O.2   143  THR143     -0.2866
    174  CB        28.2300   93.5220  -66.6100 C.3   143  THR143      0.1770
    175  OG1       28.2230   92.8750  -67.8890 O.3   143  THR143     -0.2211
    176  CG2       29.3070   92.9080  -65.7300 C.3   143  THR143      0.0375
@<TRIPOS>BOND
     1   134   133    2
     2   133   132    1
     3   131   132    1
     4   132   135    1
     5   135   136    1
     6   123   122    2
     7   122   121    1
     8   136   137    1
     9   136   138    1
    10   120   121    1
    11   121   124    1
    12   112   111    1
    13   116   115    2
    14   124   125    1
    15   115   114    1
    16   145   143    1
    17   111   110    1
    18   108   107    2
    19    94    95    2
    20    94    93    1
    21   125   126   ar
    22   125   127   ar
    23   109   110    1
    24   109   106    1
    25   143   144    1
    26   143   140    1
    27   139   140    1
    28   126   128   ar
    29   107   106    1
    30   107   113   am
    31    92    93    1
    32   114   113    1
    33   114   117    1
    34    96    93    1
    35    96    98    1
    36    96    97    1
    37   127   129   ar
    38   140   141    1
    39   128   130   ar
    40   106   105    1
    41   113   119    1
    42    99   100    1
    43   105   101   am
    44    91    90   ar
    45    91    89   ar
    46    90    88   ar
    47   117   118    1
    48   129   130   ar
    49   141   142    2
    50    84    83    2
    51   119   118    1
    52    89    87   ar
    53     6     5    1
    54   101   100    1
    55   101   102    2
    56    88    86   ar
    57   146   147    1
    58   100   103    1
    59   169   168    1
    60    83    82    1
    61   104   103    1
    62    70    69   ar
    63    70    68   ar
    64   166   168   ar
    65   166   164   ar
    66    87    86   ar
    67    69    67   ar
    68    86    85    1
    69   147   148    1
    70   147   150    1
    71   168   167   ar
    72     1     2    1
    73     5     2    1
    74     5     7    1
    75   148   149    2
    76   154   152   ar
    77   154   156   ar
    78   152   151   ar
    79    68    66   ar
    80   164   163   ar
    81    82    85    1
    82    82    81    1
    83    74    73    2
    84   157   156    1
    85    67    65   ar
    86     2     3    1
    87   156   155   ar
    88     4     3    2
    89   151   150    1
    90   151   153   ar
    91   167   165   ar
    92    63    62    2
    93   163   165   ar
    94   163   162    1
    95     3     8   am
    96    66    65   ar
    97   155   153   ar
    98    73    81   am
    99    73    72    1
   100    65    64    1
   101    62    61    1
   102   162   159    1
   103     8     9    1
   104    72    71    1
   105    72    75    1
   106   158   159    1
   107    64    61    1
   108    61    60    1
   109    14    12    1
   110    78    80   ar
   111    78    76   ar
   112    80    79   ar
   113   159   160    1
   114     9    12    1
   115     9    10    1
   116    55    54    2
   117    76    75    1
   118    76    77   ar
   119   161   160    2
   120    79    77   ar
   121    12    13    1
   122    60    54   am
   123    51    50   ar
   124    51    49   ar
   125    54    53    1
   126    26    25    1
   127    27    25    1
   128    25    24    1
   129    10    11    2
   130    10    15   am
   131    50    48   ar
   132    20    21    1
   133    49    47   ar
   134    15    16    1
   135    59    57   ar
   136    58    57   ar
   137    57    56    1
   138    24    21    1
   139    53    56    1
   140    53    52    1
   141    21    22    1
   142    48    47   ar
   143   175   174    1
   144    47    46    1
   145    16    19    1
   146    16    17    1
   147    18    17    2
   148   170   171    1
   149   174   171    1
   150   174   176    1
   151    22    23    2
   152    46    43    1
   153    39    37   ar
   154    39    41   ar
   155    36    37   ar
   156    36    34   ar
   157   171   172    1
   158    43    44    1
   159    43    42    1
   160    37    35   ar
   161    41    40   ar
   162    44    45    2
   163    34    33   ar
   164   173   172    2
   165    31    30    2
   166    35    33   ar
   167    35    38   ar
   168    40    38   ar
   169    33    32    1
   170    28    29    1
   171    30    29    1
   172    29    32    1
