@<TRIPOS>MOLECULE
tmp/6n2jA01.pdb
 192 187 0 0 0
SMALL
GASTEIGER

@<TRIPOS>ATOM
      1  N         19.5580   -0.5000  -15.9220 N.3     8  VAL8       -0.1231
      2  CA        20.2700    0.5660  -16.6980 C.3     8  VAL8        0.1692
      3  C         21.2790    1.2670  -15.7970 C.2     8  VAL8        0.2593
      4  O         21.2820    1.0480  -14.5830 O.2     8  VAL8       -0.2718
      5  CB        19.3060    1.5510  -17.3740 C.3     8  VAL8        0.0266
      6  CG1       18.4060    0.8400  -18.3440 C.3     8  VAL8        0.0020
      7  CG2       18.5030    2.3760  -16.3590 C.3     8  VAL8        0.0020
      8  N         22.1730    2.0390  -16.4170 N.am    9  GLY9       -0.1942
      9  CA        23.2680    2.7090  -15.6920 C.3     9  GLY9        0.2014
     10  C         24.5280    2.6380  -16.5120 C.2     9  GLY9        0.2639
     11  O         24.5770    1.8080  -17.5040 O.2     9  GLY9       -0.2714
     12  N         25.5020    3.4640  -16.1080 N.am   10  ALA10      -0.1963
     13  CA        26.8100    3.6530  -16.7750 C.3    10  ALA10       0.1728
     14  C         27.6060    2.3480  -16.7900 C.2    10  ALA10       0.2616
     15  O         27.3170    1.4280  -15.9960 O.2    10  ALA10      -0.2715
     16  CB        27.5930    4.7410  -16.0980 C.3    10  ALA10       0.0334
     17  N         28.5870    2.2580  -17.6890 N.am   11  CYS11      -0.1954
     18  CA        29.5160    1.1080  -17.7200 C.3    11  CYS11       0.1843
     19  C         30.1520    0.9400  -16.3520 C.2    11  CYS11       0.2626
     20  O         30.5700    1.9480  -15.7600 O.2    11  CYS11      -0.2714
     21  CB        30.6550    1.3110  -18.7090 C.3    11  CYS11       0.0997
     22  SG        30.0330    1.1280  -20.3760 S.3    11  CYS11      -0.0797
     23  N         30.2860   -0.2900  -15.9070 N.am   12  GLY12      -0.1954
     24  CA        31.0960   -0.5840  -14.7240 C.3    12  GLY12       0.1869
     25  C         30.3720   -0.4460  -13.4090 C.2    12  GLY12       0.2309
     26  O         31.0190   -0.7300  -12.3960 O.2    12  GLY12      -0.2863
     27  N         25.7450   -3.6030  -13.2620 N.3    15  LYS15      -0.1245
     28  CA        24.4640   -4.0840  -13.8440 C.3    15  LYS15       0.1561
     29  C         24.5140   -5.6150  -14.0130 C.2    15  LYS15       0.2260
     30  O         23.5630   -6.3040  -13.5960 O.2    15  LYS15      -0.2867
     31  CB        24.1660   -3.3980  -15.1770 C.3    15  LYS15       0.0271
     32  CG        24.0040   -1.8880  -15.0880 C.3    15  LYS15       0.0035
     33  CD        23.6040   -1.2250  -16.4110 C.3    15  LYS15       0.0206
     34  CE        24.5930   -1.5100  -17.5400 C.3    15  LYS15       0.1093
     35  NZ        25.9240   -0.8830  -17.2680 N.3    15  LYS15      -0.1314
     36  N         31.6000   -6.4750  -21.0080 N.3    33  PRO33      -0.2116
     37  CA        30.7470   -5.2880  -21.0530 C.3    33  PRO33       0.1372
     38  C         29.9360   -5.1580  -22.3500 C.2    33  PRO33       0.2244
     39  O         29.0920   -4.2620  -22.4170 O.2    33  PRO33      -0.2868
     40  CB        31.7600   -4.1250  -20.9670 C.3    33  PRO33       0.0268
     41  CG        33.0510   -4.7180  -21.5170 C.3    33  PRO33       0.0207
     42  CD        33.0370   -6.1420  -21.0070 C.3    33  PRO33       0.0892
     43  N         21.2950   -4.3220  -19.6630 N.3    57  THR57      -0.1203
     44  CA        21.6710   -3.4380  -20.7860 C.3    57  THR57       0.1994
     45  C         23.1860   -3.3280  -20.8520 C.2    57  THR57       0.2618
     46  O         23.8590   -3.3520  -19.8200 O.2    57  THR57      -0.2717
     47  CB        20.9650   -2.0710  -20.7560 C.3    57  THR57       0.1784
     48  OG1       21.3710   -1.3540  -19.6090 O.3    57  THR57      -0.2211
     49  CG2       19.4690   -2.2000  -20.7610 C.3    57  THR57       0.0376
     50  N         23.7190   -3.2380  -22.0730 N.am   58  ALA58      -0.1965
     51  CA        25.1980   -3.2180  -22.2460 C.3    58  ALA58       0.1728
     52  C         25.5490   -2.6930  -23.6380 C.2    58  ALA58       0.2617
     53  O         24.7260   -1.9890  -24.2470 O.2    58  ALA58      -0.2715
     54  CB        25.7660   -4.6100  -22.0200 C.3    58  ALA58       0.0334
     55  N         26.7400   -3.0280  -24.1290 N.am   59  GLY59      -0.1940
     56  CA        27.1240   -2.7260  -25.5230 C.3    59  GLY59       0.2014
     57  C         27.5100   -1.2750  -25.6340 C.2    59  GLY59       0.2639
     58  O         28.3910   -0.8360  -24.8780 O.2    59  GLY59      -0.2714
     59  N         26.9150   -0.5560  -26.5800 N.am   60  GLN60      -0.1963
     60  CA        27.3000    0.8360  -26.9260 C.3    60  GLN60       0.1733
     61  C         26.1330    1.7720  -26.6070 C.2    60  GLN60       0.2616
     62  O         25.0030    1.3270  -26.6090 O.2    60  GLN60      -0.2715
     63  CB        27.6710    0.9260  -28.4080 C.3    60  GLN60       0.0408
     64  CG        28.7720   -0.0360  -28.8090 C.3    60  GLN60       0.0908
     65  CD        30.1690    0.5010  -28.6150 C.2    60  GLN60       0.2608
     66  OE1       30.5950    1.4070  -29.3250 O.2    60  GLN60      -0.2717
     67  NE2       30.9080   -0.0820  -27.6800 N.am   60  GLN60      -0.0878
     68  N         26.4280    3.0220  -26.2530 N.am   61  GLU61      -0.1963
     69  CA        25.3910    4.0770  -26.2480 C.3    61  GLU61       0.1733
     70  C         24.9210    4.3220  -27.7070 C.2    61  GLU61       0.2616
     71  O         25.6790    4.8410  -28.4910 O.2    61  GLU61      -0.2715
     72  CB        25.9130    5.3470  -25.5750 C.3    61  GLU61       0.0429
     73  CG        24.8730    6.4450  -25.6520 C.3    61  GLU61       0.1163
     74  CD        25.2320    7.7670  -25.0310 C.2    61  GLU61       0.3649
     75  OE1       26.3750    7.8580  -24.4650 O.co2  61  GLU61      -0.2457
     76  OE2       24.3560    8.6660  -25.1070 O.co2  61  GLU61      -0.2457
     77  N         23.7210    3.8920  -28.0850 N.am   62  GLU62      -0.1963
     78  CA        23.1230    4.1660  -29.4310 C.3    62  GLU62       0.1733
     79  C         21.6020    4.1320  -29.2960 C.2    62  GLU62       0.2616
     80  O         21.1490    3.5000  -28.3170 O.2    62  GLU62      -0.2715
     81  CB        23.6200    3.1790  -30.5040 C.3    62  GLU62       0.0429
     82  CG        23.2970    1.7170  -30.2540 C.3    62  GLU62       0.1163
     83  CD        21.8960    1.1610  -30.5710 C.2    62  GLU62       0.3649
     84  OE1       21.0910    1.8070  -31.2860 O.co2  62  GLU62      -0.2457
     85  OE2       21.6200    0.0260  -30.1130 O.co2  62  GLU62      -0.2457
     86  N         20.8710    4.7710  -30.2390 N.am   63  TYR63      -0.1974
     87  CA        19.4380    5.1380  -30.1040 C.3    63  TYR63       0.1639
     88  C         18.6240    4.7660  -31.3420 C.2    63  TYR63       0.2290
     89  O         17.7350    5.5510  -31.7660 O.2    63  TYR63      -0.2864
     90  CB        19.3300    6.6410  -29.8620 C.3    63  TYR63       0.0560
     91  CG        20.0070    7.0570  -28.5840 C.ar   63  TYR63      -0.0198
     92  CD1       21.3440    7.4270  -28.5680 C.ar   63  TYR63      -0.0009
     93  CD2       19.3340    7.0170  -27.3730 C.ar   63  TYR63      -0.0009
     94  CE1       21.9910    7.7760  -27.3910 C.ar   63  TYR63       0.0417
     95  CE2       19.9620    7.3680  -26.1870 C.ar   63  TYR63       0.0417
     96  CZ        21.2900    7.7540  -26.1910 C.ar   63  TYR63       0.1957
     97  OH        21.8890    8.0970  -25.0080 O.3    63  TYR63      -0.2866
     98  N         16.2380   -0.1720  -30.6280 N.3    67  ARG67      -0.1231
     99  CA        16.7110   -0.0540  -29.2250 C.3    67  ARG67       0.1694
    100  C         15.5640    0.5230  -28.4030 C.2    67  ARG67       0.2592
    101  O         15.2210   -0.0440  -27.3480 O.2    67  ARG67      -0.2718
    102  CB        17.9250    0.8580  -29.0770 C.3    67  ARG67       0.0321
    103  CG        18.5560    0.8120  -27.6950 C.3    67  ARG67       0.0489
    104  CD        19.6200   -0.2460  -27.7450 C.3    67  ARG67       0.2205
    105  NE        20.3400   -0.5850  -26.5290 N.pl3  67  ARG67      -0.0865
    106  CZ        21.6320   -0.3300  -26.3030 C.cat  67  ARG67       0.5346
    107  NH1       22.3570    0.4010  -27.1450 N.pl3  67  ARG67       0.1354
    108  NH2       22.1990   -0.7810  -25.2020 N.pl3  67  ARG67       0.1354
    109  N         14.9700    1.6120  -28.8860 N.am   68  ASP68      -0.1974
    110  CA        13.8280    2.2060  -28.1600 C.3    68  ASP68       0.1709
    111  C         12.7660    1.1280  -27.9380 C.2    68  ASP68       0.2293
    112  O         12.1740    1.1200  -26.8220 O.2    68  ASP68      -0.2864
    113  CB        13.2000    3.3540  -28.9310 C.3    68  ASP68       0.1436
    114  CG        13.9660    4.6420  -28.8620 C.2    68  ASP68       0.3671
    115  OD1       15.0360    4.6580  -28.2120 O.co2  68  ASP68      -0.2456
    116  OD2       13.4730    5.6190  -29.4580 O.co2  68  ASP68      -0.2456
    117  N         13.7310   -1.3100  -25.0930 N.3    71  MET71      -0.1245
    118  CA        13.7050   -0.5610  -23.8140 C.3    71  MET71       0.1570
    119  C         12.2550   -0.2380  -23.3800 C.2    71  MET71       0.2261
    120  O         11.9670   -0.3480  -22.1650 O.2    71  MET71      -0.2867
    121  CB        14.5520    0.7050  -23.9280 C.3    71  MET71       0.0387
    122  CG        16.0150    0.4070  -24.2090 C.3    71  MET71       0.0595
    123  SD        16.7420   -0.5630  -22.8480 S.3    71  MET71      -0.1393
    124  CE        16.9570    0.7740  -21.6840 C.3    71  MET71       0.0692
    125  N         12.3700   -0.2440  -14.1220 N.3    77  PHE77      -0.1241
    126  CA        13.7970   -0.0050  -14.4040 C.3    77  PHE77       0.1605
    127  C         14.5830    0.0910  -13.1100 C.2    77  PHE77       0.2264
    128  O         14.1170    0.8390  -12.2090 O.2    77  PHE77      -0.2867
    129  CB        13.9380    1.2700  -15.2130 C.3    77  PHE77       0.0534
    130  CG        13.3340    1.1380  -16.5830 C.ar   77  PHE77      -0.0203
    131  CD1       11.9720    1.2620  -16.7510 C.ar   77  PHE77      -0.0042
    132  CD2       14.1270    0.8340  -17.6810 C.ar   77  PHE77      -0.0042
    133  CE1       11.4020    1.1280  -18.0050 C.ar   77  PHE77      -0.0003
    134  CE2       13.5560    0.7170  -18.9410 C.ar   77  PHE77      -0.0003
    135  CZ        12.1900    0.8590  -19.0950 C.ar   77  PHE77      -0.0000
    136  N         20.1300   11.2610  -17.0730 N.3    94  HIS94      -0.1226
    137  CA        20.0480   10.7600  -18.4680 C.3    94  HIS94       0.1752
    138  C         19.1100    9.5430  -18.5160 C.2    94  HIS94       0.2596
    139  O         18.2080    9.4980  -19.3720 O.2    94  HIS94      -0.2718
    140  CB        21.4620   10.4600  -18.9640 C.3    94  HIS94       0.0759
    141  CG        21.4970    9.7190  -20.2580 C.ar   94  HIS94       0.0818
    142  ND1       21.0830   10.2880  -21.4340 N.ar   94  HIS94      -0.2268
    143  CD2       21.9490    8.4920  -20.5820 C.ar   94  HIS94       0.1154
    144  CE1       21.2480    9.4430  -22.4300 C.ar   94  HIS94       0.1986
    145  NE2       21.7750    8.3220  -21.9420 N.ar   94  HIS94      -0.2212
    146  N         19.3020    8.5450  -17.6480 N.am   95  TYR95      -0.1976
    147  CA        18.5290    7.2820  -17.7480 C.3    95  TYR95       0.1639
    148  C         17.0600    7.5810  -17.4510 C.2    95  TYR95       0.2290
    149  O         16.1770    7.0810  -18.1480 O.2    95  TYR95      -0.2864
    150  CB        19.1300    6.1770  -16.8800 C.3    95  TYR95       0.0560
    151  CG        20.4290    5.7260  -17.4730 C.ar   95  TYR95      -0.0198
    152  CD1       20.4460    4.9880  -18.6320 C.ar   95  TYR95      -0.0009
    153  CD2       21.6430    6.1350  -16.9570 C.ar   95  TYR95      -0.0009
    154  CE1       21.6380    4.5850  -19.2300 C.ar   95  TYR95       0.0417
    155  CE2       22.8370    5.7410  -17.5400 C.ar   95  TYR95       0.0417
    156  CZ        22.8460    4.9990  -18.7150 C.ar   95  TYR95       0.1957
    157  OH        24.0280    4.5780  -19.3120 O.3    95  TYR95      -0.2866
    158  N         15.5450    9.2110  -20.5650 N.3    98  GLN98      -0.1231
    159  CA        15.4060    8.2490  -21.6900 C.3    98  GLN98       0.1698
    160  C         14.2020    7.3190  -21.4090 C.2    98  GLN98       0.2592
    161  O         13.4510    7.0260  -22.3640 O.2    98  GLN98      -0.2718
    162  CB        16.7370    7.5500  -21.9290 C.3    98  GLN98       0.0381
    163  CG        17.8010    8.5020  -22.4640 C.3    98  GLN98       0.0905
    164  CD        17.2940    9.2060  -23.7030 C.2    98  GLN98       0.2608
    165  OE1       16.8130    8.5490  -24.6390 O.2    98  GLN98      -0.2717
    166  NE2       17.3480   10.5440  -23.7030 N.am   98  GLN98      -0.0878
    167  N         14.0120    6.8840  -20.1530 N.am   99  ILE99      -0.1980
    168  CA        12.8310    6.0860  -19.7380 C.3    99  ILE99       0.1595
    169  C         11.5870    6.9510  -19.9990 C.2    99  ILE99       0.2287
    170  O         10.6510    6.4420  -20.6690 O.2    99  ILE99      -0.2864
    171  CB        12.9870    5.5970  -18.2700 C.3    99  ILE99       0.0276
    172  CG1       14.1620    4.6110  -18.1320 C.3    99  ILE99       0.0022
    173  CG2       11.6920    4.9700  -17.7600 C.3    99  ILE99       0.0022
    174  CD1       14.6880    4.4380  -16.7190 C.3    99  ILE99       0.0001
    175  N         11.2240    9.3820  -22.0090 N.3   101  ARG101     -0.1231
    176  CA        11.1110    9.5480  -23.4780 C.3   101  ARG101      0.1694
    177  C         10.4350    8.3070  -24.0750 C.2   101  ARG101      0.2591
    178  O          9.4570    8.5130  -24.8210 O.2   101  ARG101     -0.2718
    179  CB        12.4640    9.8300  -24.1430 C.3   101  ARG101      0.0321
    180  CG        12.3480   10.1610  -25.6280 C.3   101  ARG101      0.0489
    181  CD        13.6870   10.3780  -26.2790 C.3   101  ARG101      0.2205
    182  NE        14.5580    9.2300  -26.2260 N.pl3 101  ARG101     -0.0865
    183  CZ        14.4970    8.1550  -27.0070 C.cat 101  ARG101      0.5346
    184  NH1       13.6140    8.0790  -27.9730 N.pl3 101  ARG101      0.1354
    185  NH2       15.3430    7.1510  -26.8400 N.pl3 101  ARG101      0.1354
    186  N         10.9300    7.0800  -23.8260 N.am  102  VAL102     -0.1980
    187  CA        10.4590    5.9040  -24.6180 C.3   102  VAL102      0.1595
    188  C          9.1130    5.4200  -24.0870 C.2   102  VAL102      0.2287
    189  O          8.3920    4.8250  -24.8640 O.2   102  VAL102     -0.2864
    190  CB        11.4550    4.7350  -24.7020 C.3   102  VAL102      0.0276
    191  CG1       12.7080    5.1570  -25.3770 C.3   102  VAL102      0.0022
    192  CG2       11.7420    4.0690  -23.3870 C.3   102  VAL102      0.0022
@<TRIPOS>BOND
     1    89    88    2
     2    88    87    1
     3    84    83   ar
     4    98    99    1
     5    83    82    1
     6    83    85   ar
     7    81    82    1
     8    81    78    1
     9    86    87    1
    10    86    79   am
    11    87    90    1
    12    90    91    1
    13   116   114   ar
    14    78    79    1
    15    78    77    1
    16    66    65    2
    17    79    80    2
    18    99   102    1
    19    99   100    1
    20   102   103    1
    21   113   114    1
    22   113   110    1
    23   109   100   am
    24   109   110    1
    25   114   115   ar
    26    64    65    1
    27    64    63    1
    28    65    67   am
    29    91    92   ar
    30    91    93   ar
    31    92    94   ar
    32    71    70    2
    33    63    60    1
    34   100   101    2
    35   110   111    1
    36    77    70   am
    37   184   183    1
    38   111   112    2
    39   104   103    1
    40   104   105    1
    41    70    69    1
    42    94    96   ar
    43    93    95   ar
    44   107   106    1
    45   183   185    1
    46   183   182    2
    47    60    61    1
    48    60    59    1
    49    62    61    2
    50    61    68   am
    51    59    57   am
    52   105   106    2
    53   106   108    1
    54   181   182    1
    55   181   180    1
    56    68    69    1
    57    69    72    1
    58    96    95   ar
    59    96    97    1
    60    73    72    1
    61    73    74    1
    62    57    56    1
    63    57    58    2
    64   180   179    1
    65    56    55    1
    66   191   190    1
    67    76    74   ar
    68   117   118    1
    69    74    75   ar
    70   189   188    2
    71   178   177    2
    72   190   187    1
    73   190   192    1
    74   165   164    2
    75   187   188    1
    76   187   186    1
    77    53    52    2
    78   122   121    1
    79   122   123    1
    80   179   176    1
    81    55    52   am
    82   177   186   am
    83   177   176    1
    84   121   118    1
    85   118   119    1
    86   166   164   am
    87   164   163    1
    88    52    51    1
    89   176   175    1
    90   119   120    2
    91   123   124    1
    92   163   162    1
    93   144   145   ar
    94   144   142   ar
    95    39    38    2
    96   161   160    2
    97    38    37    1
    98    51    50    1
    99    51    54    1
   100    50    45   am
   101   145   143   ar
   102   162   159    1
   103   159   160    1
   104   159   158    1
   105    41    42    1
   106    41    40    1
   107   142   141   ar
   108   160   167   am
   109    37    36    1
   110    37    40    1
   111    36    42    1
   112    45    44    1
   113    45    46    2
   114    44    47    1
   115    44    43    1
   116    49    47    1
   117    47    48    1
   118   170   169    2
   119   143   141   ar
   120    22    21    1
   121   141   140    1
   122   167   168    1
   123   169   168    1
   124   168   171    1
   125   139   138    2
   126   157   156    1
   127   154   156   ar
   128   154   152   ar
   129   135   134   ar
   130   135   133   ar
   131   140   137    1
   132   134   132   ar
   133   156   155   ar
   134    21    18    1
   135   152   151   ar
   136   138   137    1
   137   138   146   am
   138   137   136    1
   139     6     5    1
   140   171   172    1
   141   171   173    1
   142   149   148    2
   143   172   174    1
   144   133   131   ar
   145   147   146    1
   146   147   148    1
   147   147   150    1
   148    18    17    1
   149    18    19    1
   150    17    14   am
   151   132   130   ar
   152    34    35    1
   153    34    33    1
   154   155   153   ar
   155    11    10    2
   156   151   153   ar
   157   151   150    1
   158     5     2    1
   159     5     7    1
   160    14    13    1
   161    14    15    2
   162    13    12    1
   163    13    16    1
   164   131   130   ar
   165     2     1    1
   166     2     3    1
   167   130   129    1
   168    10    12   am
   169    10     9    1
   170     8     3   am
   171     8     9    1
   172    33    32    1
   173    19    23   am
   174    19    20    2
   175    23    24    1
   176     3     4    2
   177   129   126    1
   178    31    32    1
   179    31    28    1
   180    24    25    1
   181   126   125    1
   182   126   127    1
   183    29    28    1
   184    29    30    2
   185    28    27    1
   186    25    26    2
   187   127   128    2
