@<TRIPOS>MOLECULE
tmp/6n2kA01.pdb
 209 202 0 0 0
SMALL
GASTEIGER

@<TRIPOS>ATOM
      1  N         19.8610   -0.2940  -16.0650 N.3     9  VAL9       -0.1231
      2  CA        20.6040    0.8100  -16.7630 C.3     9  VAL9        0.1692
      3  C         21.6710    1.4070  -15.8440 C.2     9  VAL9        0.2593
      4  O         21.5870    1.2410  -14.5840 O.2     9  VAL9       -0.2718
      5  CB        19.6590    1.8840  -17.3220 C.3     9  VAL9        0.0266
      6  CG1       18.5970    1.2670  -18.2000 C.3     9  VAL9        0.0020
      7  CG2       19.0520    2.7510  -16.2280 C.3     9  VAL9        0.0020
      8  N         22.6540    2.0710  -16.4940 N.am   10  GLY10      -0.1942
      9  CA        23.7150    2.7830  -15.7760 C.3    10  GLY10       0.2014
     10  C         25.0110    2.6840  -16.5520 C.2    10  GLY10       0.2639
     11  O         25.1140    1.8360  -17.4940 O.2    10  GLY10      -0.2714
     12  N         25.9400    3.5470  -16.2040 N.am   11  ALA11      -0.1963
     13  CA        27.2640    3.6820  -16.8340 C.3    11  ALA11       0.1728
     14  C         28.0180    2.3470  -16.8180 C.2    11  ALA11       0.2616
     15  O         27.7340    1.4680  -16.0200 O.2    11  ALA11      -0.2715
     16  CB        28.0350    4.8120  -16.2010 C.3    11  ALA11       0.0334
     17  N         29.0040    2.2410  -17.7030 N.am   12  CYS12      -0.1954
     18  CA        29.9720    1.1380  -17.6770 C.3    12  CYS12       0.1843
     19  C         30.5430    0.9660  -16.2650 C.2    12  CYS12       0.2626
     20  O         30.9630    1.9630  -15.6180 O.2    12  CYS12      -0.2714
     21  CB        31.1060    1.4190  -18.6500 C.3    12  CYS12       0.0997
     22  SG        30.5360    1.2270  -20.3530 S.3    12  CYS12      -0.0797
     23  N         30.6490   -0.2760  -15.8560 N.am   13  GLY13      -0.1954
     24  CA        31.4130   -0.6380  -14.6670 C.3    13  GLY13       0.1869
     25  C         30.6700   -0.4510  -13.3550 C.2    13  GLY13       0.2309
     26  O         31.2820   -0.7310  -12.3180 O.2    13  GLY13      -0.2863
     27  N         26.1190   -3.5840  -13.2750 N.3    16  LYS16      -0.1245
     28  CA        24.8240   -4.0810  -13.7940 C.3    16  LYS16       0.1561
     29  C         24.8710   -5.5800  -14.0190 C.2    16  LYS16       0.2260
     30  O         23.9460   -6.2960  -13.5580 O.2    16  LYS16      -0.2867
     31  CB        24.4670   -3.3550  -15.0820 C.3    16  LYS16       0.0271
     32  CG        24.3610   -1.8380  -14.9590 C.3    16  LYS16       0.0035
     33  CD        24.0200   -1.1950  -16.2840 C.3    16  LYS16       0.0206
     34  CE        25.0170   -1.4220  -17.4210 C.3    16  LYS16       0.1093
     35  NZ        26.3490   -0.8230  -17.1220 N.3    16  LYS16      -0.1314
     36  N         31.7140   -6.4980  -21.1090 N.3    34  PRO34      -0.2116
     37  CA        30.8750   -5.2850  -21.1610 C.3    34  PRO34       0.1372
     38  C         30.1790   -5.0880  -22.5110 C.2    34  PRO34       0.2244
     39  O         29.4050   -4.1350  -22.6600 O.2    34  PRO34      -0.2868
     40  CB        31.8790   -4.1660  -20.8840 C.3    34  PRO34       0.0268
     41  CG        33.1970   -4.7040  -21.4540 C.3    34  PRO34       0.0207
     42  CD        33.1410   -6.1810  -21.1480 C.3    34  PRO34       0.0892
     43  N         21.7020   -4.1060  -19.6070 N.3    58  THR58      -0.1203
     44  CA        22.1070   -3.1970  -20.7220 C.3    58  THR58       0.1994
     45  C         23.6230   -3.1380  -20.8070 C.2    58  THR58       0.2618
     46  O         24.3300   -3.1680  -19.7790 O.2    58  THR58      -0.2717
     47  CB        21.4410   -1.8200  -20.6030 C.3    58  THR58       0.1784
     48  OG1       21.9930   -1.1710  -19.4530 O.3    58  THR58      -0.2211
     49  CG2       19.9280   -1.8740  -20.5570 C.3    58  THR58       0.0376
     50  N         24.1510   -2.9940  -22.0250 N.am   59  ALA59      -0.1965
     51  CA        25.6020   -3.0210  -22.2180 C.3    59  ALA59       0.1728
     52  C         25.9760   -2.4900  -23.5970 C.2    59  ALA59       0.2617
     53  O         25.1770   -1.8040  -24.2180 O.2    59  ALA59      -0.2715
     54  CB        26.0890   -4.4590  -21.9940 C.3    59  ALA59       0.0334
     55  N         27.1870   -2.7870  -24.0390 N.am   60  GLY60      -0.1940
     56  CA        27.5910   -2.4760  -25.4170 C.3    60  GLY60       0.2014
     57  C         27.7810   -0.9810  -25.6640 C.2    60  GLY60       0.2639
     58  O         28.4340   -0.3020  -24.8470 O.2    60  GLY60      -0.2714
     59  N         27.3580   -0.5280  -26.8320 N.am   61  GLN61      -0.1963
     60  CA        27.5130    0.8710  -27.2810 C.3    61  GLN61       0.1733
     61  C         26.3450    1.7080  -26.7800 C.2    61  GLN61       0.2616
     62  O         25.2330    1.2240  -26.7600 O.2    61  GLN61      -0.2715
     63  CB        27.6060    0.9830  -28.8170 C.3    61  GLN61       0.0408
     64  CG        28.8460    0.3030  -29.3350 C.3    61  GLN61       0.0908
     65  CD        30.0800    1.0560  -28.9050 C.2    61  GLN61       0.2608
     66  OE1       30.3650    2.1590  -29.4020 O.2    61  GLN61      -0.2717
     67  NE2       30.8170    0.4740  -27.9770 N.am   61  GLN61      -0.0878
     68  N         26.6140    2.9760  -26.4840 N.am   62  GLU62      -0.1963
     69  CA        25.5340    3.9660  -26.3060 C.3    62  GLU62       0.1733
     70  C         25.1720    4.4360  -27.7130 C.2    62  GLU62       0.2616
     71  O         26.0010    5.1390  -28.3790 O.2    62  GLU62      -0.2715
     72  CB        25.9960    5.1090  -25.4210 C.3    62  GLU62       0.0429
     73  CG        24.9150    6.1700  -25.2750 C.3    62  GLU62       0.1163
     74  CD        25.2890    7.3900  -24.4510 C.2    62  GLU62       0.3649
     75  OE1       26.4310    7.4300  -23.8900 O.co2  62  GLU62      -0.2457
     76  OE2       24.4200    8.2820  -24.3520 O.co2  62  GLU62      -0.2457
     77  N         24.0000    4.0120  -28.1880 N.am   63  GLU63      -0.1963
     78  CA        23.4380    4.3940  -29.4930 C.3    63  GLU63       0.1733
     79  C         21.9220    4.3440  -29.3560 C.2    63  GLU63       0.2616
     80  O         21.4000    3.6880  -28.4250 O.2    63  GLU63      -0.2715
     81  CB        23.9290    3.5350  -30.6640 C.3    63  GLU63       0.0429
     82  CG        23.7370    2.0260  -30.5240 C.3    63  GLU63       0.1163
     83  CD        22.3530    1.4870  -30.8560 C.2    63  GLU63       0.3649
     84  OE1       21.6160    2.1320  -31.6790 O.co2  63  GLU63      -0.2457
     85  OE2       21.9860    0.4250  -30.2830 O.co2  63  GLU63      -0.2457
     86  N         21.2530    5.0670  -30.2290 N.am   64  TYR64      -0.1974
     87  CA        19.8260    5.4120  -30.0780 C.3    64  TYR64       0.1639
     88  C         19.0900    5.0680  -31.3570 C.2    64  TYR64       0.2290
     89  O         18.2530    5.8260  -31.7620 O.2    64  TYR64      -0.2864
     90  CB        19.6690    6.8890  -29.7420 C.3    64  TYR64       0.0560
     91  CG        20.2400    7.2180  -28.3930 C.ar   64  TYR64      -0.0198
     92  CD1       19.4790    7.1010  -27.2440 C.ar   64  TYR64      -0.0009
     93  CD2       21.5660    7.5870  -28.2560 C.ar   64  TYR64      -0.0009
     94  CE1       20.0300    7.2980  -25.9880 C.ar   64  TYR64       0.0417
     95  CE2       22.0960    7.8510  -26.9990 C.ar   64  TYR64       0.0417
     96  CZ        21.3380    7.6950  -25.8570 C.ar   64  TYR64       0.1957
     97  OH        21.8960    7.9290  -24.6070 O.3    64  TYR64      -0.2866
     98  N         16.8710    0.0400  -30.6340 N.3    68  ARG68      -0.1231
     99  CA        17.3450    0.1330  -29.2320 C.3    68  ARG68       0.1694
    100  C         16.2360    0.7670  -28.3870 C.2    68  ARG68       0.2592
    101  O         15.9700    0.2740  -27.2510 O.2    68  ARG68      -0.2718
    102  CB        18.6690    0.8670  -29.1650 C.3    68  ARG68       0.0321
    103  CG        19.3910    0.6600  -27.8470 C.3    68  ARG68       0.0489
    104  CD        20.0770   -0.7020  -27.8410 C.3    68  ARG68       0.2205
    105  NE        20.9230   -0.9290  -26.6730 N.pl3  68  ARG68      -0.0865
    106  CZ        22.1340   -0.4050  -26.5310 C.cat  68  ARG68       0.5346
    107  NH1       22.6200    0.3930  -27.4660 N.pl3  68  ARG68       0.1354
    108  NH2       22.8510   -0.6530  -25.4620 N.pl3  68  ARG68       0.1354
    109  N         15.5630    1.7790  -28.9200 N.am   69  ASP69      -0.1974
    110  CA        14.4590    2.4560  -28.1790 C.3    69  ASP69       0.1709
    111  C         13.4070    1.3910  -27.8380 C.2    69  ASP69       0.2293
    112  O         12.8480    1.4010  -26.7100 O.2    69  ASP69      -0.2864
    113  CB        13.7920    3.5230  -29.0410 C.3    69  ASP69       0.1436
    114  CG        14.4660    4.8880  -29.0420 C.2    69  ASP69       0.3671
    115  OD1       15.5610    5.0390  -28.3900 O.co2  69  ASP69      -0.2456
    116  OD2       13.8850    5.8130  -29.6980 O.co2  69  ASP69      -0.2456
    117  N         14.3600   -0.9570  -24.9510 N.3    72  MET72      -0.1245
    118  CA        14.2860   -0.2710  -23.6590 C.3    72  MET72       0.1570
    119  C         12.7970   -0.0520  -23.3240 C.2    72  MET72       0.2261
    120  O         12.4330   -0.1940  -22.1550 O.2    72  MET72      -0.2867
    121  CB        15.0590    1.0520  -23.6880 C.3    72  MET72       0.0387
    122  CG        16.5180    0.9100  -24.0570 C.3    72  MET72       0.0595
    123  SD        17.4270   -0.1810  -22.8520 S.3    72  MET72      -0.1393
    124  CE        18.7730   -0.7400  -23.9070 C.3    72  MET72       0.0692
    125  N         12.6510    0.0590  -14.2300 N.3    78  PHE78      -0.1241
    126  CA        14.0710    0.3360  -14.4730 C.3    78  PHE78       0.1605
    127  C         14.8230    0.4060  -13.1490 C.2    78  PHE78       0.2264
    128  O         14.3980    1.1210  -12.2090 O.2    78  PHE78      -0.2867
    129  CB        14.1660    1.6300  -15.2820 C.3    78  PHE78       0.0534
    130  CG        13.5710    1.5210  -16.6580 C.ar   78  PHE78      -0.0203
    131  CD1       12.1990    1.6220  -16.8250 C.ar   78  PHE78      -0.0042
    132  CD2       14.3550    1.2580  -17.7700 C.ar   78  PHE78      -0.0042
    133  CE1       11.5990    1.4250  -18.0510 C.ar   78  PHE78      -0.0003
    134  CE2       13.7570    1.1340  -19.0020 C.ar   78  PHE78      -0.0003
    135  CZ        12.3980    1.2030  -19.1430 C.ar   78  PHE78      -0.0000
    136  N         30.6650   10.3160  -11.7310 N.3    88  LYS88      -0.1245
    137  CA        30.0940   10.4660  -13.0840 C.3    88  LYS88       0.1561
    138  C         28.8900    9.5340  -13.2460 C.2    88  LYS88       0.2260
    139  O         27.8910    9.9640  -13.8070 O.2    88  LYS88      -0.2867
    140  CB        31.1100   10.1770  -14.1910 C.3    88  LYS88       0.0271
    141  CG        30.6100   10.3200  -15.6430 C.3    88  LYS88       0.0035
    142  CD        30.1020   11.6760  -16.1960 C.3    88  LYS88       0.0206
    143  CE        30.0660   11.7580  -17.7370 C.3    88  LYS88       0.1093
    144  NZ        29.0270   10.9270  -18.4450 N.3    88  LYS88      -0.1314
    145  N         25.1160   10.6090  -14.2890 N.3    92  ASP92      -0.1239
    146  CA        24.4390   10.0070  -15.4650 C.3    92  ASP92       0.1674
    147  C         22.9720    9.6510  -15.1870 C.2    92  ASP92       0.2266
    148  O         22.2640    9.3900  -16.1370 O.2    92  ASP92      -0.2867
    149  CB        25.1720    8.7440  -15.9350 C.3    92  ASP92       0.1410
    150  CG        26.5250    8.9960  -16.5990 C.2    92  ASP92       0.3668
    151  OD1       26.7370   10.0990  -17.1870 O.co2  92  ASP92      -0.2456
    152  OD2       27.3720    8.1130  -16.5230 O.co2  92  ASP92      -0.2456
    153  N         20.2860   11.6580  -17.0150 N.3    95  HIS95      -0.1226
    154  CA        20.1880   11.2970  -18.4500 C.3    95  HIS95       0.1752
    155  C         19.2380   10.0910  -18.5910 C.2    95  HIS95       0.2596
    156  O         18.3700   10.0500  -19.4610 O.2    95  HIS95      -0.2718
    157  CB        21.5810   10.9750  -18.9750 C.3    95  HIS95       0.0759
    158  CG        21.6160   10.0440  -20.1450 C.ar   95  HIS95       0.0818
    159  ND1       21.1090   10.3920  -21.3740 N.ar   95  HIS95      -0.2268
    160  CD2       22.1280    8.7970  -20.2830 C.ar   95  HIS95       0.1154
    161  CE1       21.2830    9.3810  -22.2210 C.ar   95  HIS95       0.1986
    162  NE2       21.9420    8.4120  -21.5830 N.ar   95  HIS95      -0.2212
    163  N         19.4070    9.0680  -17.7520 N.am   96  TYR96      -0.1976
    164  CA        18.5560    7.8770  -17.8470 C.3    96  TYR96       0.1639
    165  C         17.1060    8.2520  -17.5170 C.2    96  TYR96       0.2290
    166  O         16.2200    7.7220  -18.1730 O.2    96  TYR96      -0.2864
    167  CB        19.1000    6.7630  -16.9700 C.3    96  TYR96       0.0560
    168  CG        20.2790    6.0380  -17.5390 C.ar   96  TYR96      -0.0198
    169  CD1       20.1450    5.2940  -18.7120 C.ar   96  TYR96      -0.0009
    170  CD2       21.5170    6.1570  -16.9620 C.ar   96  TYR96      -0.0009
    171  CE1       21.2060    4.5790  -19.2220 C.ar   96  TYR96       0.0417
    172  CE2       22.5970    5.4910  -17.5020 C.ar   96  TYR96       0.0417
    173  CZ        22.4420    4.6940  -18.6220 C.ar   96  TYR96       0.1957
    174  OH        23.5000    3.9730  -19.1080 O.3    96  TYR96      -0.2866
    175  N         15.7230    9.6620  -20.7290 N.3    99  GLN99      -0.1231
    176  CA        15.5190    8.6830  -21.8100 C.3    99  GLN99       0.1698
    177  C         14.3810    7.7220  -21.5030 C.2    99  GLN99       0.2592
    178  O         13.6220    7.3590  -22.4210 O.2    99  GLN99      -0.2718
    179  CB        16.8150    7.9470  -22.0870 C.3    99  GLN99       0.0381
    180  CG        17.9060    8.8200  -22.7100 C.3    99  GLN99       0.0905
    181  CD        17.3890    9.4770  -23.9670 C.2    99  GLN99       0.2608
    182  OE1       16.7810    8.8120  -24.8020 O.2    99  GLN99      -0.2717
    183  NE2       17.4750   10.8080  -24.0380 N.am   99  GLN99      -0.0878
    184  N         14.2370    7.3320  -20.2600 N.am  100  ILE100     -0.1980
    185  CA        13.0780    6.4790  -19.8480 C.3   100  ILE100      0.1595
    186  C         11.7560    7.2470  -20.0440 C.2   100  ILE100      0.2287
    187  O         10.8130    6.6810  -20.6200 O.2   100  ILE100     -0.2864
    188  CB        13.2700    5.9640  -18.4290 C.3   100  ILE100      0.0276
    189  CG1       14.4610    4.9900  -18.3350 C.3   100  ILE100      0.0022
    190  CG2       11.9980    5.3130  -17.9160 C.3   100  ILE100      0.0022
    191  CD1       14.9510    4.7730  -16.9320 C.3   100  ILE100      0.0001
    192  N         11.2320    9.6320  -22.1390 N.3   102  ARG102     -0.1231
    193  CA        11.0320    9.7200  -23.5970 C.3   102  ARG102      0.1694
    194  C         10.4230    8.4350  -24.1730 C.2   102  ARG102      0.2591
    195  O          9.3730    8.5120  -24.8750 O.2   102  ARG102     -0.2718
    196  CB        12.3530   10.0260  -24.3120 C.3   102  ARG102      0.0321
    197  CG        12.1820   10.2230  -25.8110 C.3   102  ARG102      0.0489
    198  CD        13.4710   10.5670  -26.5080 C.3   102  ARG102      0.2205
    199  NE        14.4870    9.5300  -26.4330 N.pl3 102  ARG102     -0.0865
    200  CZ        14.5670    8.4220  -27.1950 C.cat 102  ARG102      0.5346
    201  NH1       13.7150    8.1990  -28.1720 N.pl3 102  ARG102      0.1354
    202  NH2       15.5570    7.5690  -26.9930 N.pl3 102  ARG102      0.1354
    203  N         11.0130    7.2740  -23.9110 N.am  103  VAL103     -0.1980
    204  CA        10.5630    6.0260  -24.6100 C.3   103  VAL103      0.1595
    205  C          9.2410    5.5360  -24.0010 C.2   103  VAL103      0.2287
    206  O          8.4330    4.9480  -24.7250 O.2   103  VAL103     -0.2864
    207  CB        11.6210    4.9420  -24.7110 C.3   103  VAL103      0.0276
    208  CG1       12.8060    5.3850  -25.5660 C.3   103  VAL103      0.0022
    209  CG2       12.0720    4.3710  -23.3550 C.3   103  VAL103      0.0022
@<TRIPOS>BOND
     1    89    88    2
     2    84    83   ar
     3    88    87    1
     4    83    82    1
     5    83    85   ar
     6    81    82    1
     7    81    78    1
     8    98    99    1
     9    86    87    1
    10    86    79   am
    11    87    90    1
    12    90    91    1
    13   116   114   ar
    14    78    79    1
    15    78    77    1
    16    66    65    2
    17    79    80    2
    18    64    65    1
    19    64    63    1
    20    99   102    1
    21    99   100    1
    22   102   103    1
    23   114   113    1
    24   114   115   ar
    25   113   110    1
    26   109   100   am
    27   109   110    1
    28    65    67   am
    29    63    60    1
    30    91    93   ar
    31    91    92   ar
    32   100   101    2
    33    71    70    2
    34    93    95   ar
    35    77    70   am
    36   110   111    1
    37   201   200    1
    38   103   104    1
    39   104   105    1
    40   111   112    2
    41    70    69    1
    42   107   106    1
    43    60    59    1
    44    60    61    1
    45    92    94   ar
    46   200   202    1
    47   200   199    2
    48    95    96   ar
    49    59    57   am
    50    61    62    2
    51    61    68   am
    52   105   106    2
    53   106   108    1
    54   198   199    1
    55   198   197    1
    56    68    69    1
    57    69    72    1
    58    94    96   ar
    59    96    97    1
    60   197   196    1
    61    57    56    1
    62    57    58    2
    63   208   207    1
    64    72    73    1
    65    56    55    1
    66    73    74    1
    67   117   118    1
    68   195   194    2
    69   182   181    2
    70   206   205    2
    71   207   204    1
    72   207   209    1
    73   204   205    1
    74   204   203    1
    75    74    76   ar
    76    74    75   ar
    77   196   193    1
    78    53    52    2
    79   194   203   am
    80   194   193    1
    81   122   121    1
    82   122   123    1
    83    55    52   am
    84   183   181   am
    85   181   180    1
    86   124   123    1
    87   121   118    1
    88   118   119    1
    89   193   192    1
    90    52    51    1
    91   119   120    2
    92   180   179    1
    93    39    38    2
    94    38    37    1
    95   178   177    2
    96   161   162   ar
    97   161   159   ar
    98    51    50    1
    99    51    54    1
   100   179   176    1
   101    50    45   am
   102   176   177    1
   103   176   175    1
   104   162   160   ar
   105   177   184   am
   106    41    42    1
   107    41    40    1
   108   159   158   ar
   109    37    36    1
   110    37    40    1
   111    42    36    1
   112    45    44    1
   113    45    46    2
   114    44    47    1
   115    44    43    1
   116   187   186    2
   117    47    49    1
   118    47    48    1
   119    22    21    1
   120   160   158   ar
   121   184   185    1
   122   158   157    1
   123   186   185    1
   124   185   188    1
   125   156   155    2
   126   171   169   ar
   127   171   173   ar
   128   135   134   ar
   129   135   133   ar
   130   174   173    1
   131   134   132   ar
   132   157   154    1
   133   169   168   ar
   134    21    18    1
   135   173   172   ar
   136   155   154    1
   137   155   163   am
   138   154   153    1
   139   144   143    1
   140   188   189    1
   141   188   190    1
   142   189   191    1
   143     6     5    1
   144   166   165    2
   145   133   131   ar
   146   164   163    1
   147   164   165    1
   148   164   167    1
   149   132   130   ar
   150   143   142    1
   151    17    18    1
   152    17    14   am
   153    18    19    1
   154   168   167    1
   155   168   170   ar
   156   172   170   ar
   157    11    10    2
   158    34    35    1
   159    34    33    1
   160     5     2    1
   161     5     7    1
   162   151   150   ar
   163    13    14    1
   164    13    12    1
   165    13    16    1
   166   131   130   ar
   167    14    15    2
   168     2     1    1
   169     2     3    1
   170   130   129    1
   171   150   152   ar
   172   150   149    1
   173    10    12   am
   174    10     9    1
   175     8     3   am
   176     8     9    1
   177    33    32    1
   178    19    23   am
   179    19    20    2
   180   142   141    1
   181   148   147    2
   182   149   146    1
   183    23    24    1
   184     3     4    2
   185   141   140    1
   186   146   147    1
   187   146   145    1
   188   129   126    1
   189    31    32    1
   190    31    28    1
   191    24    25    1
   192   126   125    1
   193   126   127    1
   194   140   137    1
   195    29    28    1
   196    29    30    2
   197   139   138    2
   198    28    27    1
   199    25    26    2
   200   138   137    1
   201   127   128    2
   202   137   136    1
