@<TRIPOS>MOLECULE
tmp/6n2zP00.pdb
 144 139 0 0 0
SMALL
GASTEIGER

@<TRIPOS>ATOM
      1  N        196.9880  179.7300  227.6940 N.3   170  ARG170     -0.1231
      2  CA       198.2560  179.0730  227.9740 C.3   170  ARG170      0.1694
      3  C        199.1270  179.0240  226.7220 C.2   170  ARG170      0.2592
      4  O        198.6470  178.7050  225.6310 O.2   170  ARG170     -0.2718
      5  CB       197.9870  177.6680  228.5230 C.3   170  ARG170      0.0321
      6  CG       199.1980  176.8570  228.9400 C.3   170  ARG170      0.0489
      7  CD       199.5110  175.7680  227.9320 C.3   170  ARG170      0.2205
      8  NE       200.6730  174.9820  228.3310 N.pl3 170  ARG170     -0.0865
      9  CZ       201.2650  174.0860  227.5530 C.cat 170  ARG170      0.5346
     10  NH1      200.7990  173.8570  226.3340 N.pl3 170  ARG170      0.1354
     11  NH2      202.3260  173.4280  227.9900 N.pl3 170  ARG170      0.1354
     12  N        200.4120  179.3630  226.8970 N.am  171  GLN171     -0.1966
     13  CA       201.4420  179.3430  225.8450 C.3   171  GLN171      0.1733
     14  C        201.1050  180.2340  224.6500 C.2   171  GLN171      0.2617
     15  O        201.2560  179.8320  223.4970 O.2   171  GLN171     -0.2715
     16  CB       201.7500  177.9170  225.3840 C.3   171  GLN171      0.0408
     17  CG       202.5880  177.1260  226.3570 C.3   171  GLN171      0.0908
     18  CD       204.0150  177.6160  226.4210 C.2   171  GLN171      0.2608
     19  OE1      204.6160  177.9230  225.3950 O.2   171  GLN171     -0.2717
     20  NE2      204.5660  177.6910  227.6180 N.am  171  GLN171     -0.0878
     21  N        200.6630  181.4610  224.9190 N.am  172  THR172     -0.1937
     22  CA       200.4250  182.4410  223.8690 C.3   172  THR172      0.2028
     23  C        201.4250  183.5860  223.8720 C.2   172  THR172      0.2643
     24  O        201.3700  184.4340  222.9790 O.2   172  THR172     -0.2714
     25  CB       199.0110  183.0130  223.9800 C.3   172  THR172      0.1808
     26  OG1      198.8310  183.5860  225.2770 O.3   172  THR172     -0.2208
     27  CG2      197.9790  181.9360  223.7660 C.3   172  THR172      0.0379
     28  N        202.3280  183.6430  224.8370 N.am  173  GLY173     -0.1939
     29  CA       203.3720  184.6370  224.8460 C.3   173  GLY173      0.2014
     30  C        203.3410  185.6850  225.9530 C.2   173  GLY173      0.2639
     31  O        203.8270  186.7900  225.7280 O.2   173  GLY173     -0.2714
     32  N        202.7850  185.3730  227.1250 N.am  174  LYS174     -0.1963
     33  CA       202.6410  186.3670  228.1870 C.3   174  LYS174      0.1728
     34  C        203.9820  186.7080  228.8300 C.2   174  LYS174      0.2617
     35  O        204.3420  187.8900  228.9660 O.2   174  LYS174     -0.2715
     36  CB       201.6760  185.8370  229.2430 C.3   174  LYS174      0.0311
     37  CG       200.2510  185.6380  228.7730 C.3   174  LYS174      0.0038
     38  CD       199.3990  185.0930  229.8880 C.3   174  LYS174      0.0206
     39  CE       199.7520  183.6430  230.1040 C.3   174  LYS174      0.1093
     40  NZ       198.9590  182.9940  231.1590 N.3   174  LYS174     -0.1314
     41  N        204.7310  185.6800  229.2410 N.am  175  THR175     -0.1937
     42  CA       206.0200  185.8830  229.8950 C.3   175  THR175      0.2028
     43  C        207.0190  186.5330  228.9500 C.2   175  THR175      0.2642
     44  O        207.8870  187.2900  229.3900 O.2   175  THR175     -0.2714
     45  CB       206.5480  184.5410  230.4140 C.3   175  THR175      0.1808
     46  OG1      205.5550  183.9400  231.2490 O.3   175  THR175     -0.2208
     47  CG2      207.8140  184.6990  231.2420 C.3   175  THR175      0.0379
     48  N        206.8770  186.3000  227.6450 N.am  176  SER176     -0.1949
     49  CA       207.7500  186.9530  226.6830 C.3   176  SER176      0.1924
     50  C        207.4800  188.4460  226.6030 C.2   176  SER176      0.2314
     51  O        208.4220  189.2280  226.4720 O.2   176  SER176     -0.2863
     52  CB       207.5810  186.3110  225.3170 C.3   176  SER176      0.2116
     53  OG       207.9630  184.9530  225.3700 O.3   176  SER176     -0.2180
     54  N        204.9970  179.5580  239.6540 N.3   199  GLN199     -0.1245
     55  CA       205.7880  178.9780  238.5870 C.3   199  GLN199      0.1566
     56  C        206.7420  177.9270  239.1280 C.2   199  GLN199      0.2260
     57  O        207.1180  177.9380  240.2990 O.2   199  GLN199     -0.2867
     58  CB       206.5830  180.0510  237.8530 C.3   199  GLN199      0.0367
     59  CG       205.8040  180.8310  236.8390 C.3   199  GLN199      0.0905
     60  CD       206.6740  181.8270  236.1260 C.2   199  GLN199      0.2608
     61  OE1      207.7620  182.1490  236.5850 O.2   199  GLN199     -0.2717
     62  NE2      206.2480  182.2450  234.9520 N.am  199  GLN199     -0.0878
     63  N        203.4150  187.3020  237.3480 N.3   260  ASP260     -0.1239
     64  CA       203.4330  186.4490  236.1650 C.3   260  ASP260      0.1674
     65  C        202.2550  185.4870  236.0970 C.2   260  ASP260      0.2266
     66  O        201.9380  184.9990  235.0080 O.2   260  ASP260     -0.2867
     67  CB       204.7260  185.6570  236.0620 C.3   260  ASP260      0.1410
     68  CG       204.9270  185.0860  234.6770 C.2   260  ASP260      0.3668
     69  OD1      205.3690  185.8340  233.7860 O.co2 260  ASP260     -0.2456
     70  OD2      204.6060  183.8990  234.4670 O.co2 260  ASP260     -0.2456
     71  N        199.1150  189.2600  235.1740 N.3   317  PHE317     -0.1241
     72  CA       198.7730  188.2910  234.1450 C.3   317  PHE317      0.1605
     73  C        197.5860  187.4720  234.6180 C.2   317  PHE317      0.2264
     74  O        197.4320  187.2210  235.8110 O.2   317  PHE317     -0.2867
     75  CB       199.9130  187.3160  233.8240 C.3   317  PHE317      0.0534
     76  CG       201.1100  187.9260  233.1430 C.ar  317  PHE317     -0.0203
     77  CD1      201.1530  189.2530  232.7830 C.ar  317  PHE317     -0.0042
     78  CD2      202.1730  187.1260  232.7930 C.ar  317  PHE317     -0.0042
     79  CE1      202.2500  189.7700  232.1720 C.ar  317  PHE317     -0.0003
     80  CE2      203.2570  187.6430  232.1680 C.ar  317  PHE317     -0.0003
     81  CZ       203.2810  188.9630  231.8510 C.ar  317  PHE317     -0.0000
     82  N        195.8700  183.7640  233.2730 N.3   319  GLU319     -0.1245
     83  CA       195.7010  182.6490  232.3530 C.3   319  GLU319      0.1567
     84  C        194.2230  182.3130  232.2200 C.2   319  GLU319      0.2260
     85  O        193.5170  182.1860  233.2240 O.2   319  GLU319     -0.2867
     86  CB       196.4780  181.4360  232.8550 C.3   319  GLU319      0.0388
     87  CG       196.3740  180.2080  231.9760 C.3   319  GLU319      0.1160
     88  CD       197.1990  179.0520  232.5040 C.2   319  GLU319      0.3649
     89  OE1      197.8930  179.2380  233.5240 O.co2 319  GLU319     -0.2457
     90  OE2      197.1350  177.9510  231.9210 O.co2 319  GLU319     -0.2457
     91  N        198.4100  183.5250  217.3480 N.3   348  PHE348     -0.1241
     92  CA       199.7780  183.0900  217.6020 C.3   348  PHE348      0.1605
     93  C        200.2370  182.1000  216.5450 C.2   348  PHE348      0.2264
     94  O        201.3910  182.1460  216.1060 O.2   348  PHE348     -0.2867
     95  CB       199.8720  182.4640  218.9920 C.3   348  PHE348      0.0534
     96  CG       201.2670  182.1320  219.4320 C.ar  348  PHE348     -0.0203
     97  CD1      202.0790  183.0990  219.9940 C.ar  348  PHE348     -0.0042
     98  CD2      201.7590  180.8460  219.3000 C.ar  348  PHE348     -0.0042
     99  CE1      203.3530  182.7860  220.4160 C.ar  348  PHE348     -0.0003
    100  CE2      203.0340  180.5320  219.7030 C.ar  348  PHE348     -0.0003
    101  CZ       203.8310  181.5010  220.2640 C.ar  348  PHE348     -0.0000
    102  N        203.1770  186.9840  215.8260 N.3   353  ARG353     -0.1231
    103  CA       203.8200  186.8600  217.1270 C.3   353  ARG353      0.1679
    104  C        204.5720  188.1590  217.3840 C.2   353  ARG353      0.2434
    105  O        205.4890  188.4980  216.6100 O.2   353  ARG353     -0.2733
    106  CB       204.7450  185.6480  217.1670 C.3   353  ARG353      0.0321
    107  CG       203.9960  184.3420  217.1610 C.3   353  ARG353      0.0489
    108  CD       204.9360  183.1690  217.2420 C.3   353  ARG353      0.2205
    109  NE       205.7500  183.0450  216.0410 N.pl3 353  ARG353     -0.0865
    110  CZ       205.3860  182.3560  214.9680 C.cat 353  ARG353      0.5346
    111  NH1      204.2210  181.7280  214.9500 N.pl3 353  ARG353      0.1354
    112  NH2      206.1840  182.2960  213.9140 N.pl3 353  ARG353      0.1354
    113  N        204.2390  188.9280  218.4420 N.am  354  PRO354     -0.2729
    114  CA       203.3000  188.7730  219.5650 C.3   354  PRO354      0.1401
    115  C        201.8350  188.6600  219.1710 C.2   354  PRO354      0.2269
    116  O        201.4090  189.2890  218.2070 O.2   354  PRO354     -0.2865
    117  CB       203.5110  190.0520  220.3750 C.3   354  PRO354      0.0296
    118  CG       204.8350  190.5310  219.9960 C.3   354  PRO354      0.0237
    119  CD       204.9830  190.1890  218.5590 C.3   354  PRO354      0.0939
    120  N        207.1970  190.8830  215.6730 N.3   421  GLN421     -0.1231
    121  CA       208.5550  190.9790  216.1820 C.3   421  GLN421      0.1698
    122  C        209.0850  189.5860  216.4500 C.2   421  GLN421      0.2592
    123  O        208.3940  188.5820  216.2600 O.2   421  GLN421     -0.2718
    124  CB       208.6490  191.7990  217.4680 C.3   421  GLN421      0.0381
    125  CG       208.4610  193.2710  217.3060 C.3   421  GLN421      0.0905
    126  CD       208.6900  193.9920  218.5960 C.2   421  GLN421      0.2608
    127  OE1      208.9270  193.3720  219.6250 O.2   421  GLN421     -0.2717
    128  NE2      208.6280  195.3090  218.5560 N.am  421  GLN421     -0.0878
    129  N        210.3230  189.5370  216.9110 N.am  422  ASP422     -0.1960
    130  CA       210.9510  188.3110  217.3560 C.3   422  ASP422      0.1840
    131  C        211.1680  188.3830  218.8600 C.2   422  ASP422      0.2621
    132  O        210.7230  189.3160  219.5320 O.2   422  ASP422     -0.2715
    133  CB       212.2520  188.0670  216.5960 C.3   422  ASP422      0.1450
    134  CG       212.0180  187.6860  215.1510 C.2   422  ASP422      0.3671
    135  OD1      210.9620  187.0890  214.8590 O.co2 422  ASP422     -0.2456
    136  OD2      212.8900  187.9790  214.3070 O.co2 422  ASP422     -0.2456
    137  N        211.8680  187.3930  219.3890 N.am  423  LEU423     -0.1977
    138  CA       211.8690  187.1390  220.8180 C.3   423  LEU423      0.1596
    139  C        213.0610  187.8210  221.4780 C.2   423  LEU423      0.2287
    140  O        214.1980  187.6820  221.0150 O.2   423  LEU423     -0.2864
    141  CB       211.8940  185.6340  221.0690 C.3   423  LEU423      0.0297
    142  CG       211.5460  185.1520  222.4660 C.3   423  LEU423      0.0022
    143  CD1      210.1110  185.4860  222.7500 C.3   423  LEU423      0.0001
    144  CD2      211.7870  183.6660  222.5910 C.3   423  LEU423      0.0001
@<TRIPOS>BOND
     1   112   110    1
     2   136   134   ar
     3   135   134   ar
     4   111   110    1
     5   110   109    2
     6   134   133    1
     7   120   121    1
     8   102   103    1
     9   109   108    1
    10    94    93    2
    11   121   122    1
    12   121   124    1
    13   123   122    2
    14   122   129   am
    15    93    92    1
    16   133   130    1
    17   105   104    2
    18   129   130    1
    19   103   106    1
    20   103   104    1
    21   107   106    1
    22   107   108    1
    23   125   124    1
    24   125   126    1
    25    91    92    1
    26   130   131    1
    27   104   113   am
    28    92    95    1
    29   116   115    2
    30   113   119    1
    31   113   114    1
    32   128   126   am
    33   119   118    1
    34   126   127    2
    35   131   137   am
    36   131   132    2
    37    95    96    1
    38   115   114    1
    39    98    96   ar
    40    98   100   ar
    41   137   138    1
    42    96    97   ar
    43   114   117    1
    44   100   101   ar
    45    97    99   ar
    46   118   117    1
    47   101    99   ar
    48   138   141    1
    49   138   139    1
    50   140   139    2
    51   141   142    1
    52   142   144    1
    53   142   143    1
    54    24    23    2
    55    15    14    2
    56    27    25    1
    57    22    23    1
    58    22    25    1
    59    22    21    1
    60    23    28   am
    61    25    26    1
    62    14    21   am
    63    14    13    1
    64    28    29    1
    65    29    30    1
    66    52    53    1
    67    52    49    1
    68    16    13    1
    69    16    17    1
    70    19    18    2
    71     4     3    2
    72    31    30    2
    73    13    12    1
    74    30    32   am
    75    10     9    1
    76    17    18    1
    77    18    20   am
    78    51    50    2
    79    50    49    1
    80    49    48    1
    81     3    12   am
    82     3     2    1
    83    32    33    1
    84     9    11    1
    85     9     8    2
    86    48    43   am
    87     1     2    1
    88     7     8    1
    89     7     6    1
    90     2     5    1
    91    33    34    1
    92    33    36    1
    93     5     6    1
    94    37    36    1
    95    37    38    1
    96    34    35    2
    97    34    41   am
    98    43    44    2
    99    43    42    1
   100    41    42    1
   101    38    39    1
   102    42    45    1
   103    39    40    1
   104    45    47    1
   105    45    46    1
   106    81    80   ar
   107    81    79   ar
   108    90    88   ar
   109    87    88    1
   110    87    86    1
   111    80    78   ar
   112    79    77   ar
   113    84    83    1
   114    84    85    2
   115    83    86    1
   116    83    82    1
   117    88    89   ar
   118    77    76   ar
   119    78    76   ar
   120    76    75    1
   121    69    68   ar
   122    75    72    1
   123    72    73    1
   124    72    71    1
   125    70    68   ar
   126    73    74    2
   127    68    67    1
   128    62    60   am
   129    66    65    2
   130    67    64    1
   131    65    64    1
   132    60    61    2
   133    60    59    1
   134    64    63    1
   135    59    58    1
   136    58    55    1
   137    55    56    1
   138    55    54    1
   139    56    57    2
