@<TRIPOS>MOLECULE
tmp/6n2zQ00.pdb
 80 77 0 0 0
SMALL
GASTEIGER

@<TRIPOS>ATOM
      1  N        165.9170  196.5310  236.6030 N.3   322  SER322     -0.1217
      2  CA       164.5150  196.6100  236.9990 C.3   322  SER322      0.1889
      3  C        164.1110  198.0000  237.4820 C.2   322  SER322      0.2288
      4  O        162.9150  198.3000  237.5150 O.2   322  SER322     -0.2866
      5  CB       164.2180  195.5850  238.0900 C.3   322  SER322      0.2089
      6  OG       164.8860  195.9160  239.2900 O.3   322  SER322     -0.2183
      7  N        165.6070  200.9740  236.1540 N.3   324  LEU324     -0.1245
      8  CA       165.9910  202.0130  235.2130 C.3   324  LEU324      0.1561
      9  C        164.8000  202.5080  234.4100 C.2   324  LEU324      0.2260
     10  O        163.8200  201.7910  234.1970 O.2   324  LEU324     -0.2867
     11  CB       167.0620  201.5140  234.2500 C.3   324  LEU324      0.0270
     12  CG       168.4310  201.2100  234.8360 C.3   324  LEU324      0.0019
     13  CD1      169.3290  200.7560  233.7190 C.3   324  LEU324      0.0001
     14  CD2      169.0030  202.4110  235.5500 C.3   324  LEU324      0.0001
     15  N        164.2550  204.6990  226.0470 N.3   350  SER350     -0.1202
     16  CA       163.6840  205.3590  227.2100 C.3   350  SER350      0.2020
     17  C        162.2450  204.9170  227.4170 C.2   350  SER350      0.2618
     18  O        161.5760  204.4440  226.4960 O.2   350  SER350     -0.2717
     19  CB       163.7250  206.8750  227.0820 C.3   350  SER350      0.2103
     20  OG       163.1500  207.4880  228.2170 O.3   350  SER350     -0.2182
     21  N        161.7790  205.0940  228.6520 N.am  351  ARG351     -0.1979
     22  CA       160.3900  204.8280  228.9930 C.3   351  ARG351      0.1597
     23  C        159.5110  206.0290  228.6800 C.2   351  ARG351      0.2287
     24  O        158.3160  205.8700  228.4120 O.2   351  ARG351     -0.2864
     25  CB       160.2930  204.4570  230.4740 C.3   351  ARG351      0.0334
     26  CG       158.9610  203.9210  230.9250 C.3   351  ARG351      0.0492
     27  CD       158.9930  203.5500  232.3950 C.3   351  ARG351      0.2205
     28  NE       159.1390  204.7080  233.2690 N.pl3 351  ARG351     -0.0865
     29  CZ       158.1260  205.4720  233.6620 C.cat 351  ARG351      0.5346
     30  NH1      156.8930  205.2100  233.2570 N.pl3 351  ARG351      0.1354
     31  NH2      158.3430  206.5000  234.4620 N.pl3 351  ARG351      0.1354
     32  N        159.6670  207.9230  226.0320 N.3   353  LEU353     -0.1231
     33  CA       159.4660  208.1380  224.6000 C.3   353  LEU353      0.1693
     34  C        158.1250  207.5040  224.2360 C.2   353  LEU353      0.2592
     35  O        158.0370  206.4000  223.6950 O.2   353  LEU353     -0.2718
     36  CB       160.6380  207.5620  223.8120 C.3   353  LEU353      0.0284
     37  CG       161.0030  208.0520  222.4080 C.3   353  LEU353      0.0019
     38  CD1      160.1240  207.4880  221.3210 C.3   353  LEU353      0.0001
     39  CD2      160.9740  209.5640  222.3770 C.3   353  LEU353      0.0001
     40  N        157.0520  208.2310  224.5660 N.am  354  ALA354     -0.1966
     41  CA       155.6730  207.7760  224.4950 C.3   354  ALA354      0.1713
     42  C        154.8000  209.0130  224.4050 C.2   354  ALA354      0.2458
     43  O        155.0970  210.0020  225.0880 O.2   354  ALA354     -0.2730
     44  CB       155.2920  206.9390  225.7200 C.3   354  ALA354      0.0333
     45  N        153.7270  209.0020  223.6010 N.am  355  PRO355     -0.2716
     46  CA       153.0370  210.2600  223.2610 C.3   355  PRO355      0.1536
     47  C        152.3170  210.9400  224.4120 C.2   355  PRO355      0.2598
     48  O        151.9800  212.1220  224.2860 O.2   355  PRO355     -0.2715
     49  CB       152.0380  209.8270  222.1820 C.3   355  PRO355      0.0310
     50  CG       152.5970  208.5830  221.6280 C.3   355  PRO355      0.0237
     51  CD       153.2470  207.8850  222.7740 C.3   355  PRO355      0.0939
     52  N        152.0620  210.2490  225.5210 N.am  356  GLU356     -0.1964
     53  CA       151.4390  210.9180  226.6570 C.3   356  GLU356      0.1733
     54  C        152.4330  211.8000  227.3950 C.2   356  GLU356      0.2616
     55  O        152.0380  212.7790  228.0370 O.2   356  GLU356     -0.2715
     56  CB       150.8350  209.8920  227.6150 C.3   356  GLU356      0.0429
     57  CG       149.6430  209.1330  227.0600 C.3   356  GLU356      0.1163
     58  CD       150.0430  207.9130  226.2570 C.2   356  GLU356      0.3649
     59  OE1      151.2520  207.6050  226.2070 O.co2 356  GLU356     -0.2457
     60  OE2      149.1500  207.2700  225.6690 O.co2 356  GLU356     -0.2457
     61  N        153.7180  211.4750  227.3070 N.am  357  ILE357     -0.1977
     62  CA       154.7480  212.1300  228.0950 C.3   357  ILE357      0.1596
     63  C        155.4680  213.2080  227.2950 C.2   357  ILE357      0.2287
     64  O        155.6980  214.3080  227.7970 O.2   357  ILE357     -0.2864
     65  CB       155.7350  211.0680  228.6270 C.3   357  ILE357      0.0276
     66  CG1      154.9880  210.0420  229.4740 C.3   357  ILE357      0.0022
     67  CG2      156.8160  211.7040  229.4580 C.3   357  ILE357      0.0022
     68  CD1      155.8060  208.8310  229.8200 C.3   357  ILE357      0.0001
     69  N        157.0330  212.5260  219.5450 N.3   363  TYR363     -0.1241
     70  CA       157.0710  211.0760  219.3910 C.3   363  TYR363      0.1605
     71  C        157.2340  210.6720  217.9340 C.2   363  TYR363      0.2264
     72  O        158.0670  209.8170  217.6220 O.2   363  TYR363     -0.2867
     73  CB       155.8180  210.4390  219.9780 C.3   363  TYR363      0.0534
     74  CG       155.8000  208.9390  219.8280 C.ar  363  TYR363     -0.0201
     75  CD1      156.6340  208.1400  220.5930 C.ar  363  TYR363     -0.0009
     76  CD2      154.9480  208.3200  218.9230 C.ar  363  TYR363     -0.0009
     77  CE1      156.6250  206.7700  220.4590 C.ar  363  TYR363      0.0417
     78  CE2      154.9310  206.9510  218.7840 C.ar  363  TYR363      0.0417
     79  CZ       155.7730  206.1830  219.5540 C.ar  363  TYR363      0.1957
     80  OH       155.7600  204.8170  219.4200 O.3   363  TYR363     -0.2866
@<TRIPOS>BOND
     1    72    71    2
     2    71    70    1
     3    78    76   ar
     4    78    79   ar
     5    76    74   ar
     6    70    69    1
     7    70    73    1
     8    80    79    1
     9    79    77   ar
    10    74    73    1
    11    74    75   ar
    12    77    75   ar
    13    38    37    1
    14    50    49    1
    15    50    51    1
    16    49    46    1
    17    39    37    1
    18    37    36    1
    19    51    45    1
    20    46    45    1
    21    46    47    1
    22    45    42   am
    23    35    34    2
    24    36    33    1
    25    34    40   am
    26    34    33    1
    27    48    47    2
    28    42    41    1
    29    42    43    2
    30    47    52   am
    31    41    40    1
    32    41    44    1
    33    33    32    1
    34    52    53    1
    35    60    58   ar
    36    15    16    1
    37    59    58   ar
    38    58    57    1
    39    18    17    2
    40    53    54    1
    41    53    56    1
    42    57    56    1
    43    19    16    1
    44    19    20    1
    45    16    17    1
    46    63    64    2
    47    63    62    1
    48    61    54   am
    49    61    62    1
    50    54    55    2
    51    17    21   am
    52    62    65    1
    53    24    23    2
    54    65    67    1
    55    65    66    1
    56    21    22    1
    57    23    22    1
    58    22    25    1
    59    66    68    1
    60    25    26    1
    61    26    27    1
    62    27    28    1
    63    30    29    1
    64    28    29    2
    65    29    31    1
    66    13    12    1
    67    10     9    2
    68    11    12    1
    69    11     8    1
    70     9     8    1
    71    12    14    1
    72     8     7    1
    73     1     2    1
    74     2     3    1
    75     2     5    1
    76     3     4    2
    77     5     6    1
