@<TRIPOS>MOLECULE
tmp/6n30S01.pdb
 180 175 0 0 0
SMALL
GASTEIGER

@<TRIPOS>ATOM
      1  N        163.5770  197.8430  230.0360 N.3   160  ALA160     -0.1231
      2  CA       164.5220  198.8750  230.4220 C.3   160  ALA160      0.1694
      3  C        165.0220  199.5860  229.1780 C.2   160  ALA160      0.2593
      4  O        165.5200  198.9430  228.2510 O.2   160  ALA160     -0.2718
      5  CB       165.6900  198.2790  231.2010 C.3   160  ALA160      0.0304
      6  N        164.8740  200.9040  229.1580 N.am  161  GLY161     -0.1942
      7  CA       165.2970  201.6850  228.0150 C.3   161  GLY161      0.2014
      8  C        164.4440  201.4880  226.7830 C.2   161  GLY161      0.2639
      9  O        164.9810  201.4180  225.6720 O.2   161  GLY161     -0.2714
     10  N        163.1280  201.4110  226.9430 N.am  162  VAL162     -0.1963
     11  CA       162.2520  201.1250  225.8180 C.3   162  VAL162      0.1727
     12  C        161.2780  202.2610  225.5180 C.2   162  VAL162      0.2617
     13  O        160.7440  202.3220  224.4000 O.2   162  VAL162     -0.2715
     14  CB       161.4940  199.7990  226.0460 C.3   162  VAL162      0.0290
     15  CG1      160.3340  199.9890  226.9770 C.3   162  VAL162      0.0023
     16  CG2      161.0960  199.1460  224.7540 C.3   162  VAL162      0.0023
     17  N        161.0670  203.2110  226.4240 N.am  163  GLY163     -0.1940
     18  CA       160.2950  204.3810  226.0560 C.3   163  GLY163      0.2014
     19  C        159.0890  204.7270  226.9000 C.2   163  GLY163      0.2639
     20  O        158.1870  205.4020  226.4060 O.2   163  GLY163     -0.2714
     21  N        159.0500  204.3120  228.1650 N.am  164  LYS164     -0.1963
     22  CA       157.8770  204.5800  228.9840 C.3   164  LYS164      0.1728
     23  C        157.9960  205.8330  229.8340 C.2   164  LYS164      0.2617
     24  O        156.9680  206.3970  230.2140 O.2   164  LYS164     -0.2715
     25  CB       157.5530  203.3830  229.8800 C.3   164  LYS164      0.0311
     26  CG       158.6080  202.9800  230.8450 C.3   164  LYS164      0.0038
     27  CD       158.1890  201.7200  231.5380 C.3   164  LYS164      0.0206
     28  CE       159.2410  201.3030  232.5130 C.3   164  LYS164      0.1093
     29  NZ       160.4810  200.9130  231.8050 N.3   164  LYS164     -0.1314
     30  N        159.2050  206.3070  230.1060 N.am  165  THR165     -0.1937
     31  CA       159.3410  207.6190  230.7200 C.3   165  THR165      0.2028
     32  C        159.1020  208.7220  229.6970 C.2   165  THR165      0.2642
     33  O        158.4960  209.7480  230.0190 O.2   165  THR165     -0.2714
     34  CB       160.7200  207.7540  231.3610 C.3   165  THR165      0.1808
     35  OG1      160.9210  206.6730  232.2760 O.3   165  THR165     -0.2208
     36  CG2      160.8310  209.0410  232.1370 C.3   165  THR165      0.0379
     37  N        159.5170  208.5030  228.4500 N.am  166  VAL166     -0.1977
     38  CA       159.1800  209.4280  227.3740 C.3   166  VAL166      0.1596
     39  C        157.6770  209.4310  227.1300 C.2   166  VAL166      0.2287
     40  O        157.0710  210.4870  226.9140 O.2   166  VAL166     -0.2864
     41  CB       159.9740  209.0600  226.1110 C.3   166  VAL166      0.0276
     42  CG1      159.6050  209.9530  224.9580 C.3   166  VAL166      0.0022
     43  CG2      161.4430  209.1690  226.3980 C.3   166  VAL166      0.0022
     44  N        164.9420  207.4870  238.5210 N.3   191  ARG191     -0.1245
     45  CA       166.1170  208.3450  238.6080 C.3   191  ARG191      0.1563
     46  C        165.8090  209.6570  239.3120 C.2   191  ARG191      0.2260
     47  O        164.8460  210.3410  238.9640 O.2   191  ARG191     -0.2867
     48  CB       166.6280  208.6400  237.2090 C.3   191  ARG191      0.0307
     49  CG       166.9930  207.4160  236.4290 C.3   191  ARG191      0.0489
     50  CD       167.4080  207.7850  235.0430 C.3   191  ARG191      0.2205
     51  NE       167.6810  206.6100  234.2350 N.pl3 191  ARG191     -0.0865
     52  CZ       166.7710  205.9870  233.4990 C.cat 191  ARG191      0.5346
     53  NH1      165.5290  206.4320  233.4700 N.pl3 191  ARG191      0.1354
     54  NH2      167.1040  204.9250  232.7880 N.pl3 191  ARG191      0.1354
     55  N        167.5640  212.1930  238.9200 N.3   193  ARG193     -0.1231
     56  CA       167.6850  213.1100  237.7930 C.3   193  ARG193      0.1694
     57  C        166.3300  213.4430  237.1880 C.2   193  ARG193      0.2591
     58  O        166.0100  214.6140  236.9640 O.2   193  ARG193     -0.2718
     59  CB       168.5770  212.4940  236.7270 C.3   193  ARG193      0.0321
     60  CG       168.6630  213.3310  235.4930 C.3   193  ARG193      0.0489
     61  CD       169.4710  212.6520  234.4320 C.3   193  ARG193      0.2205
     62  NE       168.8300  211.4450  233.9250 N.pl3 193  ARG193     -0.0865
     63  CZ       167.9080  211.4340  232.9720 C.cat 193  ARG193      0.5346
     64  NH1      167.5050  212.5680  232.4240 N.pl3 193  ARG193      0.1354
     65  NH2      167.3870  210.2900  232.5590 N.pl3 193  ARG193      0.1354
     66  N        165.5130  212.4260  236.9260 N.am  194  GLU194     -0.1979
     67  CA       164.2190  212.6380  236.2920 C.3   194  GLU194      0.1602
     68  C        163.1830  213.2350  237.2270 C.2   194  GLU194      0.2287
     69  O        162.0970  213.5890  236.7680 O.2   194  GLU194     -0.2864
     70  CB       163.6930  211.3240  235.7260 C.3   194  GLU194      0.0415
     71  CG       164.4480  210.8460  234.5180 C.3   194  GLU194      0.1163
     72  CD       163.9760  209.5010  234.0430 C.2   194  GLU194      0.3649
     73  OE1      163.1820  208.8650  234.7640 O.co2 194  GLU194     -0.2457
     74  OE2      164.3860  209.0810  232.9440 O.co2 194  GLU194     -0.2457
     75  N        155.3580  206.8400  238.3060 N.3   252  ASP252     -0.1225
     76  CA       156.4270  206.2910  237.4910 C.3   252  ASP252      0.1805
     77  C        157.0510  205.1290  238.2500 C.2   252  ASP252      0.2597
     78  O        157.5650  205.3130  239.3590 O.2   252  ASP252     -0.2718
     79  CB       157.4640  207.3560  237.1480 C.3   252  ASP252      0.1424
     80  CG       158.3220  206.9720  235.9530 C.2   252  ASP252      0.3668
     81  OD1      158.1730  205.8510  235.4320 O.co2 252  ASP252     -0.2456
     82  OD2      159.1340  207.8070  235.5130 O.co2 252  ASP252     -0.2456
     83  N        156.9990  203.9420  237.6360 N.am  253  ASN253     -0.1974
     84  CA       157.5160  202.6820  238.1680 C.3   253  ASN253      0.1688
     85  C        156.8630  202.3220  239.5040 C.2   253  ASN253      0.2292
     86  O        157.4520  202.4070  240.5760 O.2   253  ASN253     -0.2864
     87  CB       159.0400  202.6870  238.2470 C.3   253  ASN253      0.1181
     88  CG       159.6660  202.4310  236.9140 C.2   253  ASN253      0.2629
     89  OD1      159.1630  201.6230  236.1420 O.2   253  ASN253     -0.2716
     90  ND2      160.7750  203.1010  236.6330 N.am  253  ASN253     -0.0877
     91  N        157.4750  198.7460  235.1280 N.3   307  TYR307     -0.1241
     92  CA       158.6760  198.1060  234.6240 C.3   307  TYR307      0.1605
     93  C        158.4790  196.6020  234.5510 C.2   307  TYR307      0.2264
     94  O        157.8120  196.0030  235.3940 O.2   307  TYR307     -0.2867
     95  CB       159.8530  198.4470  235.5310 C.3   307  TYR307      0.0534
     96  CG       161.1560  197.7970  235.1760 C.ar  307  TYR307     -0.0201
     97  CD1      161.8830  198.2100  234.0790 C.ar  307  TYR307     -0.0009
     98  CD2      161.6790  196.7960  235.9640 C.ar  307  TYR307     -0.0009
     99  CE1      163.0830  197.6160  233.7630 C.ar  307  TYR307      0.0417
    100  CE2      162.8740  196.2050  235.6590 C.ar  307  TYR307      0.0417
    101  CZ       163.5660  196.6150  234.5590 C.ar  307  TYR307      0.1957
    102  OH       164.7580  196.0130  234.2660 O.3   307  TYR307     -0.2866
    103  N        158.9280  204.3990  217.2850 N.3   341  TYR341     -0.1228
    104  CA       158.6570  205.0270  218.5570 C.3   341  TYR341      0.1721
    105  C        157.2840  205.6880  218.5370 C.2   341  TYR341      0.2437
    106  O        157.0260  206.5160  217.6570 O.2   341  TYR341     -0.2733
    107  CB       159.7210  206.0440  218.9110 C.3   341  TYR341      0.0547
    108  CG       161.0380  205.4170  219.2770 C.ar  341  TYR341     -0.0200
    109  CD1      161.1990  204.7680  220.4910 C.ar  341  TYR341     -0.0009
    110  CD2      162.1270  205.4910  218.4240 C.ar  341  TYR341     -0.0009
    111  CE1      162.3930  204.1950  220.8370 C.ar  341  TYR341      0.0417
    112  CE2      163.3340  204.9170  218.7670 C.ar  341  TYR341      0.0417
    113  CZ       163.4570  204.2740  219.9760 C.ar  341  TYR341      0.1957
    114  OH       164.6520  203.6990  220.3280 O.3   341  TYR341     -0.2866
    115  N        156.3780  205.3830  219.4920 N.am  342  PRO342     -0.2729
    116  CA       156.4270  204.5630  220.7060 C.3   342  PRO342      0.1401
    117  C        156.5790  203.1110  220.3720 C.2   342  PRO342      0.2269
    118  O        156.1160  202.7080  219.3110 O.2   342  PRO342     -0.2865
    119  CB       155.0500  204.7560  221.3300 C.3   342  PRO342      0.0296
    120  CG       154.4440  205.8160  220.6200 C.3   342  PRO342      0.0237
    121  CD       155.0080  205.8450  219.2620 C.3   342  PRO342      0.0939
    122  N        155.2260  207.7150  215.9550 N.3   412  GLN412     -0.1231
    123  CA       154.9060  209.1310  215.9420 C.3   412  GLN412      0.1698
    124  C        156.0560  209.9120  216.5570 C.2   412  GLN412      0.2592
    125  O        156.7370  209.4240  217.4590 O.2   412  GLN412     -0.2718
    126  CB       153.6000  209.3820  216.6950 C.3   412  GLN412      0.0381
    127  CG       153.0870  210.7880  216.6480 C.3   412  GLN412      0.0905
    128  CD       151.8200  210.9330  217.3980 C.2   412  GLN412      0.2608
    129  OE1      151.3080  209.9690  217.9350 O.2   412  GLN412     -0.2717
    130  NE2      151.3140  212.1450  217.4730 N.am  412  GLN412     -0.0878
    131  N        156.2820  211.1240  216.0570 N.am  413  ASN413     -0.1960
    132  CA       157.2470  212.0330  216.6530 C.3   413  ASN413      0.1819
    133  C        156.6150  212.7830  217.8180 C.2   413  ASN413      0.2621
    134  O        155.4660  213.2180  217.7330 O.2   413  ASN413     -0.2715
    135  CB       157.7920  213.0040  215.6060 C.3   413  ASN413      0.1195
    136  CG       156.7090  213.6490  214.7800 C.2   413  ASN413      0.2630
    137  OD1      155.5320  213.3630  214.9440 O.2   413  ASN413     -0.2716
    138  ND2      157.1060  214.5380  213.8840 N.am  413  ASN413     -0.0877
    139  N        157.3450  212.9080  218.9150 N.am  414  PHE414     -0.1974
    140  CA       156.7800  213.4950  220.1180 C.3   414  PHE414      0.1639
    141  C        157.3230  214.8930  220.3530 C.2   414  PHE414      0.2290
    142  O        158.3280  215.3060  219.7780 O.2   414  PHE414     -0.2864
    143  CB       157.0690  212.6370  221.3480 C.3   414  PHE414      0.0560
    144  CG       156.2810  211.3730  221.4220 C.ar  414  PHE414     -0.0200
    145  CD1      155.2810  211.0920  220.5110 C.ar  414  PHE414     -0.0042
    146  CD2      156.5010  210.4920  222.4580 C.ar  414  PHE414     -0.0042
    147  CE1      154.5690  209.9440  220.6050 C.ar  414  PHE414     -0.0003
    148  CE2      155.7810  209.3510  222.5550 C.ar  414  PHE414     -0.0003
    149  CZ       154.8110  209.0880  221.6340 C.ar  414  PHE414     -0.0000
    150  N        160.4170  214.1670  222.4860 N.3   417  ALA417     -0.1245
    151  CA       161.5170  213.6950  221.6630 C.3   417  ALA417      0.1562
    152  C        162.0200  214.7390  220.6770 C.2   417  ALA417      0.2260
    153  O        162.6850  214.3750  219.7070 O.2   417  ALA417     -0.2867
    154  CB       161.1030  212.4330  220.9120 C.3   417  ALA417      0.0290
    155  N        165.6780  214.8610  221.4020 N.3   420  PHE420     -0.1227
    156  CA       166.4310  213.6940  220.9630 C.3   420  PHE420      0.1736
    157  C        166.8950  213.8580  219.5250 C.2   420  PHE420      0.2592
    158  O        168.0510  213.5730  219.2010 O.2   420  PHE420     -0.2718
    159  CB       165.5760  212.4300  221.0860 C.3   420  PHE420      0.0547
    160  CG       165.2180  212.0590  222.4950 C.ar  420  PHE420     -0.0202
    161  CD1      165.9690  212.4960  223.5700 C.ar  420  PHE420     -0.0042
    162  CD2      164.0930  211.2980  222.7400 C.ar  420  PHE420     -0.0042
    163  CE1      165.6130  212.1600  224.8580 C.ar  420  PHE420     -0.0003
    164  CE2      163.7330  210.9680  224.0220 C.ar  420  PHE420     -0.0003
    165  CZ       164.4930  211.3960  225.0810 C.ar  420  PHE420     -0.0000
    166  N        165.9920  213.7720  218.6320 N.am  421  THR421     -0.2006
    167  CA       166.2780  213.7030  217.1620 C.3   421  THR421      0.1584
    168  C        166.1730  215.0650  216.5910 C.3   421  THR421      0.2062
    169  O        166.9080  215.3320  215.5350 O.3   421  THR421     -0.2184
    170  CB       165.2940  212.6460  216.4570 C.3   421  THR421      0.1745
    171  OG1      163.9810  212.7980  216.9850 O.3   421  THR421     -0.2212
    172  CG2      165.8080  211.2230  216.6480 C.3   421  THR421      0.0374
    173  N        157.6630  208.1120  211.9530 N.3   455  LEU455     -0.1245
    174  CA       157.7770  209.2870  212.8230 C.3   455  LEU455      0.1561
    175  C        157.0710  210.5040  212.2260 C.2   455  LEU455      0.2260
    176  O        157.6610  211.5580  212.0000 O.2   455  LEU455     -0.2867
    177  CB       159.2430  209.5810  213.1360 C.3   455  LEU455      0.0270
    178  CG       159.9090  208.4650  213.9420 C.3   455  LEU455      0.0019
    179  CD1      161.3820  208.7250  214.1130 C.3   455  LEU455      0.0001
    180  CD2      159.2400  208.3080  215.2850 C.3   455  LEU455      0.0001
@<TRIPOS>BOND
     1   173   174    1
     2   176   175    2
     3   175   174    1
     4   174   177    1
     5   177   178    1
     6   138   136   am
     7   178   179    1
     8   178   180    1
     9   136   137    2
    10   136   135    1
    11   169   168    1
    12   135   132    1
    13   123   122    1
    14   123   124    1
    15   123   126    1
    16   131   124   am
    17   131   132    1
    18   170   172    1
    19   170   171    1
    20   170   167    1
    21   124   125    2
    22   168   167    1
    23   127   126    1
    24   127   128    1
    25   132   133    1
    26   167   166    1
    27   103   104    1
    28   128   130   am
    29   128   129    2
    30   106   105    2
    31   134   133    2
    32   133   139   am
    33   110   112   ar
    34   110   108   ar
    35   105   104    1
    36   105   115   am
    37   104   107    1
    38   166   157   am
    39   112   113   ar
    40   107   108    1
    41   139   140    1
    42   158   157    2
    43   121   115    1
    44   121   120    1
    45   108   109   ar
    46   118   117    2
    47   115   116    1
    48   157   156    1
    49   153   152    2
    50   142   141    2
    51   113   114    1
    52   113   111   ar
    53   140   141    1
    54   140   143    1
    55   117   116    1
    56   109   111   ar
    57   145   147   ar
    58   145   144   ar
    59   147   149   ar
    60   120   119    1
    61   152   151    1
    62   116   119    1
    63   154   151    1
    64   156   159    1
    65   156   155    1
    66   159   160    1
    67   143   144    1
    68   144   146   ar
    69   149   148   ar
    70   151   150    1
    71   146   148   ar
    72   160   162   ar
    73   160   161   ar
    74   162   164   ar
    75   161   163   ar
    76   164   165   ar
    77    13    12    2
    78    16    14    1
    79   163   165   ar
    80    42    41    1
    81    12    11    1
    82    12    17   am
    83     9     8    2
    84    11    14    1
    85    11    10    1
    86    14    15    1
    87    18    17    1
    88    18    19    1
    89    41    43    1
    90    41    38    1
    91    20    19    2
    92     8    10   am
    93     8     7    1
    94    19    21   am
    95    40    39    2
    96    39    38    1
    97    38    37    1
    98     7     6    1
    99    21    22    1
   100     4     3    2
   101    37    32   am
   102    22    23    1
   103    22    25    1
   104     6     3   am
   105     3     2    1
   106    32    33    2
   107    32    31    1
   108    23    30   am
   109    23    24    2
   110    25    26    1
   111     1     2    1
   112    30    31    1
   113     2     5    1
   114    31    34    1
   115    26    27    1
   116    34    36    1
   117    34    35    1
   118    27    28    1
   119    29    28    1
   120    64    63    1
   121    65    63    1
   122    54    52    1
   123    74    72   ar
   124    63    62    2
   125    53    52    1
   126    52    51    2
   127    99    97   ar
   128    99   101   ar
   129    62    61    1
   130    72    71    1
   131    72    73   ar
   132    97    96   ar
   133    51    50    1
   134   102   101    1
   135    61    60    1
   136    71    70    1
   137    93    92    1
   138    93    94    2
   139   101   100   ar
   140    92    91    1
   141    92    95    1
   142    50    49    1
   143    96    95    1
   144    96    98   ar
   145    81    80   ar
   146    60    59    1
   147    82    80   ar
   148   100    98   ar
   149    70    67    1
   150    80    79    1
   151    89    88    2
   152    67    66    1
   153    67    68    1
   154    49    48    1
   155    90    88   am
   156    59    56    1
   157    69    68    2
   158    88    87    1
   159    66    57   am
   160    58    57    2
   161    79    76    1
   162    57    56    1
   163    48    45    1
   164    76    77    1
   165    76    75    1
   166    83    84    1
   167    83    77   am
   168    56    55    1
   169    84    87    1
   170    84    85    1
   171    77    78    2
   172    44    45    1
   173    45    46    1
   174    47    46    2
   175    85    86    2
