@<TRIPOS>MOLECULE
tmp/6n3dA00.pdb
 92 88 0 0 0
SMALL
GASTEIGER

@<TRIPOS>ATOM
      1  N         27.2910   17.6980   36.3330 N.3     4  ARG4       -0.1245
      2  CA        27.3260   16.3240   36.8320 C.3     4  ARG4        0.1563
      3  C         27.5870   16.2760   38.3290 C.2     4  ARG4        0.2260
      4  O         26.9920   15.4540   39.0350 O.2     4  ARG4       -0.2867
      5  CB        28.3750   15.4880   36.0970 C.3     4  ARG4        0.0307
      6  CG        28.6940   14.1950   36.8360 C.3     4  ARG4        0.0489
      7  CD        29.2100   13.0780   35.9460 C.3     4  ARG4        0.2205
      8  NE        29.2540   11.8250   36.6930 N.pl3   4  ARG4       -0.0865
      9  CZ        30.2950   11.3970   37.4010 C.cat   4  ARG4        0.5346
     10  NH1       31.4170   12.1070   37.4560 N.pl3   4  ARG4        0.1354
     11  NH2       30.2130   10.2430   38.0520 N.pl3   4  ARG4        0.1354
     12  N         26.5260   14.0230   42.5870 N.3     8  VAL8       -0.1245
     13  CA        27.5360   13.1130   43.1190 C.3     8  VAL8        0.1561
     14  C         27.7360   13.3750   44.6080 C.2     8  VAL8        0.2260
     15  O         27.9380   14.5260   45.0280 O.2     8  VAL8       -0.2867
     16  CB        28.8690   13.2360   42.3620 C.3     8  VAL8        0.0252
     17  CG1       29.8930   12.2640   42.9090 C.3     8  VAL8        0.0019
     18  CG2       28.6790   13.0040   40.8740 C.3     8  VAL8        0.0019
     19  N         30.1100   12.2460   47.9180 N.3    10  ILE10      -0.1245
     20  CA        31.3270   11.6300   48.4220 C.3    10  ILE10       0.1561
     21  C         31.0440   11.1710   49.8450 C.2    10  ILE10       0.2260
     22  O         30.7570   11.9780   50.7400 O.2    10  ILE10      -0.2867
     23  CB        32.5190   12.5950   48.3770 C.3    10  ILE10       0.0252
     24  CG1       32.7350   13.1550   46.9560 C.3    10  ILE10       0.0019
     25  CG2       33.7620   11.9100   48.8970 C.3    10  ILE10       0.0019
     26  CD1       32.9180   12.1160   45.8870 C.3    10  ILE10       0.0001
     27  N         31.2120    3.8120   43.2950 N.3    48  LEU48      -0.1245
     28  CA        32.6010    3.3930   43.3040 C.3    48  LEU48       0.1561
     29  C         33.1410    3.4350   44.7150 C.2    48  LEU48       0.2260
     30  O         32.8670    4.3790   45.4570 O.2    48  LEU48      -0.2867
     31  CB        33.4400    4.3760   42.5250 C.3    48  LEU48       0.0270
     32  CG        33.2640    4.4360   41.0340 C.3    48  LEU48       0.0019
     33  CD1       34.2130    5.5060   40.4840 C.3    48  LEU48       0.0001
     34  CD2       33.5390    3.0790   40.4110 C.3    48  LEU48       0.0001
     35  N         36.8160    3.5380   46.6420 N.3    50  PHE50      -0.1241
     36  CA        38.2460    3.7770   46.4650 C.3    50  PHE50       0.1605
     37  C         38.9570    2.9330   47.5060 C.2    50  PHE50       0.2264
     38  O         39.2890    3.3850   48.5990 O.2    50  PHE50      -0.2867
     39  CB        38.5370    5.2690   46.5710 C.3    50  PHE50       0.0534
     40  CG        37.8670    6.0470   45.5060 C.ar   50  PHE50      -0.0203
     41  CD1       38.4540    6.1890   44.2690 C.ar   50  PHE50      -0.0042
     42  CD2       36.6220    6.6060   45.7090 C.ar   50  PHE50      -0.0042
     43  CE1       37.8230    6.8860   43.2640 C.ar   50  PHE50      -0.0003
     44  CE2       35.9910    7.2930   44.7030 C.ar   50  PHE50      -0.0003
     45  CZ        36.5870    7.4300   43.4870 C.ar   50  PHE50      -0.0000
     46  N         32.2220    7.0800   46.1080 N.3    59  SER59      -0.1217
     47  CA        31.4890    8.0590   45.3290 C.3    59  SER59       0.1889
     48  C         30.1810    7.4260   44.8910 C.2    59  SER59       0.2288
     49  O         30.1640    6.3020   44.3860 O.2    59  SER59      -0.2866
     50  CB        32.3070    8.4750   44.1050 C.3    59  SER59       0.2089
     51  OG        31.5830    9.3930   43.3140 O.3    59  SER59      -0.2183
     52  N         30.0890   16.3500   46.1100 N.3    90  TRP90      -0.1241
     53  CA        31.3270   16.4580   45.3410 C.3    90  TRP90       0.1605
     54  C         31.4720   17.8660   44.7660 C.2    90  TRP90       0.2264
     55  O         30.4890   18.5640   44.5320 O.2    90  TRP90      -0.2867
     56  CB        31.3350   15.4230   44.2130 C.3    90  TRP90       0.0550
     57  CG        32.6350   15.2590   43.5120 C.ar   90  TRP90       0.0003
     58  CD1       33.8910   15.2450   44.0780 C.ar   90  TRP90       0.0946
     59  CD2       32.8310   15.0810   42.1050 C.ar   90  TRP90       0.0152
     60  NE1       34.8390   15.0850   43.1030 N.ar   90  TRP90      -0.2442
     61  CE2       34.2150   14.9780   41.8870 C.ar   90  TRP90       0.0810
     62  CE3       31.9680   14.9980   41.0090 C.ar   90  TRP90       0.0012
     63  CZ2       34.7580   14.7900   40.6170 C.ar   90  TRP90       0.0191
     64  CZ3       32.5050   14.8190   39.7540 C.ar   90  TRP90       0.0001
     65  CH2       33.8870   14.7190   39.5670 C.ar   90  TRP90       0.0015
     66  N         37.8660   17.2900   42.9130 N.3    94  THR94      -0.1203
     67  CA        38.7100   16.4930   43.7870 C.3    94  THR94       0.1994
     68  C         38.6150   15.0300   43.4010 C.2    94  THR94       0.2618
     69  O         37.5230   14.4620   43.3210 O.2    94  THR94      -0.2717
     70  CB        38.3000   16.7080   45.2430 C.3    94  THR94       0.1784
     71  OG1       38.5070   18.0870   45.5840 O.3    94  THR94      -0.2211
     72  CG2       39.1440   15.8530   46.1660 C.3    94  THR94       0.0376
     73  N         39.7660   14.4240   43.1580 N.am   95  ASP95      -0.1959
     74  CA        39.8510   13.0160   42.8130 C.3    95  ASP95       0.1840
     75  C         40.3040   12.2130   44.0250 C.2    95  ASP95       0.2622
     76  O         41.0360   12.7090   44.8870 O.2    95  ASP95      -0.2715
     77  CB        40.8210   12.8260   41.6480 C.3    95  ASP95       0.1450
     78  CG        40.2670   13.3660   40.3420 C.2    95  ASP95       0.3671
     79  OD1       39.0450   13.2240   40.1110 O.co2  95  ASP95      -0.2456
     80  OD2       41.0410   13.9480   39.5530 O.co2  95  ASP95      -0.2456
     81  N         39.8670   10.9640   44.0790 N.am   96  TYR96      -0.1974
     82  CA        40.2180   10.0680   45.1750 C.3    96  TYR96       0.1639
     83  C         40.9220    8.8090   44.7160 C.2    96  TYR96       0.2290
     84  O         41.3370    8.0080   45.5520 O.2    96  TYR96      -0.2864
     85  CB        38.9520    9.7070   45.9430 C.3    96  TYR96       0.0560
     86  CG        38.3120   10.9330   46.5240 C.ar   96  TYR96      -0.0198
     87  CD1       38.8110   11.5270   47.6810 C.ar   96  TYR96      -0.0009
     88  CD2       37.2350   11.5400   45.8890 C.ar   96  TYR96      -0.0009
     89  CE1       38.2350   12.6610   48.2020 C.ar   96  TYR96       0.0417
     90  CE2       36.6620   12.6770   46.3970 C.ar   96  TYR96       0.0417
     91  CZ        37.1640   13.2320   47.5480 C.ar   96  TYR96       0.1957
     92  OH        36.5840   14.3700   48.0290 O.3    96  TYR96      -0.2866
@<TRIPOS>BOND
     1     7     8    1
     2     7     6    1
     3     5     2    1
     4     5     6    1
     5     1     2    1
     6     8     9    2
     7     2     3    1
     8     9    10    1
     9     9    11    1
    10     3     4    2
    11    80    78   ar
    12    65    64   ar
    13    65    63   ar
    14    64    62   ar
    15    79    78   ar
    16    78    77    1
    17    34    32    1
    18    33    32    1
    19    63    61   ar
    20    18    16    1
    21    62    59   ar
    22    32    31    1
    23    77    74    1
    24    61    59   ar
    25    61    60   ar
    26    59    57   ar
    27    16    17    1
    28    16    13    1
    29    31    28    1
    30    12    13    1
    31    74    73    1
    32    74    75    1
    33    66    67    1
    34    60    58   ar
    35    13    14    1
    36    73    68   am
    37    43    45   ar
    38    43    41   ar
    39    27    28    1
    40    28    29    1
    41    51    50    1
    42    69    68    2
    43    68    67    1
    44    45    44   ar
    45    57    58   ar
    46    57    56    1
    47    67    70    1
    48    75    81   am
    49    75    76    2
    50    81    82    1
    51    50    47    1
    52    56    53    1
    53    41    40   ar
    54    49    48    2
    55    55    54    2
    56    14    15    2
    57    44    42   ar
    58    29    30    2
    59    83    82    1
    60    83    84    2
    61    54    53    1
    62    48    47    1
    63    82    85    1
    64    70    71    1
    65    70    72    1
    66    47    46    1
    67    53    52    1
    68    40    42   ar
    69    40    39    1
    70    26    24    1
    71    88    90   ar
    72    88    86   ar
    73    85    86    1
    74    90    91   ar
    75    36    39    1
    76    36    35    1
    77    36    37    1
    78    86    87   ar
    79    24    23    1
    80    37    38    2
    81    91    92    1
    82    91    89   ar
    83    87    89   ar
    84    19    20    1
    85    23    20    1
    86    23    25    1
    87    20    21    1
    88    21    22    2
