@<TRIPOS>MOLECULE
tmp/6n3pE01.pdb
 106 103 0 0 0
SMALL
GASTEIGER

@<TRIPOS>ATOM
      1  N         39.8580    5.1570   40.9210 N.3    15  HIS15      -0.1241
      2  CA        38.5630    5.6980   40.5340 C.3    15  HIS15       0.1621
      3  C         38.3950    5.7220   39.0200 C.2    15  HIS15       0.2264
      4  O         39.3550    5.8870   38.2710 O.2    15  HIS15      -0.2867
      5  CB        38.3920    7.1020   41.1050 C.3    15  HIS15       0.0745
      6  CG        38.5940    7.1700   42.5830 C.ar   15  HIS15       0.0817
      7  ND1       39.8390    7.2840   43.1600 N.ar   15  HIS15      -0.2268
      8  CD2       37.7120    7.0940   43.6050 C.ar   15  HIS15       0.1154
      9  CE1       39.7160    7.3040   44.4750 C.ar   15  HIS15       0.1986
     10  NE2       38.4350    7.1900   44.7720 N.ar   15  HIS15      -0.2212
     11  N         33.1920    8.6350   38.5310 N.3    19  PHE19      -0.1241
     12  CA        33.6380    9.1580   39.8110 C.3    19  PHE19       0.1605
     13  C         35.1150    9.5310   39.8570 C.2    19  PHE19       0.2264
     14  O         35.6530    9.7030   40.9590 O.2    19  PHE19      -0.2867
     15  CB        33.3290    8.1450   40.9120 C.3    19  PHE19       0.0534
     16  CG        32.8710    8.7770   42.1800 C.ar   19  PHE19      -0.0203
     17  CD1       31.5980    9.3290   42.2680 C.ar   19  PHE19      -0.0042
     18  CD2       33.7250    8.8530   43.2740 C.ar   19  PHE19      -0.0042
     19  CE1       31.1780    9.9240   43.4240 C.ar   19  PHE19      -0.0003
     20  CE2       33.3150    9.4470   44.4350 C.ar   19  PHE19      -0.0003
     21  CZ        32.0410    9.9910   44.5150 C.ar   19  PHE19      -0.0000
     22  N         35.1160   15.6930   47.0320 N.3    64  GLU64      -0.1245
     23  CA        35.6510   14.4360   46.5120 C.3    64  GLU64       0.1567
     24  C         36.8640   14.6720   45.6090 C.2    64  GLU64       0.2260
     25  O         37.8230   13.8920   45.6280 O.2    64  GLU64      -0.2867
     26  CB        34.5660   13.6820   45.7590 C.3    64  GLU64       0.0388
     27  CG        35.0130   12.3420   45.2520 C.3    64  GLU64       0.1160
     28  CD        35.3870   11.3790   46.3770 C.2    64  GLU64       0.3649
     29  OE1       36.2700   10.5080   46.1620 O.co2  64  GLU64      -0.2457
     30  OE2       34.7930   11.4880   47.4780 O.co2  64  GLU64      -0.2457
     31  N         43.1470    0.1470   50.7440 N.3    86  LEU86      -0.1231
     32  CA        42.1280    1.1150   50.3930 C.3    86  LEU86       0.1693
     33  C         42.5180    2.4740   50.9460 C.2    86  LEU86       0.2592
     34  O         43.3500    2.5840   51.8520 O.2    86  LEU86      -0.2718
     35  CB        40.7420    0.6820   50.8980 C.3    86  LEU86       0.0284
     36  CG        40.2940   -0.6780   50.3460 C.3    86  LEU86       0.0019
     37  CD1       38.9350   -1.0920   50.8780 C.3    86  LEU86       0.0001
     38  CD2       40.2890   -0.6540   48.8420 C.3    86  LEU86       0.0001
     39  N         41.9540    3.5070   50.3280 N.am   87  TYR87      -0.1962
     40  CA        42.1400    4.8950   50.7310 C.3    87  TYR87       0.1771
     41  C         40.7770    5.4400   51.1460 C.2    87  TYR87       0.2620
     42  O         39.8550    5.4960   50.3280 O.2    87  TYR87      -0.2715
     43  CB        42.7600    5.7040   49.5960 C.3    87  TYR87       0.0574
     44  CG        43.3250    7.0170   50.0410 C.ar   87  TYR87      -0.0198
     45  CD1       44.4440    7.0510   50.8680 C.ar   87  TYR87      -0.0009
     46  CD2       42.7970    8.2260   49.5990 C.ar   87  TYR87      -0.0009
     47  CE1       44.9980    8.2510   51.2810 C.ar   87  TYR87       0.0417
     48  CE2       43.3400    9.4360   50.0150 C.ar   87  TYR87       0.0417
     49  CZ        44.4500    9.4350   50.8510 C.ar   87  TYR87       0.1957
     50  OH        45.0240   10.6110   51.2690 O.3    87  TYR87      -0.2866
     51  N         40.6260    5.7910   52.4200 N.am   88  TYR88      -0.1960
     52  CA        39.3330    6.1450   52.9870 C.3    88  TYR88       0.1771
     53  C         39.2480    7.6410   53.2790 C.2    88  TYR88       0.2620
     54  O         40.2320    8.2790   53.6730 O.2    88  TYR88      -0.2715
     55  CB        39.0950    5.3930   54.2950 C.3    88  TYR88       0.0574
     56  CG        38.7280    3.9570   54.1190 C.ar   88  TYR88      -0.0198
     57  CD1       37.4020    3.5550   54.0800 C.ar   88  TYR88      -0.0009
     58  CD2       39.7170    2.9870   54.0000 C.ar   88  TYR88      -0.0009
     59  CE1       37.0700    2.2190   53.9250 C.ar   88  TYR88       0.0417
     60  CE2       39.3960    1.6550   53.8470 C.ar   88  TYR88       0.0417
     61  CZ        38.0750    1.2750   53.8060 C.ar   88  TYR88       0.1957
     62  OH        37.7640   -0.0560   53.6500 O.3    88  TYR88      -0.2866
     63  N         38.0410    8.1800   53.1060 N.am   89  PHE89      -0.1960
     64  CA        37.6740    9.5140   53.5760 C.3    89  PHE89       0.1771
     65  C         37.3520    9.3730   55.0560 C.2    89  PHE89       0.2619
     66  O         36.4290    8.6520   55.4340 O.2    89  PHE89      -0.2715
     67  CB        36.4930   10.0320   52.7510 C.3    89  PHE89       0.0574
     68  CG        36.5150   11.5190   52.4600 C.ar   89  PHE89      -0.0200
     69  CD1       37.0430   12.4350   53.3650 C.ar   89  PHE89      -0.0042
     70  CD2       36.0940   11.9830   51.2110 C.ar   89  PHE89      -0.0042
     71  CE1       37.0720   13.8090   53.0640 C.ar   89  PHE89      -0.0003
     72  CE2       36.1340   13.3390   50.8910 C.ar   89  PHE89      -0.0003
     73  CZ        36.6200   14.2570   51.8180 C.ar   89  PHE89      -0.0000
     74  N         38.1550    9.9820   55.9020 N.am   90  ALA90      -0.1977
     75  CA        37.9340    9.8380   57.3260 C.3    90  ALA90       0.1597
     76  C         37.1560   10.9940   57.9270 C.2    90  ALA90       0.2287
     77  O         36.3200   10.7700   58.8050 O.2    90  ALA90      -0.2864
     78  CB        39.2760    9.6900   58.0570 C.3    90  ALA90       0.0319
     79  N         47.0340    8.0350   58.3770 N.3   120  LEU120     -0.1245
     80  CA        46.0080    9.0670   58.3090 C.3   120  LEU120      0.1561
     81  C         46.6690   10.4280   58.0950 C.2   120  LEU120      0.2260
     82  O         47.6060   10.7940   58.8090 O.2   120  LEU120     -0.2867
     83  CB        45.1550    9.0520   59.5790 C.3   120  LEU120      0.0270
     84  CG        43.8710    9.8920   59.5850 C.3   120  LEU120      0.0019
     85  CD1       42.8530    9.2570   60.5260 C.3   120  LEU120      0.0001
     86  CD2       44.1240   11.3190   59.9980 C.3   120  LEU120      0.0001
     87  N         42.5720    8.3810   55.1440 N.3   142  ALA142     -0.1245
     88  CA        43.3350    7.3020   55.7480 C.3   142  ALA142      0.1562
     89  C         43.6500    6.2200   54.7260 C.2   142  ALA142      0.2260
     90  O         42.9050    6.0060   53.7660 O.2   142  ALA142     -0.2867
     91  CB        42.5710    6.6830   56.9130 C.3   142  ALA142      0.0290
     92  N         44.4210    2.1160   54.6370 N.3   144  SER144     -0.1217
     93  CA        44.1790    0.9540   55.4820 C.3   144  SER144      0.1889
     94  C         44.0660   -0.2900   54.6200 C.2   144  SER144      0.2288
     95  O         43.7130   -0.2180   53.4400 O.2   144  SER144     -0.2866
     96  CB        42.9070    1.1150   56.3220 C.3   144  SER144      0.2089
     97  OG        42.6610   -0.0590   57.0890 O.3   144  SER144     -0.2183
     98  N         42.2170   -3.1990   55.7040 N.3   146  GLU146     -0.1245
     99  CA        40.8300   -3.6580   55.7890 C.3   146  GLU146      0.1567
    100  C         40.0090   -2.7060   56.6560 C.2   146  GLU146      0.2260
    101  O         40.0940   -2.7420   57.8830 O.2   146  GLU146     -0.2867
    102  CB        40.7430   -5.0860   56.3440 C.3   146  GLU146      0.0388
    103  CG        41.0820   -6.1940   55.3500 C.3   146  GLU146      0.1160
    104  CD        42.5240   -6.6730   55.4630 C.2   146  GLU146      0.3649
    105  OE1       43.1950   -6.8030   54.4160 O.co2 146  GLU146     -0.2457
    106  OE2       42.9890   -6.9230   56.5980 O.co2 146  GLU146     -0.2457
@<TRIPOS>BOND
     1     4     3    2
     2    11    12    1
     3     3     2    1
     4    12    13    1
     5    12    15    1
     6    13    14    2
     7     2     1    1
     8     2     5    1
     9    15    16    1
    10     5     6    1
    11    16    17   ar
    12    16    18   ar
    13    17    19   ar
    14     6     7   ar
    15     6     8   ar
    16     7     9   ar
    17    18    20   ar
    18    19    21   ar
    19     8    10   ar
    20    20    21   ar
    21     9    10   ar
    22    27    26    1
    23    27    28    1
    24    24    25    2
    25    24    23    1
    26    26    23    1
    27    29    28   ar
    28    28    30   ar
    29    23    22    1
    30    38    36    1
    31    43    44    1
    32    43    40    1
    33    46    48   ar
    34    46    44   ar
    35    48    49   ar
    36    44    45   ar
    37    39    40    1
    38    39    33   am
    39    42    41    2
    40    36    37    1
    41    36    35    1
    42    32    31    1
    43    32    35    1
    44    32    33    1
    45    40    41    1
    46    49    50    1
    47    49    47   ar
    48    45    47   ar
    49    72    70   ar
    50    72    73   ar
    51    33    34    2
    52    41    51   am
    53    70    68   ar
    54    73    71   ar
    55    51    52    1
    56    68    67    1
    57    68    69   ar
    58    67    64    1
    59    52    53    1
    60    52    55    1
    61    71    69   ar
    62    63    53   am
    63    63    64    1
    64    53    54    2
    65    95    94    2
    66    64    65    1
    67    62    61    1
    68    90    89    2
    69    61    60   ar
    70    61    59   ar
    71    60    58   ar
    72    59    57   ar
    73    58    56   ar
    74    57    56   ar
    75    56    55    1
    76   105   104   ar
    77    94    93    1
    78    92    93    1
    79    89    88    1
    80    65    66    2
    81    65    74   am
    82    87    88    1
    83   103   104    1
    84   103   102    1
    85   104   106   ar
    86    93    96    1
    87    98    99    1
    88    88    91    1
    89    99   102    1
    90    99   100    1
    91    74    75    1
    92    96    97    1
    93   100   101    2
    94    75    76    1
    95    75    78    1
    96    76    77    2
    97    81    80    1
    98    81    82    2
    99    80    79    1
   100    80    83    1
   101    83    84    1
   102    84    86    1
   103    84    85    1
