@<TRIPOS>MOLECULE
tmp/6n3pF00.pdb
 103 101 0 0 0
SMALL
GASTEIGER

@<TRIPOS>ATOM
      1  N         15.8190   17.7050   42.6220 N.3    15  HIS15      -0.1241
      2  CA        16.8380   16.7580   42.1780 C.3    15  HIS15       0.1621
      3  C         16.2320   15.5570   41.4740 C.2    15  HIS15       0.2264
      4  O         15.2040   15.0210   41.8950 O.2    15  HIS15      -0.2867
      5  CB        17.6800   16.2660   43.3400 C.3    15  HIS15       0.0745
      6  CG        18.3530   17.3530   44.1060 C.ar   15  HIS15       0.0817
      7  ND1       17.7290   18.0600   45.1100 N.ar   15  HIS15      -0.2268
      8  CD2       19.6080   17.8530   44.0160 C.ar   15  HIS15       0.1154
      9  CE1       18.5690   18.9490   45.6080 C.ar   15  HIS15       0.1986
     10  NE2       19.7170   18.8440   44.9610 N.ar   15  HIS15      -0.2212
     11  N         21.2050   12.1540   40.8910 N.3    19  PHE19      -0.1241
     12  CA        21.6090   12.8610   42.0970 C.3    19  PHE19       0.1605
     13  C         20.4750   13.0330   43.1010 C.2    19  PHE19       0.2264
     14  O         20.6500   13.7820   44.0680 O.2    19  PHE19      -0.2867
     15  CB        22.1900   14.2210   41.7030 C.3    19  PHE19       0.0534
     16  CG        23.3780   14.6420   42.5180 C.ar   19  PHE19      -0.0203
     17  CD1       24.6000   14.0080   42.3660 C.ar   19  PHE19      -0.0042
     18  CD2       23.2780   15.7090   43.4110 C.ar   19  PHE19      -0.0042
     19  CE1       25.7050   14.4010   43.1140 C.ar   19  PHE19      -0.0003
     20  CE2       24.3660   16.1160   44.1590 C.ar   19  PHE19      -0.0003
     21  CZ        25.5920   15.4570   44.0140 C.ar   19  PHE19      -0.0000
     22  N         25.4400   14.4320   50.9060 N.3    64  GLU64      -0.1245
     23  CA        24.4390   15.0150   50.0200 C.3    64  GLU64       0.1567
     24  C         23.0420   14.5010   50.3500 C.2    64  GLU64       0.2260
     25  O         22.0710   15.2650   50.3090 O.2    64  GLU64      -0.2867
     26  CB        24.7820   14.7560   48.5540 C.3    64  GLU64       0.0388
     27  CG        23.7900   15.4400   47.5930 C.3    64  GLU64       0.1160
     28  CD        23.7790   16.9820   47.7070 C.2    64  GLU64       0.3649
     29  OE1       22.7010   17.6070   47.5120 O.co2  64  GLU64      -0.2457
     30  OE2       24.8380   17.5780   48.0190 O.co2  64  GLU64      -0.2457
     31  N         21.8090   16.3550   53.2110 N.3    67  ALA67      -0.1231
     32  CA        21.4660   17.7130   52.8060 C.3    67  ALA67       0.1694
     33  C         20.0970   17.7590   52.1360 C.2    67  ALA67       0.2591
     34  O         19.2990   18.6730   52.3740 O.2    67  ALA67      -0.2718
     35  CB        22.5500   18.2600   51.8800 C.3    67  ALA67       0.0304
     36  N         19.8000   16.7650   51.3120 N.am   68  GLN68      -0.1979
     37  CA        18.4950   16.7210   50.6750 C.3    68  GLN68       0.1601
     38  C         17.4000   16.4750   51.7020 C.2    68  GLN68       0.2287
     39  O         16.2970   17.0280   51.5880 O.2    68  GLN68      -0.2864
     40  CB        18.4920   15.6520   49.5910 C.3    68  GLN68       0.0394
     41  CG        19.3340   16.0520   48.4310 C.3    68  GLN68       0.0908
     42  CD        19.4650   14.9760   47.3930 C.2    68  GLN68       0.2608
     43  OE1       18.8440   13.9190   47.4870 O.2    68  GLN68      -0.2717
     44  NE2       20.2860   15.2400   46.3790 N.am   68  GLN68      -0.0878
     45  N         18.1810   25.9190   46.7550 N.3    87  TYR87      -0.1227
     46  CA        18.5220   25.4390   48.0910 C.3    87  TYR87       0.1736
     47  C         19.9280   24.8380   48.0180 C.2    87  TYR87       0.2595
     48  O         20.1280   23.8220   47.3430 O.2    87  TYR87      -0.2718
     49  CB        17.4970   24.4220   48.5740 C.3    87  TYR87       0.0548
     50  CG        17.6230   24.0690   50.0250 C.ar   87  TYR87      -0.0200
     51  CD1       18.1590   22.8490   50.4020 C.ar   87  TYR87      -0.0009
     52  CD2       17.2640   24.9610   51.0170 C.ar   87  TYR87      -0.0009
     53  CE1       18.3090   22.5090   51.7260 C.ar   87  TYR87       0.0417
     54  CE2       17.4000   24.6270   52.3580 C.ar   87  TYR87       0.0417
     55  CZ        17.9240   23.3950   52.7040 C.ar   87  TYR87       0.1957
     56  OH        18.0860   23.0360   54.0280 O.3    87  TYR87      -0.2866
     57  N         20.9140   25.4730   48.6700 N.am   88  TYR88      -0.1962
     58  CA        22.3170   25.0990   48.4740 C.3    88  TYR88       0.1771
     59  C         23.1300   24.9560   49.7620 C.2    88  TYR88       0.2620
     60  O         22.9170   25.6390   50.7680 O.2    88  TYR88      -0.2715
     61  CB        23.0510   26.0720   47.5490 C.3    88  TYR88       0.0574
     62  CG        22.8820   27.5160   47.8970 C.ar   88  TYR88      -0.0198
     63  CD1       21.9030   28.2880   47.2690 C.ar   88  TYR88      -0.0009
     64  CD2       23.7000   28.1200   48.8420 C.ar   88  TYR88      -0.0009
     65  CE1       21.7470   29.6290   47.5780 C.ar   88  TYR88       0.0417
     66  CE2       23.5540   29.4620   49.1570 C.ar   88  TYR88       0.0417
     67  CZ        22.5720   30.2110   48.5270 C.ar   88  TYR88       0.1957
     68  OH        22.4090   31.5450   48.8370 O.3    88  TYR88      -0.2866
     69  N         24.1490   24.1240   49.6510 N.am   89  PHE89      -0.1960
     70  CA        25.1430   23.9080   50.6940 C.3    89  PHE89       0.1771
     71  C         26.0240   25.1450   50.8710 C.2    89  PHE89       0.2619
     72  O         26.6850   25.5930   49.9260 O.2    89  PHE89      -0.2715
     73  CB        25.9870   22.7030   50.2790 C.3    89  PHE89       0.0574
     74  CG        26.0170   21.6030   51.2760 C.ar   89  PHE89      -0.0200
     75  CD1       26.0790   20.2840   50.8470 C.ar   89  PHE89      -0.0042
     76  CD2       25.8800   21.8640   52.6220 C.ar   89  PHE89      -0.0042
     77  CE1       26.0770   19.2410   51.7390 C.ar   89  PHE89      -0.0003
     78  CE2       25.8890   20.8270   53.5360 C.ar   89  PHE89      -0.0003
     79  CZ        25.9820   19.5070   53.0920 C.ar   89  PHE89      -0.0000
     80  N         25.9610   25.7450   52.0560 N.am   90  ALA90      -0.1977
     81  CA        26.7770   26.8970   52.4110 C.3    90  ALA90       0.1597
     82  C         28.0340   26.4810   53.1580 C.2    90  ALA90       0.2287
     83  O         29.0920   27.0860   52.9840 O.2    90  ALA90      -0.2864
     84  CB        25.9830   27.8850   53.2650 C.3    90  ALA90       0.0319
     85  N         19.0650   34.8780   58.7190 N.3   118  ARG118     -0.1245
     86  CA        19.3060   35.4590   57.3990 C.3   118  ARG118      0.1563
     87  C         19.1490   34.4400   56.2780 C.2   118  ARG118      0.2260
     88  O         19.8030   34.5480   55.2390 O.2   118  ARG118     -0.2867
     89  CB        20.7060   36.0880   57.3140 C.3   118  ARG118      0.0307
     90  CG        20.9580   37.3680   58.0850 C.3   118  ARG118      0.0489
     91  CD        22.3650   37.8960   57.7740 C.3   118  ARG118      0.2205
     92  NE        22.5820   38.1270   56.3450 N.pl3 118  ARG118     -0.0865
     93  CZ        23.7430   38.5000   55.8030 C.cat 118  ARG118      0.5346
     94  NH1       23.8420   38.6640   54.4880 N.pl3 118  ARG118      0.1354
     95  NH2       24.8030   38.7330   56.5720 N.pl3 118  ARG118      0.1354
     96  N         20.1790   31.4070   56.3510 N.3   120  LEU120     -0.1245
     97  CA        21.1510   30.3480   56.5970 C.3   120  LEU120      0.1561
     98  C         20.6590   29.5200   57.7700 C.2   120  LEU120      0.2260
     99  O         20.1790   30.0690   58.7640 O.2   120  LEU120     -0.2867
    100  CB        22.5370   30.9110   56.9180 C.3   120  LEU120      0.0270
    101  CG        23.1410   31.9320   55.9650 C.3   120  LEU120      0.0019
    102  CD1       24.5230   32.3600   56.4040 C.3   120  LEU120      0.0001
    103  CD2       23.2250   31.3080   54.6320 C.3   120  LEU120      0.0001
@<TRIPOS>BOND
     1    11    12    1
     2     3     4    2
     3     3     2    1
     4    15    12    1
     5    15    16    1
     6    12    13    1
     7     2     1    1
     8     2     5    1
     9    17    16   ar
    10    17    19   ar
    11    16    18   ar
    12    13    14    2
    13    19    21   ar
    14     5     6    1
    15    18    20   ar
    16    21    20   ar
    17     8     6   ar
    18     8    10   ar
    19     6     7   ar
    20    10     9   ar
    21     7     9   ar
    22    44    42   am
    23    45    46    1
    24    63    65   ar
    25    63    62   ar
    26    48    47    2
    27    42    43    2
    28    42    41    1
    29    29    28   ar
    30    61    62    1
    31    61    58    1
    32    65    67   ar
    33    27    28    1
    34    27    26    1
    35    28    30   ar
    36    62    64   ar
    37    47    46    1
    38    47    57   am
    39    46    49    1
    40    41    40    1
    41    58    57    1
    42    58    59    1
    43    67    68    1
    44    67    66   ar
    45    26    23    1
    46    49    50    1
    47    64    66   ar
    48    40    37    1
    49    69    59   am
    50    69    70    1
    51    59    60    2
    52    72    71    2
    53    23    24    1
    54    23    22    1
    55    50    51   ar
    56    50    52   ar
    57    73    70    1
    58    73    74    1
    59    25    24    2
    60    51    53   ar
    61    37    36    1
    62    37    38    1
    63    70    71    1
    64    75    74   ar
    65    75    77   ar
    66    71    80   am
    67    52    54   ar
    68    74    76   ar
    69    36    33   am
    70    39    38    2
    71    53    55   ar
    72    77    79   ar
    73    35    32    1
    74    80    81    1
    75    33    34    2
    76    33    32    1
    77    54    55   ar
    78    81    82    1
    79    81    84    1
    80    76    78   ar
    81    55    56    1
    82    32    31    1
    83    83    82    2
    84    79    78   ar
    85    94    93    1
    86   103   101    1
    87    88    87    2
    88    93    92    2
    89    93    95    1
    90   101   102    1
    91   101   100    1
    92    87    86    1
    93    92    91    1
    94    96    97    1
    95    97   100    1
    96    97    98    1
    97    89    86    1
    98    89    90    1
    99    86    85    1
   100    98    99    2
   101    91    90    1
