@<TRIPOS>MOLECULE
tmp/6n3pE00.pdb
 111 113 0 0 0
SMALL
GASTEIGER

@<TRIPOS>ATOM
      1  N         21.1440   17.1460   39.3100 N.3    50  HIS50      -0.1226
      2  CA        21.1960   18.1790   40.3430 C.3    50  HIS50       0.1752
      3  C         20.8070   19.5190   39.7370 C.2    50  HIS50       0.2596
      4  O         21.5640   20.1010   38.9520 O.2    50  HIS50      -0.2718
      5  CB        22.5810   18.2160   40.9840 C.3    50  HIS50       0.0759
      6  CG        22.8710   19.4590   41.7630 C.ar   50  HIS50       0.0818
      7  ND1       22.9890   20.6890   41.1430 N.ar   50  HIS50      -0.2268
      8  CD2       23.0970   19.6750   43.0850 C.ar   50  HIS50       0.1154
      9  CE1       23.2590   21.6160   42.0400 C.ar   50  HIS50       0.1986
     10  NE2       23.3140   21.0240   43.2110 N.ar   50  HIS50      -0.2212
     11  N         19.6670   20.0360   40.1750 N.am   51  PHE51      -0.1976
     12  CA        19.0140   21.2400   39.6780 C.3    51  PHE51       0.1639
     13  C         19.0800   21.2680   38.1540 C.2    51  PHE51       0.2290
     14  O         19.8430   22.0400   37.5650 O.2    51  PHE51      -0.2864
     15  CB        19.6410   22.4770   40.3190 C.3    51  PHE51       0.0560
     16  CG        19.1070   22.7560   41.6950 C.ar   51  PHE51      -0.0200
     17  CD1       19.5950   22.0580   42.7870 C.ar   51  PHE51      -0.0042
     18  CD2       18.0570   23.6470   41.8870 C.ar   51  PHE51      -0.0042
     19  CE1       19.0920   22.2860   44.0540 C.ar   51  PHE51      -0.0003
     20  CE2       17.5460   23.8740   43.1510 C.ar   51  PHE51      -0.0003
     21  CZ        18.0680   23.1950   44.2380 C.ar   51  PHE51      -0.0000
     22  N         25.1790   23.7440   38.0270 N.3    56  ILE56      -0.1231
     23  CA        26.1460   24.1880   39.0310 C.3    56  ILE56       0.1692
     24  C         26.8130   22.9580   39.6200 C.2    56  ILE56       0.2592
     25  O         26.1220   22.0230   40.0490 O.2    56  ILE56      -0.2718
     26  CB        25.5230   25.0070   40.1730 C.3    56  ILE56       0.0266
     27  CG1       24.9920   26.3370   39.6690 C.3    56  ILE56       0.0019
     28  CG2       26.5640   25.2660   41.2330 C.3    56  ILE56       0.0020
     29  CD1       24.4310   27.1690   40.7680 C.3    56  ILE56       0.0001
     30  N         28.1480   22.9690   39.6580 N.am   57  PHE57      -0.1963
     31  CA        28.9330   21.8430   40.1470 C.3    57  PHE57       0.1756
     32  C         28.6550   21.6030   41.6310 C.2    57  PHE57       0.2461
     33  O         28.8130   22.5320   42.4440 O.2    57  PHE57      -0.2730
     34  CB        30.4200   22.1170   39.9150 C.3    57  PHE57       0.0574
     35  CG        31.2910   20.8990   40.0380 C.ar   57  PHE57      -0.0200
     36  CD1       31.2630   19.9150   39.0730 C.ar   57  PHE57      -0.0042
     37  CD2       32.1240   20.7330   41.1220 C.ar   57  PHE57      -0.0042
     38  CE1       32.0740   18.8030   39.1770 C.ar   57  PHE57      -0.0003
     39  CE2       32.9260   19.6140   41.2370 C.ar   57  PHE57      -0.0003
     40  CZ        32.8990   18.6490   40.2570 C.ar   57  PHE57      -0.0000
     41  N         28.2340   20.3980   42.0220 N.am   58  PRO58      -0.2716
     42  CA        27.9030   20.1420   43.4300 C.3    58  PRO58       0.1536
     43  C         29.1180   20.2660   44.3390 C.2    58  PRO58       0.2599
     44  O         30.1900   19.7370   44.0450 O.2    58  PRO58      -0.2715
     45  CB        27.3780   18.7030   43.4080 C.3    58  PRO58       0.0310
     46  CG        26.9210   18.4800   42.0010 C.3    58  PRO58       0.0237
     47  CD        27.8960   19.2600   41.1540 C.3    58  PRO58       0.0939
     48  N         28.9160   20.9050   45.4910 N.am   59  GLY59      -0.1941
     49  CA        30.0350   21.1830   46.3760 C.3    59  GLY59       0.2014
     50  C         30.6570   19.9340   46.9700 C.2    59  GLY59       0.2638
     51  O         31.8830   19.8450   47.1260 O.2    59  GLY59      -0.2714
     52  N         29.8300   18.9420   47.2920 N.am   60  VAL60      -0.1977
     53  CA        30.3650   17.7030   47.8420 C.3    60  VAL60       0.1596
     54  C         31.2760   17.0230   46.8310 C.2    60  VAL60       0.2287
     55  O         32.1880   16.2770   47.2060 O.2    60  VAL60      -0.2864
     56  CB        29.2120   16.7980   48.2890 C.3    60  VAL60       0.0276
     57  CG1       28.0390   17.6630   48.6530 C.3    60  VAL60       0.0022
     58  CG2       28.8430   15.8170   47.1880 C.3    60  VAL60       0.0022
     59  N         33.2450   18.8480   44.8710 N.3    62  ILE62      -0.1245
     60  CA        34.4930   19.5720   45.0690 C.3    62  ILE62       0.1561
     61  C         35.2950   18.8960   46.1620 C.2    62  ILE62       0.2260
     62  O         36.5220   18.7250   46.0550 O.2    62  ILE62      -0.2867
     63  CB        34.2250   21.0490   45.4070 C.3    62  ILE62       0.0252
     64  CG1       33.4420   21.7290   44.2780 C.3    62  ILE62       0.0019
     65  CG2       35.5370   21.7640   45.6630 C.3    62  ILE62       0.0019
     66  CD1       33.1340   23.1850   44.5220 C.3    62  ILE62       0.0001
     67  N         31.7940   26.8150   51.1650 N.3    97  PHE97      -0.1227
     68  CA        31.4960   27.0210   49.7570 C.3    97  PHE97       0.1736
     69  C         31.2350   28.4990   49.5430 C.2    97  PHE97       0.2595
     70  O         30.2270   29.0340   50.0170 O.2    97  PHE97      -0.2718
     71  CB        30.2970   26.1730   49.3280 C.3    97  PHE97       0.0547
     72  CG        30.4880   24.7040   49.5860 C.ar   97  PHE97      -0.0202
     73  CD1       31.4280   23.9830   48.8630 C.ar   97  PHE97      -0.0042
     74  CD2       29.7670   24.0540   50.5710 C.ar   97  PHE97      -0.0042
     75  CE1       31.6450   22.6470   49.1020 C.ar   97  PHE97      -0.0003
     76  CE2       29.9740   22.7100   50.8160 C.ar   97  PHE97      -0.0003
     77  CZ        30.9260   22.0050   50.0780 C.ar   97  PHE97      -0.0000
     78  N         32.1500   29.1510   48.8310 N.am   98  LYS98      -0.1966
     79  CA        32.1640   30.5990   48.7120 C.3    98  LYS98       0.1728
     80  C         31.6270   31.0920   47.3730 C.2    98  LYS98       0.2616
     81  O         31.0620   32.1830   47.3150 O.2    98  LYS98      -0.2715
     82  CB        33.5920   31.1130   48.9450 C.3    98  LYS98       0.0311
     83  CG        34.1840   30.6040   50.2780 C.3    98  LYS98       0.0038
     84  CD        35.5790   31.1590   50.6360 C.3    98  LYS98       0.0206
     85  CE        35.4870   32.5670   51.2120 C.3    98  LYS98       0.1093
     86  NZ        36.8210   33.2160   51.4810 N.3    98  LYS98      -0.1314
     87  N         31.7750   30.3200   46.2960 N.am   99  ARG99      -0.1964
     88  CA        31.3440   30.7440   44.9750 C.3    99  ARG99       0.1714
     89  C         30.8740   29.5380   44.1820 C.2    99  ARG99       0.2458
     90  O         31.5240   28.4860   44.2340 O.2    99  ARG99      -0.2730
     91  CB        32.4370   31.4490   44.1720 C.3    99  ARG99       0.0347
     92  CG        32.8020   32.8540   44.5750 C.3    99  ARG99       0.0492
     93  CD        33.7940   33.3910   43.5340 C.3    99  ARG99       0.2205
     94  NE        33.7900   34.8510   43.3570 N.pl3  99  ARG99      -0.0865
     95  CZ        33.2280   35.4850   42.3260 C.cat  99  ARG99       0.5346
     96  NH1       32.6090   34.7870   41.3780 N.pl3  99  ARG99       0.1354
     97  NH2       33.2930   36.8130   42.2370 N.pl3  99  ARG99       0.1354
     98  N         29.7820   29.6640   43.4250 N.am  100  PRO100     -0.2716
     99  CA        29.3020   28.5310   42.6280 C.3   100  PRO100      0.1536
    100  C         30.2160   28.2660   41.4530 C.2   100  PRO100      0.2598
    101  O         30.7040   29.1960   40.8070 O.2   100  PRO100     -0.2715
    102  CB        27.9260   28.9970   42.1550 C.3   100  PRO100      0.0310
    103  CG        28.0370   30.4430   42.1220 C.3   100  PRO100      0.0237
    104  CD        28.9310   30.8450   43.2540 C.3   100  PRO100      0.0939
    105  N         30.4050   26.9840   41.1510 N.am  101  VAL101     -0.1978
    106  CA        31.2370   26.5580   40.0340 C.3   101  VAL101      0.1596
    107  C         30.3100   26.1320   38.8960 C.2   101  VAL101      0.2287
    108  O         29.3920   25.3250   39.1000 O.2   101  VAL101     -0.2864
    109  CB        32.1960   25.4300   40.4560 C.3   101  VAL101      0.0276
    110  CG1       33.0570   25.0160   39.2960 C.3   101  VAL101      0.0022
    111  CG2       33.0750   25.8780   41.6220 C.3   101  VAL101      0.0022
@<TRIPOS>BOND
     1    14    13    2
     2    22    23    1
     3    13    12    1
     4   107   108    2
     5   107   106    1
     6     4     3    2
     7    23    24    1
     8    23    26    1
     9    36    38   ar
    10    36    35   ar
    11    38    40   ar
    12   110   109    1
    13     1     2    1
    14    24    30   am
    15    24    25    2
    16    30    31    1
    17    27    26    1
    18    27    29    1
    19    12    11    1
    20    12    15    1
    21     3    11   am
    22     3     2    1
    23    34    35    1
    24    34    31    1
    25   106   109    1
    26   106   105    1
    27    35    37   ar
    28    31    32    1
    29    26    28    1
    30    40    39   ar
    31    15    16    1
    32     2     5    1
    33   109   111    1
    34   101   100    2
    35     5     6    1
    36    37    39   ar
    37     7     6   ar
    38     7     9   ar
    39   105   100   am
    40    47    46    1
    41    47    41    1
    42    96    95    1
    43   100    99    1
    44    32    41   am
    45    32    33    2
    46    16    18   ar
    47    16    17   ar
    48     6     8   ar
    49    18    20   ar
    50    46    45    1
    51    41    42    1
    52     9    10   ar
    53   103   102    1
    54   103   104    1
    55   102    99    1
    56    97    95    1
    57    95    94    2
    58    99    98    1
    59    17    19   ar
    60     8    10   ar
    61    20    21   ar
    62   104    98    1
    63    94    93    1
    64    45    42    1
    65    98    89   am
    66    42    43    1
    67    93    92    1
    68    44    43    2
    69    19    21   ar
    70    91    92    1
    71    91    88    1
    72    89    90    2
    73    89    88    1
    74    64    66    1
    75    64    63    1
    76    43    48   am
    77    59    60    1
    78    88    87    1
    79    60    63    1
    80    60    61    1
    81    63    65    1
    82    48    49    1
    83    62    61    2
    84    87    80   am
    85    49    50    1
    86    54    55    2
    87    54    53    1
    88    50    51    2
    89    50    52   am
    90    58    56    1
    91    52    53    1
    92    81    80    2
    93    80    79    1
    94    53    56    1
    95    56    57    1
    96    79    78    1
    97    79    82    1
    98    78    69   am
    99    73    75   ar
   100    73    72   ar
   101    82    83    1
   102    75    77   ar
   103    71    72    1
   104    71    68    1
   105    69    68    1
   106    69    70    2
   107    72    74   ar
   108    68    67    1
   109    77    76   ar
   110    83    84    1
   111    74    76   ar
   112    84    85    1
   113    85    86    1
