@<TRIPOS>MOLECULE
tmp/6n4bD01.pdb
 101 96 0 0 0
SMALL
GASTEIGER

@<TRIPOS>ATOM
      1  N        100.0050  121.3250  105.4190 N.3   100  PHE100     -0.1241
      2  CA       101.3550  121.5270  104.9160 C.3   100  PHE100      0.1605
      3  C        102.1000  120.2350  104.6340 C.2   100  PHE100      0.2264
      4  O        103.1440  120.2760  104.0140 O.2   100  PHE100     -0.2867
      5  CB       102.1660  122.4060  105.8600 C.3   100  PHE100      0.0534
      6  CG       103.6250  122.4440  105.5490 C.ar  100  PHE100     -0.0203
      7  CD1      104.4600  121.4780  106.0490 C.ar  100  PHE100     -0.0042
      8  CD2      104.1460  123.4130  104.7310 C.ar  100  PHE100     -0.0042
      9  CE1      105.8060  121.4880  105.7660 C.ar  100  PHE100     -0.0003
     10  CE2      105.4920  123.4390  104.4390 C.ar  100  PHE100     -0.0003
     11  CZ       106.3260  122.4710  104.9570 C.ar  100  PHE100     -0.0000
     12  N        103.6630  118.9860  100.6700 N.3   104  ILE104     -0.1245
     13  CA       105.0100  118.5070  100.5110 C.3   104  ILE104      0.1561
     14  C        105.0050  117.1940   99.7770 C.2   104  ILE104      0.2260
     15  O        106.0080  116.7970   99.2140 O.2   104  ILE104     -0.2867
     16  CB       105.6630  118.2940  101.8700 C.3   104  ILE104      0.0252
     17  CG1      105.6250  119.5930  102.6580 C.3   104  ILE104      0.0019
     18  CG2      107.0910  117.8140  101.7090 C.3   104  ILE104      0.0019
     19  CD1      106.3340  120.7160  101.9510 C.3   104  ILE104      0.0001
     20  N        103.9630  118.1070   95.9900 N.3   107  TYR107     -0.1227
     21  CA       105.0250  118.8460   95.3280 C.3   107  TYR107      0.1736
     22  C        106.0830  117.8960   94.8130 C.2   107  TYR107      0.2595
     23  O        106.6170  118.0830   93.7170 O.2   107  TYR107     -0.2718
     24  CB       105.6460  119.8500   96.2900 C.3   107  TYR107      0.0548
     25  CG       106.8190  120.6020   95.7330 C.ar  107  TYR107     -0.0200
     26  CD1      106.6330  121.6420   94.8480 C.ar  107  TYR107     -0.0009
     27  CD2      108.1100  120.3000   96.1230 C.ar  107  TYR107     -0.0009
     28  CE1      107.6900  122.3440   94.3570 C.ar  107  TYR107      0.0417
     29  CE2      109.1770  121.0010   95.6280 C.ar  107  TYR107      0.0417
     30  CZ       108.9590  122.0220   94.7430 C.ar  107  TYR107      0.1957
     31  OH       110.0200  122.7310   94.2400 O.3   107  TYR107     -0.2866
     32  N        106.3750  116.8640   95.6010 N.am  108  ILE108     -0.1980
     33  CA       107.3680  115.8810   95.2120 C.3   108  ILE108      0.1595
     34  C        106.8130  115.0090   94.1040 C.2   108  ILE108      0.2287
     35  O        107.5700  114.4780   93.2850 O.2   108  ILE108     -0.2864
     36  CB       107.7880  115.0430   96.4270 C.3   108  ILE108      0.0276
     37  CG1      108.5170  115.9020   97.4470 C.3   108  ILE108      0.0022
     38  CG2      108.6690  113.9050   96.0140 C.3   108  ILE108      0.0022
     39  CD1      108.7110  115.1910   98.7560 C.3   108  ILE108      0.0001
     40  N        107.7050  117.2220   91.1470 N.3   111  HIS111     -0.1226
     41  CA       109.0520  117.7800   91.0990 C.3   111  HIS111      0.1752
     42  C        110.0730  116.7210   90.6910 C.2   111  HIS111      0.2595
     43  O        110.9680  116.9940   89.8850 O.2   111  HIS111     -0.2718
     44  CB       109.3980  118.4430   92.4240 C.3   111  HIS111      0.0759
     45  CG       110.7460  119.0790   92.4320 C.ar  111  HIS111      0.0818
     46  ND1      111.0690  120.1140   91.5830 N.ar  111  HIS111     -0.2268
     47  CD2      111.8310  118.8810   93.2150 C.ar  111  HIS111      0.1154
     48  CE1      112.3090  120.5000   91.8170 C.ar  111  HIS111      0.1986
     49  NE2      112.7910  119.7720   92.8060 N.ar  111  HIS111     -0.2212
     50  N        109.9270  115.5230   91.2450 N.am  112  ARG112     -0.1980
     51  CA       110.7770  114.3770   90.9370 C.3   112  ARG112      0.1597
     52  C        109.8810  113.1710   90.7040 C.2   112  ARG112      0.2287
     53  O        109.8610  112.2490   91.5070 O.2   112  ARG112     -0.2864
     54  CB       111.7020  114.0760   92.1010 C.3   112  ARG112      0.0334
     55  CG       112.6750  115.1820   92.4200 C.3   112  ARG112      0.0492
     56  CD       113.6710  115.3930   91.3080 C.3   112  ARG112      0.2205
     57  NE       114.5920  116.4530   91.6850 N.pl3 112  ARG112     -0.0865
     58  CZ       115.4350  117.0300   90.8420 C.cat 112  ARG112      0.5346
     59  NH1      115.4530  116.6590   89.5670 N.pl3 112  ARG112      0.1354
     60  NH2      116.2510  117.9810   91.2720 N.pl3 112  ARG112      0.1354
     61  N        111.4090  109.5030   91.0180 N.3   115  ALA115     -0.1245
     62  CA       111.7980  109.1270   92.3630 C.3   115  ALA115      0.1562
     63  C        110.6600  109.2340   93.3640 C.2   115  ALA115      0.2260
     64  O        110.8570  108.8910   94.5350 O.2   115  ALA115     -0.2867
     65  CB       112.9720  109.9930   92.8240 C.3   115  ALA115      0.0290
     66  N        111.4060  107.7410   97.4090 N.3   119  ILE119     -0.1245
     67  CA       111.6170  108.5320   98.6260 C.3   119  ILE119      0.1561
     68  C        110.5170  108.5240   99.6780 C.2   119  ILE119      0.2260
     69  O        110.7990  108.4840  100.8640 O.2   119  ILE119     -0.2867
     70  CB       112.1030  109.9640   98.3480 C.3   119  ILE119      0.0252
     71  CG1      111.0960  110.7440   97.5280 C.3   119  ILE119      0.0019
     72  CG2      113.4380  109.9380   97.6320 C.3   119  ILE119      0.0019
     73  CD1      111.4540  112.2060   97.4320 C.3   119  ILE119      0.0001
     74  N        109.3360  106.7600  106.5920 N.3   124  LYS124     -0.1245
     75  CA       109.7080  108.1700  106.6280 C.3   124  LYS124      0.1561
     76  C        108.4730  109.0300  106.8570 C.2   124  LYS124      0.2260
     77  O        108.5200  110.0290  107.5920 O.2   124  LYS124     -0.2867
     78  CB       110.4150  108.5620  105.3330 C.3   124  LYS124      0.0271
     79  CG       111.2230  109.8440  105.4640 C.3   124  LYS124      0.0035
     80  CD       111.9700  110.1960  104.1870 C.3   124  LYS124      0.0206
     81  CE       111.0720  110.9270  103.2040 C.3   124  LYS124      0.1093
     82  NZ       111.8330  111.4270  102.0210 N.3   124  LYS124     -0.1314
     83  N        103.8600  129.0730  107.2900 N.3   172  LEU172     -0.1245
     84  CA       103.3000  127.7990  106.8600 C.3   172  LEU172      0.1561
     85  C        102.2170  127.9450  105.8100 C.2   172  LEU172      0.2260
     86  O        102.1680  127.1920  104.8660 O.2   172  LEU172     -0.2867
     87  CB       102.7670  127.0100  108.0430 C.3   172  LEU172      0.0270
     88  CG       103.8970  126.6220  108.9720 C.3   172  LEU172      0.0019
     89  CD1      103.3330  125.9690  110.2140 C.3   172  LEU172      0.0001
     90  CD2      104.7490  125.6340  108.2150 C.3   172  LEU172      0.0001
     91  N        103.8880  128.8420  102.2760 N.3   175  PHE175     -0.1241
     92  CA       104.5610  127.8260  101.4870 C.3   175  PHE175      0.1605
     93  C        103.6100  126.9320  100.7370 C.2   175  PHE175      0.2264
     94  O        103.8390  126.6270   99.5910 O.2   175  PHE175     -0.2867
     95  CB       105.4500  126.9280  102.3100 C.3   175  PHE175      0.0534
     96  CG       105.8970  125.7270  101.5520 C.ar  175  PHE175     -0.0203
     97  CD1      106.9290  125.8150  100.6420 C.ar  175  PHE175     -0.0042
     98  CD2      105.2540  124.5300  101.6970 C.ar  175  PHE175     -0.0042
     99  CE1      107.3390  124.7100   99.9180 C.ar  175  PHE175     -0.0003
    100  CE2      105.6610  123.4220  100.9830 C.ar  175  PHE175     -0.0003
    101  CZ       106.7020  123.5090  100.0890 C.ar  175  PHE175     -0.0000
@<TRIPOS>BOND
     1    59    58    1
     2    43    42    2
     3    42    41    1
     4    42    50   am
     5    52    51    1
     6    52    53    2
     7    58    60    1
     8    58    57    2
     9    51    50    1
    10    51    54    1
    11    61    62    1
    12    41    40    1
    13    41    44    1
    14    56    57    1
    15    56    55    1
    16    46    48   ar
    17    46    45   ar
    18    48    49   ar
    19    54    55    1
    20    62    65    1
    21    62    63    1
    22    44    45    1
    23    45    47   ar
    24    49    47   ar
    25    35    34    2
    26    63    64    2
    27    23    22    2
    28    34    33    1
    29    31    30    1
    30    28    30   ar
    31    28    26   ar
    32    30    29   ar
    33    22    21    1
    34    22    32   am
    35    26    25   ar
    36    33    32    1
    37    33    36    1
    38    21    20    1
    39    21    24    1
    40    29    27   ar
    41    25    27   ar
    42    25    24    1
    43    38    36    1
    44    36    37    1
    45    66    67    1
    46    73    71    1
    47    37    39    1
    48    71    70    1
    49    72    70    1
    50    70    67    1
    51    67    68    1
    52    15    14    2
    53    94    93    2
    54    68    69    2
    55    14    13    1
    56    99   101   ar
    57    99    97   ar
    58   101   100   ar
    59    13    12    1
    60    13    16    1
    61    97    96   ar
    62    93    92    1
    63   100    98   ar
    64    92    91    1
    65    92    95    1
    66    96    98   ar
    67    96    95    1
    68    18    16    1
    69    16    17    1
    70    19    17    1
    71    82    81    1
    72    81    80    1
    73     4     3    2
    74    80    79    1
    75    10     8   ar
    76    10    11   ar
    77     3     2    1
    78     8     6   ar
    79    86    85    2
    80     2     1    1
    81     2     5    1
    82    11     9   ar
    83    78    79    1
    84    78    75    1
    85     6     5    1
    86     6     7   ar
    87     9     7   ar
    88    85    84    1
    89    74    75    1
    90    75    76    1
    91    76    77    2
    92    84    83    1
    93    84    87    1
    94    87    88    1
    95    90    88    1
    96    88    89    1
