@<TRIPOS>MOLECULE
tmp/6n4bD00.pdb
 240 235 0 0 0
SMALL
GASTEIGER

@<TRIPOS>ATOM
      1  N         84.4190  139.3500  124.6640 N.3     1  MET1       -0.1245
      2  CA        83.9770  139.4750  126.0390 C.3     1  MET1        0.1570
      3  C         82.6500  140.2160  126.1070 C.2     1  MET1        0.2261
      4  O         82.0400  140.2940  127.1650 O.2     1  MET1       -0.2867
      5  CB        85.0350  140.1710  126.8980 C.3     1  MET1        0.0387
      6  CG        86.3000  139.3340  126.9930 C.3     1  MET1        0.0595
      7  SD        87.8070  140.1880  127.3650 S.3     1  MET1       -0.1393
      8  CE        87.3490  140.7550  128.7560 C.3     1  MET1        0.0692
      9  N         86.8350  122.8850  120.9960 N.3    62  PHE62      -0.1241
     10  CA        86.5710  124.2990  120.8090 C.3    62  PHE62       0.1605
     11  C         85.0970  124.6380  120.9360 C.2    62  PHE62       0.2264
     12  O         84.7620  125.6830  121.4880 O.2    62  PHE62      -0.2867
     13  CB        87.1000  124.7500  119.4510 C.3    62  PHE62       0.0534
     14  CG        86.8100  126.1810  119.1380 C.ar   62  PHE62      -0.0203
     15  CD1       87.5900  127.1850  119.6710 C.ar   62  PHE62      -0.0042
     16  CD2       85.7700  126.5240  118.2990 C.ar   62  PHE62      -0.0042
     17  CE1       87.3290  128.5000  119.3880 C.ar   62  PHE62      -0.0003
     18  CE2       85.5060  127.8430  118.0100 C.ar   62  PHE62      -0.0003
     19  CZ        86.2850  128.8290  118.5560 C.ar   62  PHE62      -0.0000
     20  N         84.4790  124.8330  124.7300 N.3    65  SER65      -0.1202
     21  CA        85.2630  125.8720  125.3670 C.3    65  SER65       0.2020
     22  C         84.8090  127.2370  124.9470 C.2    65  SER65       0.2618
     23  O         84.7420  128.1450  125.7490 O.2    65  SER65      -0.2717
     24  CB        86.7380  125.7160  125.0610 C.3    65  SER65       0.2103
     25  OG        87.4610  126.7680  125.6580 O.3    65  SER65      -0.2182
     26  N         84.4890  127.3810  123.6760 N.am   66  PHE66      -0.1975
     27  CA        84.0780  128.6790  123.1750 C.3    66  PHE66       0.1639
     28  C         82.6620  129.0140  123.6260 C.2    66  PHE66       0.2290
     29  O         82.3750  130.1590  123.9880 O.2    66  PHE66      -0.2864
     30  CB        84.1570  128.6170  121.6460 C.3    66  PHE66       0.0560
     31  CG        83.7000  129.8530  120.9250 C.ar   66  PHE66      -0.0200
     32  CD1       84.5190  130.9540  120.7970 C.ar   66  PHE66      -0.0042
     33  CD2       82.4350  129.9080  120.3800 C.ar   66  PHE66      -0.0042
     34  CE1       84.0850  132.0760  120.1120 C.ar   66  PHE66      -0.0003
     35  CE2       81.9950  131.0290  119.7150 C.ar   66  PHE66      -0.0003
     36  CZ        82.8180  132.1140  119.5860 C.ar   66  PHE66      -0.0000
     37  N         82.8200  130.1850  127.5830 N.3    69  PHE69      -0.1227
     38  CA        83.3310  131.5370  127.9030 C.3    69  PHE69       0.1736
     39  C         82.7550  132.8260  127.2760 C.2    69  PHE69       0.2595
     40  O         82.4270  133.7520  127.9960 O.2    69  PHE69      -0.2718
     41  CB        84.8660  131.5590  127.8320 C.3    69  PHE69       0.0547
     42  CG        85.4610  132.9330  127.6540 C.ar   69  PHE69      -0.0202
     43  CD1       85.5780  133.4850  126.3950 C.ar   69  PHE69      -0.0042
     44  CD2       85.9210  133.6610  128.7320 C.ar   69  PHE69      -0.0042
     45  CE1       86.1320  134.7340  126.2150 C.ar   69  PHE69      -0.0003
     46  CE2       86.4650  134.9150  128.5630 C.ar   69  PHE69      -0.0003
     47  CZ        86.5740  135.4510  127.3020 C.ar   69  PHE69      -0.0000
     48  N         82.6050  132.9110  125.9650 N.am   70  HIS70      -0.1975
     49  CA        82.0600  134.1490  125.4130 C.3    70  HIS70       0.1656
     50  C         80.6160  134.2670  125.8360 C.2    70  HIS70       0.2291
     51  O         80.1400  135.3270  126.2220 O.2    70  HIS70      -0.2864
     52  CB        82.1960  134.2070  123.8940 C.3    70  HIS70       0.0771
     53  CG        83.3690  135.0070  123.4170 C.ar   70  HIS70       0.0820
     54  ND1       83.5070  136.3520  123.6790 N.ar   70  HIS70      -0.2267
     55  CD2       84.4460  134.6590  122.6730 C.ar   70  HIS70       0.1154
     56  CE1       84.6230  136.7950  123.1280 C.ar   70  HIS70       0.1986
     57  NE2       85.2120  135.7870  122.5110 N.ar   70  HIS70      -0.2212
     58  N         93.8930  129.4060  132.2920 N.3    81  PHE81      -0.1241
     59  CA        93.6980  129.9110  130.9320 C.3    81  PHE81       0.1605
     60  C         94.6040  129.2460  129.9130 C.2    81  PHE81       0.2264
     61  O         94.1510  128.9080  128.8390 O.2    81  PHE81      -0.2867
     62  CB        93.9070  131.4240  130.8640 C.3    81  PHE81       0.0534
     63  CG        93.4220  132.0510  129.5940 C.ar   81  PHE81      -0.0203
     64  CD1       92.1150  131.9650  129.1990 C.ar   81  PHE81      -0.0042
     65  CD2       94.3110  132.6320  128.7760 C.ar   81  PHE81      -0.0042
     66  CE1       91.7320  132.5240  127.9370 C.ar   81  PHE81      -0.0003
     67  CE2       93.9130  133.2240  127.5480 C.ar   81  PHE81      -0.0003
     68  CZ        92.6150  133.1550  127.1650 C.ar   81  PHE81      -0.0000
     69  N         92.9690  124.6010  128.3890 N.3    84  LYS84      -0.1231
     70  CA        91.6280  124.8430  127.8710 C.3    84  LYS84       0.1693
     71  C         91.6760  125.7680  126.6750 C.2    84  LYS84       0.2591
     72  O         90.6820  125.9580  125.9830 O.2    84  LYS84      -0.2718
     73  CB        90.7250  125.4260  128.9530 C.3    84  LYS84       0.0285
     74  CG        89.4570  126.0920  128.4360 C.3    84  LYS84       0.0035
     75  CD        88.8790  127.0630  129.4660 C.3    84  LYS84       0.0206
     76  CE        89.9080  128.0660  130.0140 C.3    84  LYS84       0.1093
     77  NZ        90.5570  128.8800  128.9570 N.3    84  LYS84      -0.1314
     78  N         92.8490  126.3380  126.4450 N.am   85  LEU85      -0.1980
     79  CA        93.0890  127.2030  125.3080 C.3    85  LEU85       0.1596
     80  C         94.2810  126.5830  124.6470 C.2    85  LEU85       0.2287
     81  O         94.6850  126.9750  123.5730 O.2    85  LEU85      -0.2864
     82  CB        93.3910  128.6290  125.7230 C.3    85  LEU85       0.0297
     83  CG        94.1410  129.4650  124.7010 C.3    85  LEU85       0.0022
     84  CD1       93.8610  130.9370  124.9250 C.3    85  LEU85       0.0001
     85  CD2       95.6240  129.1800  124.8160 C.3    85  LEU85       0.0001
     86  N         92.7580  124.1640  121.6990 N.3    88  VAL88      -0.1231
     87  CA        92.3340  124.8660  120.4980 C.3    88  VAL88       0.1692
     88  C         93.5860  125.3590  119.7780 C.2    88  VAL88       0.2592
     89  O         93.6860  125.2680  118.5550 O.2    88  VAL88      -0.2718
     90  CB        91.4280  126.0650  120.8290 C.3    88  VAL88       0.0266
     91  CG1       91.1030  126.8490  119.5650 C.3    88  VAL88       0.0020
     92  CG2       90.1540  125.5920  121.5120 C.3    88  VAL88       0.0020
     93  N         94.5390  125.8820  120.5460 N.am   89  THR89      -0.1953
     94  CA        95.8020  126.3540  119.9890 C.3    89  THR89       0.1897
     95  C         96.5760  125.1810  119.3910 C.2    89  THR89       0.2313
     96  O         97.1760  125.2920  118.3220 O.2    89  THR89      -0.2863
     97  CB        96.6690  127.0470  121.0550 C.3    89  THR89       0.1794
     98  OG1       97.7940  127.6750  120.4270 O.3    89  THR89      -0.2208
     99  CG2       97.1640  126.0360  122.0780 C.3    89  THR89       0.0378
    100  N         94.1030  123.6840  116.1160 N.3    92  PHE92      -0.1241
    101  CA        94.1930  124.4880  114.8990 C.3    92  PHE92       0.1605
    102  C         95.5810  124.4220  114.2870 C.2    92  PHE92       0.2264
    103  O         95.7270  124.1370  113.0940 O.2    92  PHE92      -0.2867
    104  CB        93.7900  125.9400  115.1450 C.3    92  PHE92       0.0534
    105  CG        92.3690  126.1110  115.5470 C.ar   92  PHE92      -0.0203
    106  CD1       91.4500  125.1160  115.3010 C.ar   92  PHE92      -0.0042
    107  CD2       91.9300  127.2980  116.0860 C.ar   92  PHE92      -0.0042
    108  CE1       90.1300  125.2780  115.6460 C.ar   92  PHE92      -0.0003
    109  CE2       90.6100  127.4690  116.4240 C.ar   92  PHE92      -0.0003
    110  CZ        89.7100  126.4560  116.2070 C.ar   92  PHE92      -0.0000
    111  N         94.0750  141.3620  122.9170 N.3   153  ILE153     -0.1231
    112  CA        93.3290  140.4320  122.0700 C.3   153  ILE153      0.1692
    113  C         92.5810  139.3410  122.8240 C.2   153  ILE153      0.2592
    114  O         91.4430  139.0150  122.5070 O.2   153  ILE153     -0.2718
    115  CB        94.2410  139.7740  121.0240 C.3   153  ILE153      0.0266
    116  CG1       94.8960  140.7660  120.2070 C.3   153  ILE153      0.0019
    117  CG2       93.4040  138.9480  120.0600 C.3   153  ILE153      0.0020
    118  CD1       94.0610  140.9790  118.9390 C.3   153  ILE153      0.0001
    119  N         93.2490  138.7830  123.8210 N.am  154  PHE154     -0.1963
    120  CA        92.7010  137.7350  124.6750 C.3   154  PHE154      0.1756
    121  C         92.9660  138.1640  126.1130 C.2   154  PHE154      0.2461
    122  O         93.8830  138.9350  126.3690 O.2   154  PHE154     -0.2730
    123  CB        93.3410  136.3950  124.3720 C.3   154  PHE154      0.0574
    124  CG        93.1000  135.9180  122.9740 C.ar  154  PHE154     -0.0200
    125  CD1       93.9060  136.3390  121.9400 C.ar  154  PHE154     -0.0042
    126  CD2       92.0770  135.0400  122.6990 C.ar  154  PHE154     -0.0042
    127  CE1       93.6980  135.8960  120.6530 C.ar  154  PHE154     -0.0003
    128  CE2       91.8610  134.5940  121.4150 C.ar  154  PHE154     -0.0003
    129  CZ        92.6720  135.0230  120.3920 C.ar  154  PHE154     -0.0000
    130  N         92.1980  137.6500  127.0690 N.am  155  PRO155     -0.2727
    131  CA        92.3940  138.1920  128.4150 C.3   155  PRO155      0.1402
    132  C         93.7780  138.0480  129.0550 C.2   155  PRO155      0.2269
    133  O         94.3070  139.0310  129.5680 O.2   155  PRO155     -0.2865
    134  CB        91.3670  137.4060  129.2380 C.3   155  PRO155      0.0296
    135  CG        91.2600  136.0970  128.5420 C.3   155  PRO155      0.0237
    136  CD        91.3560  136.4300  127.0870 C.3   155  PRO155      0.0939
    137  N         96.8320  135.7720  127.6030 N.3   157  ILE157     -0.1245
    138  CA        97.9920  135.3330  126.8420 C.3   157  ILE157      0.1561
    139  C         98.9860  136.4500  126.5540 C.2   157  ILE157      0.2260
    140  O         98.6070  137.6010  126.3520 O.2   157  ILE157     -0.2867
    141  CB        97.5740  134.7000  125.5050 C.3   157  ILE157      0.0252
    142  CG1       96.9660  135.7240  124.5370 C.3   157  ILE157      0.0019
    143  CG2       96.6790  133.5240  125.7820 C.3   157  ILE157      0.0019
    144  CD1       96.9330  135.2760  123.1020 C.3   157  ILE157      0.0001
    145  N        103.5320  135.9730  122.4520 N.3   161  TYR161     -0.1227
    146  CA       102.8870  134.7720  121.9280 C.3   161  TYR161      0.1736
    147  C        101.9050  135.0250  120.7950 C.2   161  TYR161      0.2595
    148  O        101.7510  134.2080  119.9100 O.2   161  TYR161     -0.2718
    149  CB       102.1440  134.0520  123.0430 C.3   161  TYR161      0.0548
    150  CG       101.9460  132.5920  122.7730 C.ar  161  TYR161     -0.0200
    151  CD1      102.9300  131.8580  122.1520 C.ar  161  TYR161     -0.0009
    152  CD2      100.7930  131.9420  123.1680 C.ar  161  TYR161     -0.0009
    153  CE1      102.7680  130.5170  121.9110 C.ar  161  TYR161      0.0417
    154  CE2      100.6200  130.5980  122.9340 C.ar  161  TYR161      0.0417
    155  CZ       101.6140  129.8920  122.3000 C.ar  161  TYR161      0.1957
    156  OH       101.4670  128.5470  122.0520 O.3   161  TYR161     -0.2866
    157  N        101.1910  136.1330  120.8660 N.am  162  LEU162     -0.1980
    158  CA       100.1740  136.4390  119.8940 C.3   162  LEU162      0.1596
    159  C        100.7950  136.9580  118.6150 C.2   162  LEU162      0.2287
    160  O        100.1040  137.1020  117.6150 O.2   162  LEU162     -0.2864
    161  CB        99.2390  137.4850  120.4550 C.3   162  LEU162      0.0297
    162  CG        98.2050  137.8790  119.4310 C.3   162  LEU162      0.0022
    163  CD1       97.4000  136.6330  119.1490 C.3   162  LEU162      0.0001
    164  CD2       97.3320  139.0040  119.9460 C.3   162  LEU162      0.0001
    165  N        103.0730  133.3160  117.1920 N.3   165  TRP165     -0.1241
    166  CA       102.2240  132.3180  116.5760 C.3   165  TRP165      0.1605
    167  C        101.7310  132.7620  115.2160 C.2   165  TRP165      0.2264
    168  O        101.6710  131.9880  114.2880 O.2   165  TRP165     -0.2867
    169  CB       101.0400  132.0390  117.4760 C.3   165  TRP165      0.0550
    170  CG       100.1300  131.0050  116.9750 C.ar  165  TRP165      0.0003
    171  CD1      100.2210  129.6720  117.1880 C.ar  165  TRP165      0.0946
    172  CD2       98.9560  131.2120  116.1970 C.ar  165  TRP165      0.0152
    173  NE1       99.1800  129.0270  116.5820 N.ar  165  TRP165     -0.2442
    174  CE2       98.3890  129.9550  115.9620 C.ar  165  TRP165      0.0810
    175  CE3       98.3320  132.3380  115.6730 C.ar  165  TRP165      0.0012
    176  CZ2       97.2350  129.7900  115.2240 C.ar  165  TRP165      0.0191
    177  CZ3       97.1910  132.1740  114.9460 C.ar  165  TRP165      0.0001
    178  CH2       96.6510  130.9110  114.7260 C.ar  165  TRP165      0.0015
    179  N         91.6010  132.0260  106.7080 N.3   221  TRP221     -0.1241
    180  CA        92.4900  132.8560  107.5120 C.3   221  TRP221      0.1605
    181  C         92.7300  134.2650  106.9850 C.2   221  TRP221      0.2264
    182  O         93.6120  134.9530  107.5050 O.2   221  TRP221     -0.2867
    183  CB        93.8010  132.1210  107.7830 C.3   221  TRP221      0.0550
    184  CG        93.5440  130.8310  108.5010 C.ar  221  TRP221      0.0003
    185  CD1       93.1000  129.6520  107.9810 C.ar  221  TRP221      0.0946
    186  CD2       93.6560  130.6280  109.9170 C.ar  221  TRP221      0.0152
    187  NE1       92.9590  128.7170  108.9840 N.ar  221  TRP221     -0.2442
    188  CE2       93.2940  129.2950  110.1820 C.ar  221  TRP221      0.0810
    189  CE3       94.0420  131.4460  110.9860 C.ar  221  TRP221      0.0012
    190  CZ2       93.3080  128.7620  111.4710 C.ar  221  TRP221      0.0191
    191  CZ3       94.0540  130.9160  112.2590 C.ar  221  TRP221      0.0001
    192  CH2       93.6920  129.5890  112.4930 C.ar  221  TRP221      0.0015
    193  N         91.0530  136.2350  109.8880 N.3   224  LEU224     -0.1245
    194  CA        91.5480  135.8790  111.2150 C.3   224  LEU224      0.1561
    195  C         92.9430  136.4270  111.4640 C.2   224  LEU224      0.2260
    196  O         93.2140  136.9520  112.5440 O.2   224  LEU224     -0.2867
    197  CB        91.5140  134.3710  111.4420 C.3   224  LEU224      0.0270
    198  CG        90.1100  133.7730  111.4570 C.3   224  LEU224      0.0019
    199  CD1       90.1600  132.2630  111.5390 C.3   224  LEU224      0.0001
    200  CD2       89.3030  134.3540  112.6000 C.3   224  LEU224      0.0001
    201  N         93.4250  139.7630  114.1190 N.3   228  MET228     -0.1245
    202  CA        94.2640  139.3280  115.2290 C.3   228  MET228      0.1570
    203  C         95.4890  140.1850  115.2880 C.2   228  MET228      0.2261
    204  O         95.9550  140.5420  116.3530 O.2   228  MET228     -0.2867
    205  CB        94.6840  137.8760  115.0720 C.3   228  MET228      0.0387
    206  CG        94.1130  136.9430  116.1150 C.3   228  MET228      0.0595
    207  SD        94.5430  135.2250  115.7870 S.3   228  MET228     -0.1393
    208  CE        96.3050  135.3280  115.5380 C.3   228  MET228      0.0692
    209  N         85.5690  144.5250  118.5590 N.3   241  LYS241     -0.1245
    210  CA        85.9250  143.3370  119.3000 C.3   241  LYS241      0.1561
    211  C         84.8310  142.2990  119.1160 C.2   241  LYS241      0.2260
    212  O         85.1100  141.1190  118.9810 O.2   241  LYS241     -0.2867
    213  CB        86.1840  143.6590  120.7710 C.3   241  LYS241      0.0271
    214  CG        86.5700  142.4600  121.6210 C.3   241  LYS241      0.0035
    215  CD        87.9610  141.9190  121.3220 C.3   241  LYS241      0.0206
    216  CE        88.2040  140.6370  122.1120 C.3   241  LYS241      0.1093
    217  NZ        89.5710  140.0660  121.9810 N.3   241  LYS241     -0.1314
    218  N         85.0420  140.1260  115.9220 N.3   244  PHE244     -0.1241
    219  CA        85.9800  139.0100  115.9400 C.3   244  PHE244      0.1605
    220  C         85.3480  137.7360  116.4700 C.2   244  PHE244      0.2264
    221  O         85.7350  136.6380  116.0540 O.2   244  PHE244     -0.2867
    222  CB        87.2140  139.3400  116.7690 C.3   244  PHE244      0.0534
    223  CG        88.1670  138.1990  116.8720 C.ar  244  PHE244     -0.0203
    224  CD1       89.0380  137.9140  115.8470 C.ar  244  PHE244     -0.0042
    225  CD2       88.1800  137.3950  117.9900 C.ar  244  PHE244     -0.0042
    226  CE1       89.9080  136.8500  115.9370 C.ar  244  PHE244     -0.0003
    227  CE2       89.0470  136.3340  118.0850 C.ar  244  PHE244     -0.0003
    228  CZ        89.9120  136.0620  117.0590 C.ar  244  PHE244     -0.0000
    229  N         85.5070  134.2940  114.3390 N.3   248  SER248     -0.1217
    230  CA        86.0550  133.0340  114.8190 C.3   248  SER248      0.1889
    231  C         85.2050  131.8620  114.3630 C.2   248  SER248      0.2288
    232  O         85.7030  130.7360  114.2670 O.2   248  SER248     -0.2866
    233  CB        86.1620  133.0510  116.3410 C.3   248  SER248      0.2089
    234  OG        86.6170  131.9090  116.8710 O.3   248  SER248     -0.2183
    235  N         86.4490  129.7420  111.3980 N.3   251  CYS251     -0.1235
    236  CA        87.5930  128.8560  111.5870 C.3   251  CYS251      0.1677
    237  C         87.1630  127.4130  111.8160 C.2   251  CYS251      0.2270
    238  O         87.8720  126.4840  111.4210 O.2   251  CYS251     -0.2867
    239  CB        88.4460  129.3320  112.7550 C.3   251  CYS251      0.0956
    240  SG        89.9290  128.3450  113.0090 S.3   251  CYS251     -0.0801
@<TRIPOS>BOND
     1   179   180    1
     2   181   182    2
     3   181   180    1
     4   180   183    1
     5   183   184    1
     6   185   184   ar
     7   185   187   ar
     8   184   186   ar
     9   187   188   ar
    10   193   194    1
    11   186   188   ar
    12   186   189   ar
    13   188   190   ar
    14   189   191   ar
    15   194   197    1
    16   194   195    1
    17   235   236    1
    18   238   237    2
    19   197   198    1
    20   198   199    1
    21   198   200    1
    22   195   196    2
    23   190   192   ar
    24   236   237    1
    25   236   239    1
    26   191   192   ar
    27   239   240    1
    28   103   102    2
    29   201   202    1
    30   232   231    2
    31   102   101    1
    32   168   167    2
    33   229   230    1
    34   231   230    1
    35   178   177   ar
    36   178   176   ar
    37   230   233    1
    38   101   104    1
    39   101   100    1
    40   177   175   ar
    41   205   202    1
    42   205   206    1
    43   104   105    1
    44   167   166    1
    45   176   174   ar
    46   202   203    1
    47   203   204    2
    48   106   105   ar
    49   106   108   ar
    50   208   207    1
    51   105   107   ar
    52   108   110   ar
    53   175   172   ar
    54   207   206    1
    55   224   226   ar
    56   224   223   ar
    57   218   219    1
    58   226   228   ar
    59   219   220    1
    60   219   222    1
    61   174   172   ar
    62   174   173   ar
    63   221   220    2
    64   107   109   ar
    65   172   170   ar
    66   110   109   ar
    67   233   234    1
    68   166   165    1
    69   166   169    1
    70   173   171   ar
    71   222   223    1
    72   223   225   ar
    73   170   171   ar
    74   170   169    1
    75   228   227   ar
    76   160   159    2
    77   225   227   ar
    78    18    16   ar
    79    18    19   ar
    80    16    14   ar
    81    96    95    2
    82    89    88    2
    83    19    17   ar
    84   209   210    1
    85   159   158    1
    86   118   116    1
    87   212   211    2
    88   211   210    1
    89    14    13    1
    90    14    15   ar
    91   163   162    1
    92   210   213    1
    93    17    15   ar
    94    95    94    1
    95   162   164    1
    96   162   161    1
    97    13    10    1
    98    91    90    1
    99    36    35   ar
   100    36    34   ar
   101    35    33   ar
   102    88    87    1
   103    88    93   am
   104   158   161    1
   105   158   157    1
   106   148   147    2
   107    94    93    1
   108    94    97    1
   109   117   115    1
   110    34    32   ar
   111   116   115    1
   112    33    31   ar
   113   129   127   ar
   114   129   128   ar
   115    98    97    1
   116    87    90    1
   117    87    86    1
   118   127   125   ar
   119   213   214    1
   120   147   157   am
   121   147   146    1
   122    32    31   ar
   123    10    11    1
   124    10     9    1
   125    90    92    1
   126    31    30    1
   127    11    12    2
   128   115   112    1
   129    97    99    1
   130   215   214    1
   131   215   216    1
   132   128   126   ar
   133    30    27    1
   134   153   151   ar
   135   153   155   ar
   136   146   145    1
   137   146   149    1
   138   125   124   ar
   139   217   216    1
   140   156   155    1
   141   112   113    1
   142   112   111    1
   143   151   150   ar
   144   155   154   ar
   145   114   113    2
   146    57    55   ar
   147    57    56   ar
   148    55    53   ar
   149   126   124   ar
   150   150   149    1
   151   150   152   ar
   152   113   119   am
   153   154   152   ar
   154   124   123    1
   155   144   142    1
   156    56    54   ar
   157    27    28    1
   158    27    26    1
   159    53    54   ar
   160    53    52    1
   161    81    80    2
   162    28    29    2
   163    26    22   am
   164   119   120    1
   165    52    49    1
   166   123   120    1
   167   142   141    1
   168    80    79    1
   169     1     2    1
   170   120   121    1
   171    83    85    1
   172    83    84    1
   173    83    82    1
   174    20    21    1
   175    22    21    1
   176    22    23    2
   177    24    21    1
   178    24    25    1
   179    79    82    1
   180    79    78    1
   181    49    50    1
   182    49    48    1
   183   141   143    1
   184   141   138    1
   185    50    51    2
   186    48    39   am
   187    72    71    2
   188     2     3    1
   189     2     5    1
   190     3     4    2
   191   121   122    2
   192   121   130   am
   193    45    43   ar
   194    45    47   ar
   195   140   139    2
   196    43    42   ar
   197    78    71   am
   198   139   138    1
   199    71    70    1
   200   138   137    1
   201     5     6    1
   202     6     7    1
   203   130   136    1
   204   130   131    1
   205   136   135    1
   206    68    67   ar
   207    68    66   ar
   208    39    38    1
   209    39    40    2
   210    47    46   ar
   211     7     8    1
   212    67    65   ar
   213    37    38    1
   214    42    41    1
   215    42    44   ar
   216    41    38    1
   217    70    69    1
   218    70    73    1
   219    66    64   ar
   220   131   132    1
   221   131   134    1
   222    74    73    1
   223    74    75    1
   224   135   134    1
   225    46    44   ar
   226    65    63   ar
   227    61    60    2
   228    77    76    1
   229   132   133    2
   230    64    63   ar
   231    75    76    1
   232    63    62    1
   233    60    59    1
   234    62    59    1
   235    59    58    1
