@<TRIPOS>MOLECULE
tmp/6n4bD02.pdb
 88 81 0 0 0
SMALL
GASTEIGER

@<TRIPOS>ATOM
      1  N         96.6180  124.6240  115.0960 N.3    93  THR93      -0.1218
      2  CA        97.9590  124.5580  114.5410 C.3    93  THR93       0.1862
      3  C         98.2090  123.1890  113.9350 C.2    93  THR93       0.2287
      4  O         98.7340  123.0850  112.8200 O.2    93  THR93      -0.2866
      5  CB        98.9960  124.8660  115.6130 C.3    93  THR93       0.1770
      6  OG1       98.7400  126.1970  116.0830 O.3    93  THR93      -0.2211
      7  CG2      100.4000  124.8140  115.1060 C.3    93  THR93       0.0375
      8  N         99.4130  122.0710  110.2510 N.3    97  GLY97      -0.1225
      9  CA       100.5160  121.1570  110.0580 C.3    97  GLY97       0.1811
     10  C        100.1600  119.9920  109.1650 C.2    97  GLY97       0.2280
     11  O        101.0340  119.4200  108.5150 O.2    97  GLY97      -0.2866
     12  N        100.0050  121.3250  105.4190 N.3   100  PHE100     -0.1227
     13  CA       101.3550  121.5270  104.9160 C.3   100  PHE100      0.1736
     14  C        102.1000  120.2350  104.6340 C.2   100  PHE100      0.2595
     15  O        103.1440  120.2760  104.0140 O.2   100  PHE100     -0.2718
     16  CB       102.1660  122.4060  105.8600 C.3   100  PHE100      0.0547
     17  CG       103.6250  122.4440  105.5490 C.ar  100  PHE100     -0.0202
     18  CD1      104.4600  121.4780  106.0490 C.ar  100  PHE100     -0.0042
     19  CD2      104.1460  123.4130  104.7310 C.ar  100  PHE100     -0.0042
     20  CE1      105.8060  121.4880  105.7660 C.ar  100  PHE100     -0.0003
     21  CE2      105.4920  123.4390  104.4390 C.ar  100  PHE100     -0.0003
     22  CZ       106.3260  122.4710  104.9570 C.ar  100  PHE100     -0.0000
     23  N        101.6050  119.1000  105.0990 N.am  101  LEU101     -0.1980
     24  CA       102.2940  117.8530  104.8090 C.3   101  LEU101      0.1596
     25  C        101.7640  117.1690  103.5670 C.2   101  LEU101      0.2287
     26  O        102.4730  116.3500  102.9780 O.2   101  LEU101     -0.2864
     27  CB       102.2290  116.9110  106.0040 C.3   101  LEU101      0.0297
     28  CG       102.9660  117.4080  107.2430 C.3   101  LEU101      0.0022
     29  CD1      102.7290  116.4880  108.4200 C.3   101  LEU101      0.0001
     30  CD2      104.4500  117.5250  106.9480 C.3   101  LEU101      0.0001
     31  N        109.3360  106.7600  106.5920 N.3   124  LYS124     -0.1245
     32  CA       109.7080  108.1700  106.6280 C.3   124  LYS124      0.1561
     33  C        108.4730  109.0300  106.8570 C.2   124  LYS124      0.2260
     34  O        108.5200  110.0290  107.5920 O.2   124  LYS124     -0.2867
     35  CB       110.4150  108.5620  105.3330 C.3   124  LYS124      0.0271
     36  CG       111.2230  109.8440  105.4640 C.3   124  LYS124      0.0035
     37  CD       111.9700  110.1960  104.1870 C.3   124  LYS124      0.0206
     38  CE       111.0720  110.9270  103.2040 C.3   124  LYS124      0.1093
     39  NZ       111.8330  111.4270  102.0210 N.3   124  LYS124     -0.1314
     40  N        107.5310  108.9390  110.4640 N.3   127  VAL127     -0.1231
     41  CA       108.4600  109.7680  111.2280 C.3   127  VAL127      0.1692
     42  C        108.0540  111.2320  111.1560 C.2   127  VAL127      0.2591
     43  O        107.9890  111.9270  112.1790 O.2   127  VAL127     -0.2718
     44  CB       109.9010  109.5670  110.7290 C.3   127  VAL127      0.0266
     45  CG1      110.8940  110.4280  111.5020 C.3   127  VAL127      0.0020
     46  CG2      110.2850  108.0980  110.9260 C.3   127  VAL127      0.0020
     47  N        107.7670  111.7250  109.9470 N.am  128  ALA128     -0.1980
     48  CA       107.3310  113.1160  109.8260 C.3   128  ALA128      0.1597
     49  C        106.0140  113.3380  110.5610 C.2   128  ALA128      0.2287
     50  O        105.7980  114.4000  111.1530 O.2   128  ALA128     -0.2864
     51  CB       107.2050  113.5070  108.3560 C.3   128  ALA128      0.0319
     52  N        106.7250  113.5720  114.2690 N.3   131  LEU131     -0.1231
     53  CA       107.4500  114.8100  114.5370 C.3   131  LEU131      0.1693
     54  C        106.4990  116.0070  114.5020 C.2   131  LEU131      0.2591
     55  O        106.6310  116.9380  115.3060 O.2   131  LEU131     -0.2718
     56  CB       108.6070  114.9740  113.5600 C.3   131  LEU131      0.0284
     57  CG       109.3670  116.2800  113.7320 C.3   131  LEU131      0.0019
     58  CD1      109.9910  116.2930  115.1020 C.3   131  LEU131      0.0001
     59  CD2      110.4580  116.3440  112.7070 C.3   131  LEU131      0.0001
     60  N        105.5650  115.9780  113.5530 N.am  132  MET132     -0.1979
     61  CA       104.6230  117.0720  113.3760 C.3   132  MET132      0.1605
     62  C        103.8260  117.2150  114.6370 C.2   132  MET132      0.2287
     63  O        103.5760  118.3140  115.1100 O.2   132  MET132     -0.2864
     64  CB       103.6640  116.7780  112.2230 C.3   132  MET132      0.0413
     65  CG       102.6090  117.8050  111.8870 C.3   132  MET132      0.0598
     66  SD       103.2980  119.4610  111.7120 S.3   132  MET132     -0.1393
     67  CE       104.3960  119.3720  110.3200 C.3   132  MET132      0.0692
     68  N        106.1440  118.5900  117.6670 N.3   135  ILE135     -0.1231
     69  CA       106.2880  120.0300  117.4680 C.3   135  ILE135      0.1692
     70  C        105.0170  120.8080  117.7830 C.2   135  ILE135      0.2591
     71  O        105.0880  121.9450  118.2670 O.2   135  ILE135     -0.2718
     72  CB       106.7850  120.3130  116.0380 C.3   135  ILE135      0.0266
     73  CG1      108.2000  119.7680  115.8680 C.3   135  ILE135      0.0019
     74  CG2      106.8090  121.7990  115.7640 C.3   135  ILE135      0.0020
     75  CD1      108.6790  119.7570  114.4450 C.3   135  ILE135      0.0001
     76  N        103.8550  120.2880  117.4030 N.am  136  ALA136     -0.1980
     77  CA       102.6090  121.0120  117.6770 C.3   136  ALA136      0.1597
     78  C        102.1840  121.1050  119.1340 C.2   136  ALA136      0.2287
     79  O        101.9100  122.1930  119.6590 O.2   136  ALA136     -0.2864
     80  CB       101.4740  120.3970  116.8740 C.3   136  ALA136      0.0319
     81  N        103.8600  129.0730  107.2900 N.3   172  LEU172     -0.1245
     82  CA       103.3000  127.7990  106.8600 C.3   172  LEU172      0.1561
     83  C        102.2170  127.9450  105.8100 C.2   172  LEU172      0.2260
     84  O        102.1680  127.1920  104.8660 O.2   172  LEU172     -0.2867
     85  CB       102.7670  127.0100  108.0430 C.3   172  LEU172      0.0270
     86  CG       103.8970  126.6220  108.9720 C.3   172  LEU172      0.0019
     87  CD1      103.3330  125.9690  110.2140 C.3   172  LEU172      0.0001
     88  CD2      104.7490  125.6340  108.2150 C.3   172  LEU172      0.0001
@<TRIPOS>BOND
     1    39    38    1
     2    26    25    2
     3    38    37    1
     4    25    24    1
     5    15    14    2
     6    37    36    1
     7    21    19   ar
     8    21    22   ar
     9    14    13    1
    10    14    23   am
    11    19    17   ar
    12    24    23    1
    13    24    27    1
    14    84    83    2
    15    13    12    1
    16    13    16    1
    17    22    20   ar
    18    35    36    1
    19    35    32    1
    20    17    16    1
    21    17    18   ar
    22    20    18   ar
    23    83    82    1
    24    27    28    1
    25    31    32    1
    26    32    33    1
    27    33    34    2
    28    82    81    1
    29    82    85    1
    30    30    28    1
    31    28    29    1
    32    85    86    1
    33    88    86    1
    34    51    48    1
    35    11    10    2
    36    86    87    1
    37    10     9    1
    38    48    47    1
    39    48    49    1
    40    47    42   am
    41     9     8    1
    42    67    66    1
    43    40    41    1
    44    49    50    2
    45    44    46    1
    46    44    41    1
    47    44    45    1
    48    42    41    1
    49    42    43    2
    50    66    65    1
    51    65    64    1
    52    64    61    1
    53    59    57    1
    54     4     3    2
    55    61    60    1
    56    61    62    1
    57    60    54   am
    58    56    57    1
    59    56    53    1
    60    57    58    1
    61     3     2    1
    62    52    53    1
    63    75    73    1
    64    54    53    1
    65    54    55    2
    66     2     1    1
    67     2     5    1
    68    62    63    2
    69     7     5    1
    70     5     6    1
    71    74    72    1
    72    73    72    1
    73    72    69    1
    74    80    77    1
    75    76    77    1
    76    76    70   am
    77    69    68    1
    78    69    70    1
    79    77    78    1
    80    70    71    2
    81    78    79    2
