@<TRIPOS>MOLECULE
tmp/6n4iA00.pdb
 112 108 0 0 0
SMALL
GASTEIGER

@<TRIPOS>ATOM
      1  N        101.0870  258.3010  235.5290 N.3   139  ILE139     -0.1245
      2  CA        99.6690  257.9930  235.3540 C.3   139  ILE139      0.1561
      3  C         98.8360  259.2540  235.5360 C.2   139  ILE139      0.2260
      4  O         97.9580  259.5700  234.7220 O.2   139  ILE139     -0.2867
      5  CB        99.2260  256.8840  236.3250 C.3   139  ILE139      0.0252
      6  CG1       99.9250  255.5680  235.9810 C.3   139  ILE139      0.0019
      7  CG2       97.7010  256.7160  236.2820 C.3   139  ILE139      0.0019
      8  CD1       99.5630  254.4010  236.9040 C.3   139  ILE139      0.0001
      9  N         99.3830  261.7870  232.6560 N.3   142  MET142     -0.1230
     10  CA        98.7190  261.3810  231.4250 C.3   142  MET142      0.1702
     11  C         97.2120  261.5400  231.5490 C.2   142  MET142      0.2593
     12  O         96.5410  261.9450  230.5910 O.2   142  MET142     -0.2718
     13  CB        99.0950  259.9350  231.0970 C.3   142  MET142      0.0401
     14  CG        98.4100  259.3490  229.8780 C.3   142  MET142      0.0596
     15  SD        99.0720  257.7220  229.4640 S.3   142  MET142     -0.1393
     16  CE        98.3400  256.7470  230.7760 C.3   142  MET142      0.0692
     17  N         96.6660  261.2680  232.7360 N.am  143  THR143     -0.1953
     18  CA        95.2390  261.4670  232.9530 C.3   143  THR143      0.1897
     19  C         94.8710  262.9460  232.8740 C.2   143  THR143      0.2313
     20  O         93.8200  263.3040  232.3290 O.2   143  THR143     -0.2863
     21  CB        94.8440  260.8630  234.2950 C.3   143  THR143      0.1794
     22  OG1       95.2030  259.4750  234.3020 O.3   143  THR143     -0.2208
     23  CG2       93.3390  261.0020  234.5350 C.3   143  THR143      0.0378
     24  N         94.7700  263.8540  229.2800 N.3   146  PHE146     -0.1241
     25  CA        93.5120  263.3780  228.7160 C.3   146  PHE146      0.1605
     26  C         92.3830  264.3430  229.0420 C.2   146  PHE146      0.2264
     27  O         91.5910  264.7070  228.1700 O.2   146  PHE146     -0.2867
     28  CB        93.1780  261.9890  229.2570 C.3   146  PHE146      0.0534
     29  CG        93.7870  260.8630  228.4880 C.ar  146  PHE146     -0.0203
     30  CD1       94.9720  261.0320  227.7920 C.ar  146  PHE146     -0.0042
     31  CD2       93.1570  259.6320  228.4430 C.ar  146  PHE146     -0.0042
     32  CE1       95.5170  259.9860  227.0740 C.ar  146  PHE146     -0.0003
     33  CE2       93.6940  258.5850  227.7300 C.ar  146  PHE146     -0.0003
     34  CZ        94.8790  258.7610  227.0430 C.ar  146  PHE146     -0.0000
     35  N         80.3310  265.0040  224.2610 N.3   167  THR167     -0.1203
     36  CA        80.5460  265.4410  225.6290 C.3   167  THR167      0.1994
     37  C         81.9610  265.0640  226.0390 C.2   167  THR167      0.2618
     38  O         82.7480  264.5440  225.2410 O.2   167  THR167     -0.2717
     39  CB        79.5240  264.8210  226.5900 C.3   167  THR167      0.1784
     40  OG1       79.7640  265.3070  227.9160 O.3   167  THR167     -0.2211
     41  CG2       79.6240  263.2960  226.5830 C.3   167  THR167      0.0376
     42  N         82.2850  265.3370  227.3020 N.am  168  LEU168     -0.1965
     43  CA        83.6140  265.0270  227.8070 C.3   168  LEU168      0.1728
     44  C         83.8600  263.5250  227.8680 C.2   168  LEU168      0.2617
     45  O         84.9950  263.0790  227.6740 O.2   168  LEU168     -0.2715
     46  CB        83.7900  265.6550  229.1880 C.3   168  LEU168      0.0311
     47  CG        85.1920  265.5940  229.7870 C.3   168  LEU168      0.0022
     48  CD1       85.4440  266.8370  230.5890 C.3   168  LEU168      0.0001
     49  CD2       85.3360  264.3670  230.6680 C.3   168  LEU168      0.0001
     50  N         82.8210  262.7340  228.1230 N.am  169  GLY169     -0.1940
     51  CA        82.9710  261.2960  228.2570 C.3   169  GLY169      0.2014
     52  C         83.3530  260.5930  226.9690 C.2   169  GLY169      0.2638
     53  O         84.3640  259.8800  226.9130 O.2   169  GLY169     -0.2714
     54  N         82.5310  260.7540  225.9320 N.am  170  GLU170     -0.1977
     55  CA        82.8760  260.1800  224.6380 C.3   170  GLU170      0.1602
     56  C         84.2080  260.7230  224.1480 C.2   170  GLU170      0.2287
     57  O         84.9370  260.0330  223.4300 O.2   170  GLU170     -0.2864
     58  CB        81.7820  260.4600  223.6130 C.3   170  GLU170      0.0415
     59  CG        80.3940  260.0580  224.0670 C.3   170  GLU170      0.1163
     60  CD        80.2150  258.5630  224.1420 C.2   170  GLU170      0.3649
     61  OE1       81.0880  257.8270  223.6410 O.co2 170  GLU170     -0.2457
     62  OE2       79.1960  258.1200  224.7050 O.co2 170  GLU170     -0.2457
     63  N         86.8360  261.5080  226.1020 N.3   172  PHE172     -0.1227
     64  CA        87.8280  260.7010  226.8060 C.3   172  PHE172      0.1736
     65  C         87.9870  259.3420  226.1410 C.2   172  PHE172      0.2595
     66  O         89.1090  258.8670  225.9040 O.2   172  PHE172     -0.2718
     67  CB        87.3990  260.5120  228.2600 C.3   172  PHE172      0.0547
     68  CG        88.2350  261.2560  229.2470 C.ar  172  PHE172     -0.0202
     69  CD1       87.7930  262.4540  229.7760 C.ar  172  PHE172     -0.0042
     70  CD2       89.4600  260.7630  229.6500 C.ar  172  PHE172     -0.0042
     71  CE1       88.5540  263.1410  230.6860 C.ar  172  PHE172     -0.0003
     72  CE2       90.2170  261.4430  230.5670 C.ar  172  PHE172     -0.0003
     73  CZ        89.7700  262.6390  231.0810 C.ar  172  PHE172     -0.0000
     74  N         86.8560  258.6930  225.8540 N.am  173  TYR173     -0.1976
     75  CA        86.8910  257.3770  225.2260 C.3   173  TYR173      0.1639
     76  C         87.6410  257.4330  223.9020 C.2   173  TYR173      0.2290
     77  O         88.5660  256.6470  223.6580 O.2   173  TYR173     -0.2864
     78  CB        85.4640  256.8640  225.0070 C.3   173  TYR173      0.0560
     79  CG        85.4110  255.4740  224.4190 C.ar  173  TYR173     -0.0198
     80  CD1       85.0430  254.3860  225.1960 C.ar  173  TYR173     -0.0009
     81  CD2       85.7470  255.2500  223.0920 C.ar  173  TYR173     -0.0009
     82  CE1       85.0040  253.1150  224.6660 C.ar  173  TYR173      0.0417
     83  CE2       85.7100  253.9860  222.5520 C.ar  173  TYR173      0.0417
     84  CZ        85.3390  252.9170  223.3450 C.ar  173  TYR173      0.1957
     85  OH        85.2990  251.6420  222.8230 O.3   173  TYR173     -0.2866
     86  N         91.4380  258.0040  224.2770 N.3   176  PHE176     -0.1241
     87  CA        92.0920  256.7460  224.6290 C.3   176  PHE176      0.1605
     88  C         92.2280  255.8480  223.4000 C.2   176  PHE176      0.2264
     89  O         93.3030  255.2870  223.1280 O.2   176  PHE176     -0.2867
     90  CB        91.2810  256.0650  225.7350 C.3   176  PHE176      0.0534
     91  CG        91.9200  254.8360  226.3030 C.ar  176  PHE176     -0.0203
     92  CD1       93.0760  254.9270  227.0630 C.ar  176  PHE176     -0.0042
     93  CD2       91.3430  253.5920  226.1090 C.ar  176  PHE176     -0.0042
     94  CE1       93.6630  253.7960  227.5980 C.ar  176  PHE176     -0.0003
     95  CE2       91.9200  252.4550  226.6380 C.ar  176  PHE176     -0.0003
     96  CZ        93.0850  252.5560  227.3890 C.ar  176  PHE176     -0.0000
     97  N         95.0020  257.0490  221.2390 N.3   179  MET179     -0.1245
     98  CA        96.2660  256.6420  221.8430 C.3   179  MET179      0.1570
     99  C         96.6130  255.2080  221.4700 C.2   179  MET179      0.2261
    100  O         97.7870  254.8810  221.2640 O.2   179  MET179     -0.2867
    101  CB        96.2160  256.8010  223.3630 C.3   179  MET179      0.0387
    102  CG        97.5050  256.3780  224.0620 C.3   179  MET179      0.0595
    103  SD        97.4880  256.7370  225.8310 S.3   179  MET179     -0.1393
    104  CE        96.3550  255.4770  226.4060 C.3   179  MET179      0.0692
    105  N        107.1230  255.7380  230.2570 N.3   217  LEU217     -0.1245
    106  CA       106.6460  254.7780  231.2460 C.3   217  LEU217      0.1561
    107  C        107.5030  253.5180  231.2140 C.2   217  LEU217      0.2260
    108  O        108.0140  253.0750  232.2500 O.2   217  LEU217     -0.2867
    109  CB       105.1700  254.4540  230.9950 C.3   217  LEU217      0.0270
    110  CG       104.4690  253.6000  232.0560 C.3   217  LEU217      0.0019
    111  CD1      102.9910  253.9580  232.1340 C.3   217  LEU217      0.0001
    112  CD2      104.6350  252.1050  231.7900 C.3   217  LEU217      0.0001
@<TRIPOS>BOND
     1    97    98    1
     2   100    99    2
     3    99    98    1
     4    98   101    1
     5    83    81   ar
     6    83    84   ar
     7    85    84    1
     8    81    79   ar
     9    89    88    2
    10    84    82   ar
    11   101   102    1
    12    88    87    1
    13    57    56    2
    14    58    59    1
    15    58    55    1
    16    61    60   ar
    17    77    76    2
    18    76    75    1
    19   102   103    1
    20    59    60    1
    21    60    62   ar
    22    56    55    1
    23    35    36    1
    24    86    87    1
    25    79    78    1
    26    79    80   ar
    27    87    90    1
    28    55    54    1
    29    82    80   ar
    30    78    75    1
    31    75    74    1
    32    38    37    2
    33    36    37    1
    34    36    39    1
    35    90    91    1
    36   103   104    1
    37    74    65   am
    38    66    65    2
    39    54    52   am
    40    37    42   am
    41    63    64    1
    42    93    91   ar
    43    93    95   ar
    44    65    64    1
    45    91    92   ar
    46    41    39    1
    47    39    40    1
    48    95    96   ar
    49    64    67    1
    50    53    52    2
    51    52    51    1
    52    34    32   ar
    53    34    33   ar
    54    92    94   ar
    55    32    30   ar
    56    42    43    1
    57    96    94   ar
    58    45    44    2
    59    33    31   ar
    60    30    29   ar
    61    43    44    1
    62    43    46    1
    63    44    50   am
    64    50    51    1
    65    27    26    2
    66    67    68    1
    67    31    29   ar
    68    29    28    1
    69    25    26    1
    70    25    28    1
    71    25    24    1
    72    46    47    1
    73    68    70   ar
    74    68    69   ar
    75    15    14    1
    76    15    16    1
    77    70    72   ar
    78    69    71   ar
    79    47    48    1
    80    47    49    1
    81    14    13    1
    82   105   106    1
    83    72    73   ar
    84    12    11    2
    85    71    73   ar
    86   109   106    1
    87   109   110    1
    88    13    10    1
    89   107   106    1
    90   107   108    2
    91    10    11    1
    92    10     9    1
    93    11    17   am
    94   112   110    1
    95   110   111    1
    96    20    19    2
    97    17    18    1
    98    19    18    1
    99    18    21    1
   100    21    22    1
   101    21    23    1
   102     4     3    2
   103     2     1    1
   104     2     3    1
   105     2     5    1
   106     6     5    1
   107     6     8    1
   108     7     5    1
