@<TRIPOS>MOLECULE
tmp/6n4yC01.pdb
 94 92 0 0 0
SMALL
GASTEIGER

@<TRIPOS>ATOM
      1  N          5.4100   39.1420  112.4930 N.3    53  ARG53      -0.1245
      2  CA         5.6890   38.2870  113.6440 C.3    53  ARG53       0.1563
      3  C          5.1430   38.8910  114.9320 C.2    53  ARG53       0.2260
      4  O          4.4470   38.2170  115.7000 O.2    53  ARG53      -0.2867
      5  CB         7.1920   38.0440  113.7650 C.3    53  ARG53       0.0307
      6  CG         7.7660   37.1490  112.6890 C.3    53  ARG53       0.0489
      7  CD         9.2790   37.1270  112.7710 C.3    53  ARG53       0.2205
      8  NE         9.7730   36.5420  114.0140 N.pl3  53  ARG53      -0.0865
      9  CZ        10.1000   35.2630  114.1600 C.cat  53  ARG53       0.5346
     10  NH1        9.9860   34.4250  113.1370 N.pl3  53  ARG53       0.1354
     11  NH2       10.5440   34.8220  115.3300 N.pl3  53  ARG53       0.1354
     12  N          2.4410   37.3980  117.5350 N.3    57  ASP57      -0.1239
     13  CA         2.8690   37.0020  118.8730 C.3    57  ASP57       0.1674
     14  C          1.8200   37.4290  119.8930 C.2    57  ASP57       0.2266
     15  O          1.5450   38.6280  120.0170 O.2    57  ASP57      -0.2867
     16  CB         4.2180   37.6290  119.2050 C.3    57  ASP57       0.1410
     17  CG         4.8380   37.0620  120.4720 C.2    57  ASP57       0.3668
     18  OD1        4.1980   36.2220  121.1380 O.co2  57  ASP57      -0.2456
     19  OD2        5.9770   37.4570  120.7980 O.co2  57  ASP57      -0.2456
     20  N          3.2190   39.6820  123.1330 N.3    60  LEU60      -0.1245
     21  CA         3.6600   41.0500  122.9020 C.3    60  LEU60       0.1561
     22  C          2.5670   41.8010  122.1530 C.2    60  LEU60       0.2260
     23  O          2.2000   41.4140  121.0370 O.2    60  LEU60      -0.2867
     24  CB         4.9680   41.0670  122.1130 C.3    60  LEU60       0.0270
     25  CG         5.6200   42.4250  121.8650 C.3    60  LEU60       0.0019
     26  CD1        5.9690   43.0940  123.1810 C.3    60  LEU60       0.0001
     27  CD2        6.8590   42.2600  121.0020 C.3    60  LEU60       0.0001
     28  N         15.3660   32.9920  110.7820 N.3   292  TRP292     -0.1241
     29  CA        14.0250   33.1160  110.2300 C.3   292  TRP292      0.1605
     30  C         13.9170   34.2300  109.1980 C.2   292  TRP292      0.2264
     31  O         13.0450   34.1550  108.3240 O.2   292  TRP292     -0.2867
     32  CB        13.0000   33.3220  111.3500 C.3   292  TRP292      0.0550
     33  CG        13.2960   34.4490  112.2930 C.ar  292  TRP292      0.0003
     34  CD1       13.9280   34.3620  113.4990 C.ar  292  TRP292      0.0946
     35  CD2       12.9650   35.8310  112.1120 C.ar  292  TRP292      0.0152
     36  NE1       14.0100   35.6040  114.0810 N.ar  292  TRP292     -0.2442
     37  CE2       13.4280   36.5230  113.2490 C.ar  292  TRP292      0.0810
     38  CE3       12.3260   36.5510  111.0980 C.ar  292  TRP292      0.0012
     39  CZ2       13.2720   37.9000  113.3990 C.ar  292  TRP292      0.0191
     40  CZ3       12.1750   37.9180  111.2490 C.ar  292  TRP292      0.0001
     41  CH2       12.6420   38.5770  112.3930 C.ar  292  TRP292      0.0015
     42  N         11.8650   45.5430  117.5820 N.3   361  TYR361     -0.1241
     43  CA        11.3770   44.9790  118.8370 C.3   361  TYR361      0.1605
     44  C         11.4870   45.9620  119.9960 C.2   361  TYR361      0.2264
     45  O         10.6850   45.8960  120.9300 O.2   361  TYR361     -0.2867
     46  CB        12.1140   43.6810  119.1650 C.3   361  TYR361      0.0534
     47  CG        11.5150   42.4640  118.4960 C.ar  361  TYR361     -0.0201
     48  CD1       10.4040   41.8350  119.0400 C.ar  361  TYR361     -0.0009
     49  CD2       12.0560   41.9440  117.3290 C.ar  361  TYR361     -0.0009
     50  CE1        9.8450   40.7240  118.4420 C.ar  361  TYR361      0.0417
     51  CE2       11.5030   40.8290  116.7230 C.ar  361  TYR361      0.0417
     52  CZ        10.3980   40.2240  117.2840 C.ar  361  TYR361      0.1957
     53  OH         9.8430   39.1150  116.6850 O.3   361  TYR361     -0.2866
     54  N          8.2740   46.6100  122.2800 N.3   365  TYR365     -0.1241
     55  CA         8.2400   46.4520  123.7310 C.3   365  TYR365      0.1605
     56  C          7.9560   47.7690  124.4390 C.2   365  TYR365      0.2264
     57  O          7.2990   47.7750  125.4860 O.2   365  TYR365     -0.2867
     58  CB         9.5540   45.8560  124.2420 C.3   365  TYR365      0.0534
     59  CG         9.6530   44.3510  124.1140 C.ar  365  TYR365     -0.0201
     60  CD1        9.0980   43.5180  125.0760 C.ar  365  TYR365     -0.0009
     61  CD2       10.3100   43.7640  123.0410 C.ar  365  TYR365     -0.0009
     62  CE1        9.1870   42.1430  124.9680 C.ar  365  TYR365      0.0417
     63  CE2       10.4030   42.3890  122.9250 C.ar  365  TYR365      0.0417
     64  CZ         9.8400   41.5850  123.8920 C.ar  365  TYR365      0.1957
     65  OH         9.9300   40.2180  123.7810 O.3   365  TYR365     -0.2866
     66  N         14.9670   43.9780  127.3140 N.3   402  PHE402     -0.1227
     67  CA        14.4200   42.7560  126.7260 C.3   402  PHE402      0.1736
     68  C         15.5330   41.9440  126.0830 C.2   402  PHE402      0.2596
     69  O         16.5370   42.4930  125.6400 O.2   402  PHE402     -0.2718
     70  CB        13.3520   43.0710  125.6750 C.3   402  PHE402      0.0547
     71  CG        13.9050   43.6650  124.4010 C.ar  402  PHE402     -0.0202
     72  CD1       14.1060   45.0320  124.2850 C.ar  402  PHE402     -0.0042
     73  CD2       14.2090   42.8570  123.3150 C.ar  402  PHE402     -0.0042
     74  CE1       14.6090   45.5770  123.1140 C.ar  402  PHE402     -0.0003
     75  CE2       14.7130   43.3960  122.1460 C.ar  402  PHE402     -0.0003
     76  CZ        14.9120   44.7550  122.0430 C.ar  402  PHE402     -0.0000
     77  N         15.3130   40.6340  125.9690 N.am  403  THR403     -0.1939
     78  CA        16.2720   39.7680  125.2890 C.3   403  THR403      0.2028
     79  C         16.1380   39.9020  123.7770 C.2   403  THR403      0.2643
     80  O         15.0530   39.7130  123.2180 O.2   403  THR403     -0.2714
     81  CB        16.0840   38.3090  125.7030 C.3   403  THR403      0.1808
     82  OG1       16.4550   38.1530  127.0760 O.3   403  THR403     -0.2208
     83  CG2       16.9480   37.3900  124.8460 C.3   403  THR403      0.0379
     84  N         17.2510   40.2080  123.1190 N.am  404  GLY404     -0.1939
     85  CA        17.2550   40.4630  121.6970 C.3   404  GLY404      0.2014
     86  C         17.1280   39.2030  120.8610 C.2   404  GLY404      0.2638
     87  O         16.9690   38.0850  121.3530 O.2   404  GLY404     -0.2714
     88  N         17.2130   39.4070  119.5440 N.am  405  VAL405     -0.1977
     89  CA        17.0040   38.3300  118.5840 C.3   405  VAL405      0.1596
     90  C         18.1110   37.2810  118.6470 C.2   405  VAL405      0.2287
     91  O         17.9200   36.1570  118.1690 O.2   405  VAL405     -0.2864
     92  CB        16.8760   38.9320  117.1690 C.3   405  VAL405      0.0276
     93  CG1       18.2010   39.5380  116.7210 C.3   405  VAL405      0.0022
     94  CG2       16.3700   37.9000  116.1660 C.3   405  VAL405      0.0022
@<TRIPOS>BOND
     1    31    30    2
     2    30    29    1
     3    29    28    1
     4    29    32    1
     5    38    40   ar
     6    38    35   ar
     7    40    41   ar
     8    32    33    1
     9    35    33   ar
    10    35    37   ar
    11    33    34   ar
    12    41    39   ar
    13     1     2    1
    14     6     7    1
    15     6     5    1
    16     7     8    1
    17    10     9    1
    18    37    39   ar
    19    37    36   ar
    20    34    36   ar
    21     2     5    1
    22     2     3    1
    23     8     9    2
    24     9    11    1
    25     3     4    2
    26    94    92    1
    27    53    52    1
    28    93    92    1
    29    51    52   ar
    30    51    49   ar
    31    92    89    1
    32    52    50   ar
    33    49    47   ar
    34    12    13    1
    35    42    43    1
    36    91    90    2
    37    50    48   ar
    38    47    48   ar
    39    47    46    1
    40    89    90    1
    41    89    88    1
    42    43    46    1
    43    43    44    1
    44    13    16    1
    45    13    14    1
    46    16    17    1
    47    88    86   am
    48    14    15    2
    49    44    45    2
    50    17    19   ar
    51    17    18   ar
    52    86    87    2
    53    86    85    1
    54    27    25    1
    55    23    22    2
    56    85    84    1
    57    25    24    1
    58    25    26    1
    59    76    75   ar
    60    76    74   ar
    61    24    21    1
    62    75    73   ar
    63    22    21    1
    64    54    55    1
    65    21    20    1
    66    63    61   ar
    67    63    64   ar
    68    61    59   ar
    69    74    72   ar
    70    84    79   am
    71    80    79    2
    72    73    71   ar
    73    55    58    1
    74    55    56    1
    75    79    78    1
    76    65    64    1
    77    64    62   ar
    78    59    58    1
    79    59    60   ar
    80    72    71   ar
    81    71    70    1
    82    56    57    2
    83    83    81    1
    84    62    60   ar
    85    78    81    1
    86    78    77    1
    87    69    68    2
    88    70    67    1
    89    81    82    1
    90    77    68   am
    91    68    67    1
    92    67    66    1
