@<TRIPOS>MOLECULE
tmp/6n51A01.pdb
 123 116 0 0 0
SMALL
GASTEIGER

@<TRIPOS>ATOM
      1  N        152.9600  117.6410  181.7250 N.3    39  ARG39      -0.1245
      2  CA       153.6600  118.1310  180.5470 C.3    39  ARG39       0.1563
      3  C        155.0920  118.4410  180.9490 C.2    39  ARG39       0.2260
      4  O        155.3250  119.2590  181.8430 O.2    39  ARG39      -0.2867
      5  CB       152.9740  119.3690  179.9770 C.3    39  ARG39       0.0307
      6  CG       151.5900  119.1150  179.4240 C.3    39  ARG39       0.0489
      7  CD       150.9480  120.4220  179.0140 C.3    39  ARG39       0.2205
      8  NE       151.6390  121.0500  177.8920 N.pl3  39  ARG39      -0.0865
      9  CZ       151.3220  120.8380  176.6240 C.cat  39  ARG39       0.5346
     10  NH1      150.3220  120.0230  176.3230 N.pl3  39  ARG39       0.1354
     11  NH2      151.9940  121.4440  175.6650 N.pl3  39  ARG39       0.1354
     12  N        156.4490  122.2050  178.8470 N.3    42  TYR42      -0.1241
     13  CA       155.7370  123.4330  179.1580 C.3    42  TYR42       0.1605
     14  C        155.3140  123.5100  180.6100 C.2    42  TYR42       0.2264
     15  O        154.6920  124.4970  181.0050 O.2    42  TYR42      -0.2867
     16  CB       154.5060  123.5970  178.2720 C.3    42  TYR42       0.0534
     17  CG       154.7920  124.1410  176.9020 C.ar   42  TYR42      -0.0201
     18  CD1      156.0630  124.5580  176.5450 C.ar   42  TYR42      -0.0009
     19  CD2      153.7690  124.3090  175.9950 C.ar   42  TYR42      -0.0009
     20  CE1      156.3160  125.0810  175.2900 C.ar   42  TYR42       0.0417
     21  CE2      153.9970  124.8380  174.7520 C.ar   42  TYR42       0.0417
     22  CZ       155.2710  125.2190  174.3980 C.ar   42  TYR42       0.1957
     23  OH       155.4990  125.7420  173.1480 O.3    42  TYR42      -0.2866
     24  N        145.8460  124.5110  180.2620 N.3    78  TRP78      -0.1241
     25  CA       145.4820  125.0830  178.9630 C.3    78  TRP78       0.1605
     26  C        144.0010  125.4030  178.8070 C.2    78  TRP78       0.2264
     27  O        143.5510  125.6660  177.6880 O.2    78  TRP78      -0.2867
     28  CB       145.8890  124.1770  177.8010 C.3    78  TRP78       0.0550
     29  CG       147.3210  124.1190  177.5480 C.ar   78  TRP78       0.0003
     30  CD1      148.1930  123.2040  178.0360 C.ar   78  TRP78       0.0946
     31  CD2      148.0710  124.9830  176.7000 C.ar   78  TRP78       0.0152
     32  NE1      149.4530  123.4520  177.5600 N.ar   78  TRP78      -0.2442
     33  CE2      149.4030  124.5440  176.7370 C.ar   78  TRP78       0.0810
     34  CE3      147.7510  126.0910  175.9210 C.ar   78  TRP78       0.0012
     35  CZ2      150.4120  125.1740  176.0270 C.ar   78  TRP78       0.0191
     36  CZ3      148.7560  126.7090  175.2140 C.ar   78  TRP78       0.0001
     37  CH2      150.0690  126.2540  175.2740 C.ar   78  TRP78       0.0015
     38  N        150.0510  130.5550  179.4210 N.3   117  GLY117     -0.1210
     39  CA       150.8200  130.3600  178.2120 C.3   117  GLY117      0.1956
     40  C        150.0190  130.0920  176.9590 C.2   117  GLY117      0.2613
     41  O        150.5590  129.5560  175.9900 O.2   117  GLY117     -0.2717
     42  N        148.7440  130.4490  176.9510 N.am  118  SER118     -0.1938
     43  CA       147.9920  130.4750  175.7110 C.3   118  SER118      0.2055
     44  C        147.5320  131.8960  175.4680 C.2   118  SER118      0.2643
     45  O        147.9160  132.8270  176.1790 O.2   118  SER118     -0.2714
     46  CB       146.7910  129.5470  175.7500 C.3   118  SER118      0.2130
     47  OG       145.7540  130.1460  176.4780 O.3   118  SER118     -0.2179
     48  N        146.6840  132.0650  174.4650 N.am  119  SER119     -0.1949
     49  CA       146.0460  133.3490  174.2540 C.3   119  SER119      0.1924
     50  C        144.6990  133.4350  174.9500 C.2   119  SER119      0.2314
     51  O        144.5040  134.3130  175.7930 O.2   119  SER119     -0.2863
     52  CB       145.8780  133.6130  172.7610 C.3   119  SER119      0.2116
     53  OG       147.1390  133.6940  172.1310 O.3   119  SER119     -0.2180
     54  N        153.6070  133.7910  176.5480 N.3   140  SER140     -0.1217
     55  CA       153.2860  133.1920  175.2660 C.3   140  SER140      0.1889
     56  C        151.9580  133.6580  174.7050 C.2   140  SER140      0.2288
     57  O        151.5510  133.1610  173.6540 O.2   140  SER140     -0.2866
     58  CB       153.2880  131.6640  175.3670 C.3   140  SER140      0.2089
     59  OG       154.6000  131.1890  175.5860 O.3   140  SER140     -0.2183
     60  N        150.3230  135.5630  172.4520 N.3   142  THR142     -0.1218
     61  CA       150.8410  136.2740  171.3000 C.3   142  THR142      0.1862
     62  C        149.7590  136.7660  170.3550 C.2   142  THR142      0.2287
     63  O        150.0900  137.2950  169.2920 O.2   142  THR142     -0.2866
     64  CB       151.8150  135.3810  170.5310 C.3   142  THR142      0.1770
     65  OG1      151.1420  134.1780  170.1360 O.3   142  THR142     -0.2211
     66  CG2      153.0050  135.0310  171.3930 C.3   142  THR142      0.0375
     67  N        143.5180  132.4830  169.6220 N.3   190  TYR190     -0.1241
     68  CA       144.8550  132.5410  169.0500 C.3   190  TYR190      0.1605
     69  C        144.8050  132.2730  167.5570 C.2   190  TYR190      0.2264
     70  O        145.1490  133.1400  166.7450 O.2   190  TYR190     -0.2867
     71  CB       145.7730  131.5310  169.7320 C.3   190  TYR190      0.0534
     72  CG       147.0860  131.3550  169.0200 C.ar  190  TYR190     -0.0201
     73  CD1      148.0340  132.3730  168.9980 C.ar  190  TYR190     -0.0009
     74  CD2      147.3870  130.1690  168.3820 C.ar  190  TYR190     -0.0009
     75  CE1      149.2370  132.2050  168.3340 C.ar  190  TYR190      0.0417
     76  CE2      148.5840  129.9940  167.7390 C.ar  190  TYR190      0.0417
     77  CZ       149.4990  131.0040  167.7120 C.ar  190  TYR190      0.1957
     78  OH       150.6880  130.8040  167.0510 O.3   190  TYR190     -0.2866
     79  N        147.8470  124.8380  167.6220 N.3   246  GLU246     -0.1231
     80  CA       148.7800  124.5280  168.6870 C.3   246  GLU246      0.1699
     81  C        149.2190  123.0710  168.5710 C.2   246  GLU246      0.2592
     82  O        148.8050  122.3420  167.6660 O.2   246  GLU246     -0.2718
     83  CB       148.1590  124.8610  170.0390 C.3   246  GLU246      0.0402
     84  CG       146.9040  124.1040  170.3720 C.3   246  GLU246      0.1161
     85  CD       146.2730  124.6070  171.6530 C.2   246  GLU246      0.3649
     86  OE1      146.8100  125.5730  172.2350 O.co2 246  GLU246     -0.2457
     87  OE2      145.2460  124.0420  172.0810 O.co2 246  GLU246     -0.2457
     88  N        150.0610  122.6470  169.5140 N.am  247  GLY247     -0.1957
     89  CA       150.8720  121.4590  169.3010 C.3   247  GLY247      0.1869
     90  C        150.0850  120.1640  169.2700 C.2   247  GLY247      0.2309
     91  O        150.3500  119.2900  168.4380 O.2   247  GLY247     -0.2863
     92  N        154.2950  129.0170  165.5880 N.3   272  ASP272     -0.1225
     93  CA       155.1380  128.5900  166.7030 C.3   272  ASP272      0.1805
     94  C        154.5150  127.5160  167.5910 C.2   272  ASP272      0.2598
     95  O        155.1240  127.1720  168.6060 O.2   272  ASP272     -0.2718
     96  CB       155.5180  129.7890  167.5680 C.3   272  ASP272      0.1424
     97  CG       154.3150  130.5210  168.1190 C.2   272  ASP272      0.3668
     98  OD1      153.1760  130.2340  167.6970 O.co2 272  ASP272     -0.2456
     99  OD2      154.5110  131.3820  169.0000 O.co2 272  ASP272     -0.2456
    100  N        153.3340  126.9950  167.2570 N.am  273  GLY273     -0.1957
    101  CA       152.7100  125.9490  168.0400 C.3   273  GLY273      0.1869
    102  C        153.4690  124.6400  168.0490 C.2   273  GLY273      0.2309
    103  O        153.2760  123.8360  168.9630 O.2   273  GLY273     -0.2863
    104  N        158.9530  121.6350  169.4690 N.3   277  ARG277     -0.1245
    105  CA       158.3000  120.5960  170.2520 C.3   277  ARG277      0.1563
    106  C        158.5570  119.2430  169.6050 C.2   277  ARG277      0.2260
    107  O        157.9900  118.9170  168.5640 O.2   277  ARG277     -0.2867
    108  CB       156.8190  120.9120  170.3790 C.3   277  ARG277      0.0307
    109  CG       156.5630  122.0660  171.3160 C.3   277  ARG277      0.0489
    110  CD       155.0930  122.4040  171.3720 C.3   277  ARG277      0.2205
    111  NE       154.3050  121.2690  171.8270 N.pl3 277  ARG277     -0.0865
    112  CZ       154.1070  120.9500  173.1000 C.cat 277  ARG277      0.5346
    113  NH1      154.6510  121.6690  174.0620 N.pl3 277  ARG277      0.1354
    114  NH2      153.3740  119.8920  173.4140 N.pl3 277  ARG277      0.1354
    115  N        160.9700  128.3930  174.7370 N.3   363  LYS363     -0.1245
    116  CA       160.4330  129.6770  175.1560 C.3   363  LYS363      0.1561
    117  C        160.7620  130.0170  176.5950 C.2   363  LYS363      0.2260
    118  O        160.2580  131.0170  177.1110 O.2   363  LYS363     -0.2867
    119  CB       158.9180  129.7070  174.9700 C.3   363  LYS363      0.0271
    120  CG       158.4630  129.6520  173.5330 C.3   363  LYS363      0.0035
    121  CD       156.9510  129.7400  173.4440 C.3   363  LYS363      0.0206
    122  CE       156.4950  129.7350  172.0030 C.3   363  LYS363      0.1093
    123  NZ       156.8010  128.4210  171.3790 N.3   363  LYS363     -0.1314
@<TRIPOS>BOND
     1    92    93    1
     2    93    96    1
     3    93    94    1
     4    70    69    2
     5    78    77    1
     6   100    94   am
     7   100   101    1
     8    69    68    1
     9    96    97    1
    10    94    95    2
    11    79    80    1
    12    82    81    2
    13    98    97   ar
    14    77    76   ar
    15    77    75   ar
    16    76    74   ar
    17   101   102    1
    18   102   103    2
    19    97    99   ar
    20    75    73   ar
    21    74    72   ar
    22    91    90    2
    23   107   106    2
    24    81    80    1
    25    81    88   am
    26    80    83    1
    27    73    72   ar
    28    72    71    1
    29    68    67    1
    30    68    71    1
    31    90    89    1
    32    63    62    2
    33    89    88    1
    34   104   105    1
    35   106   105    1
    36    83    84    1
    37    65    64    1
    38   105   108    1
    39    62    61    1
    40    84    85    1
    41   108   109    1
    42    64    61    1
    43    64    66    1
    44    61    60    1
    45   109   110    1
    46   110   111    1
    47   123   122    1
    48    85    87   ar
    49    85    86   ar
    50   111   112    2
    51   122   121    1
    52    53    52    1
    53    52    49    1
    54   112   114    1
    55   112   113    1
    56    23    22    1
    57   121   120    1
    58   120   119    1
    59    57    56    2
    60    49    48    1
    61    49    50    1
    62    22    21   ar
    63    22    20   ar
    64    48    44   am
    65    56    55    1
    66   115   116    1
    67    21    19   ar
    68    50    51    2
    69   119   116    1
    70   116   117    1
    71    36    37   ar
    72    36    34   ar
    73    55    58    1
    74    55    54    1
    75    37    35   ar
    76    20    18   ar
    77    58    59    1
    78    44    43    1
    79    44    45    2
    80    11     9    1
    81    43    46    1
    82    43    42    1
    83    46    47    1
    84    34    31   ar
    85    41    40    2
    86    19    17   ar
    87    35    33   ar
    88    10     9    1
    89    18    17   ar
    90   117   118    2
    91     9     8    2
    92    31    33   ar
    93    31    29   ar
    94    33    32   ar
    95    17    16    1
    96    42    40   am
    97    40    39    1
    98    29    28    1
    99    29    30   ar
   100    32    30   ar
   101    27    26    2
   102    28    25    1
   103     8     7    1
   104    39    38    1
   105    16    13    1
   106    26    25    1
   107    12    13    1
   108    25    24    1
   109     7     6    1
   110    13    14    1
   111     6     5    1
   112     5     2    1
   113     2     3    1
   114     2     1    1
   115    14    15    2
   116     3     4    2
